@<TRIPOS>MOLECULE
tmp/4zfzA01.pdb
 92 89 0 0 0
SMALL
GASTEIGER

@<TRIPOS>ATOM
      1  N         -7.3170  -19.3750   -0.6400 N.3     1  ALA1       -0.1231
      2  CA        -8.5420  -18.5790   -0.5150 C.3     1  ALA1        0.1694
      3  C         -9.3540  -18.6770   -1.8000 C.2     1  ALA1        0.2593
      4  O         -8.8040  -18.9780   -2.8500 O.2     1  ALA1       -0.2718
      5  CB        -8.2190  -17.1370   -0.1970 C.3     1  ALA1        0.0304
      6  N        -10.6540  -18.4180   -1.7090 N.am    2  GLY2       -0.1942
      7  CA       -11.5480  -18.5930   -2.8490 C.3     2  GLY2        0.2014
      8  C        -11.3580  -17.5580   -3.9430 C.2     2  GLY2        0.2640
      9  O        -11.4930  -17.8680   -5.1350 O.2     2  GLY2       -0.2714
     10  N        -11.0410  -16.3250   -3.5340 N.am    3  SER3       -0.1935
     11  CA       -10.7420  -15.2640   -4.4870 C.3     3  SER3        0.2055
     12  C         -9.3460  -14.6990   -4.2380 C.2     3  SER3        0.2643
     13  O         -8.8590  -14.6880   -3.0980 O.2     3  SER3       -0.2714
     14  CB       -11.7830  -14.1390   -4.4060 C.3     3  SER3        0.2130
     15  OG       -13.1020  -14.6600   -4.5160 O.3     3  SER3       -0.2179
     16  N         -8.7230  -14.2350   -5.3130 N.am    4  HIS4       -0.1959
     17  CA        -7.4130  -13.6090   -5.2410 C.3     4  HIS4        0.1787
     18  C         -7.3620  -12.3920   -6.1400 C.2     4  HIS4        0.2620
     19  O         -8.1840  -12.2290   -7.0470 O.2     4  HIS4       -0.2715
     20  CB        -6.3170  -14.6130   -5.6140 C.3     4  HIS4        0.0785
     21  CG        -6.1310  -15.6810   -4.5850 C.ar    4  HIS4        0.0821
     22  ND1       -5.4080  -15.4830   -3.4310 N.ar    4  HIS4       -0.2267
     23  CD2       -6.6020  -16.9550   -4.5170 C.ar    4  HIS4        0.1154
     24  CE1       -5.4190  -16.5840   -2.7030 C.ar    4  HIS4        0.1986
     25  NE2       -6.1360  -17.4880   -3.3370 N.ar    4  HIS4       -0.2212
     26  N         -6.3890  -11.5320   -5.8860 N.am    5  SER5       -0.1950
     27  CA        -6.2760  -10.3110   -6.6600 C.3     5  SER5        0.1924
     28  C         -4.8430  -10.1020   -7.1320 C.2     5  SER5        0.2314
     29  O         -3.8820  -10.5430   -6.4860 O.2     5  SER5       -0.2863
     30  CB        -6.7520   -9.0980   -5.8360 C.3     5  SER5        0.2116
     31  OG        -5.9870   -8.9160   -4.6730 O.3     5  SER5       -0.2180
     32  N         -2.6090  -10.2420   -3.9250 N.3    30  ASP30      -0.1225
     33  CA        -3.2660  -10.0470   -2.6370 C.3    30  ASP30       0.1805
     34  C         -2.4960   -8.9570   -1.8870 C.2    30  ASP30       0.2597
     35  O         -2.2820   -7.8980   -2.4440 O.2    30  ASP30      -0.2718
     36  CB        -3.3430  -11.3710   -1.8730 C.3    30  ASP30       0.1424
     37  CG        -4.1960  -12.3990   -2.6080 C.2    30  ASP30       0.3668
     38  OD1       -5.2070  -11.9650   -3.2040 O.co2  30  ASP30      -0.2456
     39  OD2       -3.8480  -13.6130   -2.6240 O.co2  30  ASP30      -0.2456
     40  N         -2.0590   -9.2090   -0.6570 N.am   31  ASP31      -0.1974
     41  CA        -1.2960   -8.2020    0.0760 C.3    31  ASP31       0.1709
     42  C          0.2140   -8.4300    0.0710 C.2    31  ASP31       0.2293
     43  O          0.9340   -7.9380    0.9420 O.2    31  ASP31      -0.2864
     44  CB        -1.8000   -8.1360    1.5260 C.3    31  ASP31       0.1436
     45  CG        -3.2500   -7.6950    1.6070 C.2    31  ASP31       0.3671
     46  OD1       -3.6180   -6.7170    0.9110 O.co2  31  ASP31      -0.2456
     47  OD2       -4.0300   -8.3490    2.3330 O.co2  31  ASP31      -0.2456
     48  N         -9.3460   -9.4840  -10.2630 N.3   103  ASP103     -0.1239
     49  CA        -9.7270  -10.3660   -9.1770 C.3   103  ASP103      0.1674
     50  C        -10.1600  -11.6820   -9.8060 C.2   103  ASP103      0.2266
     51  O        -11.0070  -11.6940  -10.7030 O.2   103  ASP103     -0.2867
     52  CB       -10.8800   -9.7940   -8.3390 C.3   103  ASP103      0.1410
     53  CG       -10.5080   -8.5130   -7.6030 C.2   103  ASP103      0.3668
     54  OD1       -9.3120   -8.2910   -7.3280 O.co2 103  ASP103     -0.2456
     55  OD2      -11.4320   -7.7330   -7.2950 O.co2 103  ASP103     -0.2456
     56  N         -2.0700  -12.6140    8.1450 N.3   210  TYR210     -0.1228
     57  CA        -2.0610  -12.4800    6.6850 C.3   210  TYR210      0.1721
     58  C         -3.3060  -13.1900    6.1480 C.2   210  TYR210      0.2437
     59  O         -3.5690  -14.3120    6.5500 O.2   210  TYR210     -0.2733
     60  CB        -0.7910  -13.0930    6.0700 C.3   210  TYR210      0.0547
     61  CG        -0.7800  -12.8510    4.5780 C.ar  210  TYR210     -0.0200
     62  CD1       -1.3770  -13.7480    3.7120 C.ar  210  TYR210     -0.0009
     63  CD2       -0.2220  -11.6860    4.0530 C.ar  210  TYR210     -0.0009
     64  CE1       -1.4140  -13.5160    2.3490 C.ar  210  TYR210      0.0417
     65  CE2       -0.2440  -11.4370    2.6630 C.ar  210  TYR210      0.0417
     66  CZ        -0.8390  -12.3550    1.8320 C.ar  210  TYR210      0.1957
     67  OH        -0.8660  -12.1220    0.4700 O.3   210  TYR210     -0.2866
     68  N         -4.0630  -12.5520    5.2330 N.am  211  PRO211     -0.2729
     69  CA        -3.8480  -11.2190    4.6530 C.3   211  PRO211      0.1401
     70  C         -4.2510  -10.1000    5.6030 C.2   211  PRO211      0.2269
     71  O         -4.5590  -10.3680    6.7800 O.2   211  PRO211     -0.2865
     72  CB        -4.7440  -11.2380    3.4090 C.3   211  PRO211      0.0296
     73  CG        -5.8770  -12.1290    3.8120 C.3   211  PRO211      0.0237
     74  CD        -5.2370  -13.2180    4.6400 C.3   211  PRO211      0.0939
     75  N         -6.7560   -7.8130    5.6270 N.3   213  GLU213     -0.1245
     76  CA        -8.1660   -7.6520    6.0030 C.3   213  GLU213      0.1567
     77  C         -8.4660   -8.2500    7.3740 C.2   213  GLU213      0.2260
     78  O         -8.2270   -9.4270    7.5990 O.2   213  GLU213     -0.2867
     79  CB        -9.0720   -8.3100    4.9640 C.3   213  GLU213      0.0388
     80  CG       -10.5350   -7.9080    5.0520 C.3   213  GLU213      0.1160
     81  CD       -10.7450   -6.4070    5.0500 C.2   213  GLU213      0.3649
     82  OE1      -10.0820   -5.7040    4.2530 O.co2 213  GLU213     -0.2457
     83  OE2      -11.5830   -5.9320    5.8440 O.co2 213  GLU213     -0.2457
     84  N         -9.9650  -14.0160    7.9610 N.3   265  GLU265     -0.1245
     85  CA       -10.2880  -15.1560    7.1010 C.3   265  GLU265      0.1567
     86  C         -9.4850  -16.3930    7.5150 C.2   265  GLU265      0.2260
     87  O         -9.8530  -17.5200    7.1800 O.2   265  GLU265     -0.2867
     88  CB       -10.0770  -14.8100    5.6080 C.3   265  GLU265      0.0388
     89  CG        -8.6440  -14.5780    5.1550 C.3   265  GLU265      0.1160
     90  CD        -8.4960  -14.5340    3.6220 C.2   265  GLU265      0.3649
     91  OE1       -9.1680  -13.7130    2.9530 O.co2 265  GLU265     -0.2457
     92  OE2       -7.6950  -15.3230    3.0880 O.co2 265  GLU265     -0.2457
@<TRIPOS>BOND
     1    51    50    2
     2    48    49    1
     3    50    49    1
     4    49    52    1
     5    52    53    1
     6    53    54   ar
     7    53    55   ar
     8    28    27    1
     9    28    29    2
    10    19    18    2
    11    27    26    1
    12    27    30    1
    13    18    26   am
    14    18    17    1
    15    30    31    1
    16    20    17    1
    17    20    21    1
    18    16    17    1
    19    16    12   am
    20     9     8    2
    21    21    23   ar
    22    21    22   ar
    23    23    25   ar
    24    15    14    1
    25    11    14    1
    26    11    12    1
    27    11    10    1
    28    12    13    2
    29     8    10   am
    30     8     7    1
    31    32    33    1
    32    22    24   ar
    33    25    24   ar
    34    38    37   ar
    35     4     3    2
    36     7     6    1
    37    33    34    1
    38    33    36    1
    39    39    37   ar
    40    37    36    1
    41    35    34    2
    42    34    40   am
    43     3     6   am
    44     3     2    1
    45    40    41    1
    46     1     2    1
    47     2     5    1
    48    42    41    1
    49    42    43    2
    50    41    44    1
    51    67    66    1
    52    46    45   ar
    53    44    45    1
    54    45    47   ar
    55    66    64   ar
    56    66    65   ar
    57    64    62   ar
    58    65    63   ar
    59    91    90   ar
    60    92    90   ar
    61    72    73    1
    62    72    69    1
    63    90    89    1
    64    62    61   ar
    65    73    74    1
    66    63    61   ar
    67    82    81   ar
    68    61    60    1
    69    74    68    1
    70    69    68    1
    71    69    70    1
    72    79    80    1
    73    79    76    1
    74    81    80    1
    75    81    83   ar
    76    89    88    1
    77    68    58   am
    78    70    71    2
    79    88    85    1
    80    75    76    1
    81    76    77    1
    82    60    57    1
    83    58    59    2
    84    58    57    1
    85    57    56    1
    86    85    86    1
    87    85    84    1
    88    87    86    2
    89    77    78    2
