@<TRIPOS>MOLECULE
tmp/4zg6B02.pdb
 238 231 0 0 0
SMALL
GASTEIGER

@<TRIPOS>ATOM
      1  N         56.0550   -1.7200   83.7200 N.3    16  LEU16      -0.1245
      2  CA        55.7980   -0.3960   84.2740 C.3    16  LEU16       0.1561
      3  C         55.9830   -0.2820   85.7780 C.2    16  LEU16       0.2260
      4  O         55.7390    0.7930   86.3300 O.2    16  LEU16      -0.2867
      5  CB        54.3810    0.0710   83.9170 C.3    16  LEU16       0.0270
      6  CG        54.2140    0.5790   82.4800 C.3    16  LEU16       0.0019
      7  CD1       52.7400    0.7810   82.1860 C.3    16  LEU16       0.0001
      8  CD2       55.0040    1.8630   82.2300 C.3    16  LEU16       0.0001
      9  N         57.9600    2.7030   86.8050 N.3    19  SER19      -0.1217
     10  CA        57.2400    3.9830   86.7300 C.3    19  SER19       0.1889
     11  C         56.5010    4.3290   88.0250 C.2    19  SER19       0.2288
     12  O         56.2640    5.5060   88.3010 O.2    19  SER19      -0.2866
     13  CB        56.2350    3.9810   85.5700 C.3    19  SER19       0.2089
     14  OG        56.8710    3.7520   84.3300 O.3    19  SER19      -0.2183
     15  N         53.8080   -3.3000   66.7950 N.3   105  ILE105     -0.1245
     16  CA        53.8140   -1.8500   66.4570 C.3   105  ILE105      0.1561
     17  C         55.1230   -1.2800   66.9470 C.2   105  ILE105      0.2260
     18  O         55.3510   -1.1600   68.1500 O.2   105  ILE105     -0.2867
     19  CB        52.5970   -1.0870   67.0730 C.3   105  ILE105      0.0252
     20  CG1       51.3010   -1.7230   66.6300 C.3   105  ILE105      0.0019
     21  CG2       52.5740    0.4050   66.6800 C.3   105  ILE105      0.0019
     22  CD1       50.1990   -1.6170   67.6470 C.3   105  ILE105      0.0001
     23  N         57.0580    1.8280   67.3030 N.3   107  SER107     -0.1202
     24  CA        56.7790    3.2560   67.2490 C.3   107  SER107      0.2020
     25  C         58.0370    4.0470   67.5740 C.2   107  SER107      0.2619
     26  O         58.7880    3.7140   68.5080 O.2   107  SER107     -0.2717
     27  CB        55.6200    3.6510   68.1700 C.3   107  SER107      0.2103
     28  OG        55.8310    3.2020   69.4930 O.3   107  SER107     -0.2182
     29  N         58.2610    5.0950   66.7950 N.am  108  VAL108     -0.1965
     30  CA        59.4620    5.9250   66.9280 C.3   108  VAL108      0.1727
     31  C         59.0110    7.3640   67.0810 C.2   108  VAL108      0.2616
     32  O         58.2890    7.8930   66.2330 O.2   108  VAL108     -0.2715
     33  CB        60.4200    5.7240   65.7380 C.3   108  VAL108      0.0290
     34  CG1       61.1630    4.4130   65.9170 C.3   108  VAL108      0.0023
     35  CG2       59.6830    5.6880   64.4180 C.3   108  VAL108      0.0023
     36  N         59.3760    7.9560   68.1990 N.am  109  ASP109     -0.1971
     37  CA        59.0020    9.3080   68.5080 C.3   109  ASP109      0.1709
     38  C         59.7520   10.2950   67.6270 C.2   109  ASP109      0.2293
     39  O         60.9830   10.2060   67.5310 O.2   109  ASP109     -0.2864
     40  CB        59.3110    9.5740   69.9680 C.3   109  ASP109      0.1436
     41  CG        58.4580   10.6450   70.5380 C.2   109  ASP109      0.3671
     42  OD1       58.3640   11.6700   69.8750 O.co2 109  ASP109     -0.2456
     43  OD2       57.8640   10.4540   71.6300 O.co2 109  ASP109     -0.2456
     44  N         53.5280   14.3120   71.2540 N.3   147  THR147     -0.1203
     45  CA        53.6270   12.8720   71.4700 C.3   147  THR147      0.1994
     46  C         52.3610   12.2560   72.0640 C.2   147  THR147      0.2617
     47  O         51.7690   11.3210   71.5040 O.2   147  THR147     -0.2717
     48  CB        54.8290   12.5790   72.3970 C.3   147  THR147      0.1784
     49  OG1       56.0450   12.8980   71.6950 O.3   147  THR147     -0.2211
     50  CG2       54.8480   11.1080   72.8280 C.3   147  THR147      0.0376
     51  N         51.9110   12.7560   73.2000 N.am  148  PHE148     -0.1975
     52  CA        50.7590   12.1130   73.8070 C.3   148  PHE148      0.1639
     53  C         49.4330   12.1770   73.0350 C.2   148  PHE148      0.2290
     54  O         48.7540   11.1430   72.9160 O.2   148  PHE148     -0.2864
     55  CB        50.5960   12.5550   75.2600 C.3   148  PHE148      0.0560
     56  CG        51.3490   11.6660   76.2230 C.ar  148  PHE148     -0.0200
     57  CD1       52.7240   11.5730   76.1570 C.ar  148  PHE148     -0.0042
     58  CD2       50.6740   10.8770   77.1390 C.ar  148  PHE148     -0.0042
     59  CE1       53.4290   10.7470   77.0200 C.ar  148  PHE148     -0.0003
     60  CE2       51.3640   10.0460   78.0190 C.ar  148  PHE148     -0.0003
     61  CZ        52.7480    9.9800   77.9570 C.ar  148  PHE148     -0.0000
     62  N         49.1280   12.2240   69.8480 N.3   150  ASN150     -0.1225
     63  CA        49.2720   11.3580   68.7060 C.3   150  ASN150      0.1785
     64  C         49.3150    9.8600   69.0810 C.2   150  ASN150      0.2597
     65  O         48.6850    9.0530   68.3910 O.2   150  ASN150     -0.2718
     66  CB        50.4500   11.8210   67.8390 C.3   150  ASN150      0.1169
     67  CG        50.0030   12.8870   66.9000 C.2   150  ASN150      0.2627
     68  OD1       49.3860   12.5730   65.8750 O.2   150  ASN150     -0.2716
     69  ND2       50.1320   14.1250   67.3000 N.am  150  ASN150     -0.0877
     70  N         49.9740    9.4940   70.1800 N.am  151  LEU151     -0.1980
     71  CA        50.0640    8.0780   70.5330 C.3   151  LEU151      0.1596
     72  C         48.6870    7.5820   70.8920 C.2   151  LEU151      0.2287
     73  O         48.3500    6.4580   70.5590 O.2   151  LEU151     -0.2864
     74  CB        51.0350    7.7950   71.6850 C.3   151  LEU151      0.0297
     75  CG        50.6040    8.0130   73.1550 C.3   151  LEU151      0.0022
     76  CD1       49.8040    6.8730   73.7980 C.3   151  LEU151      0.0001
     77  CD2       51.8480    8.2780   73.9970 C.3   151  LEU151      0.0001
     78  N         46.6990    7.2520   67.6320 N.3   154  LEU154     -0.1231
     79  CA        47.0730    5.9580   67.0510 C.3   154  LEU154      0.1693
     80  C         46.2920    4.8010   67.7210 C.2   154  LEU154      0.2591
     81  O         45.7780    3.9190   67.0520 O.2   154  LEU154     -0.2718
     82  CB        48.5790    5.7420   67.1940 C.3   154  LEU154      0.0284
     83  CG        49.1160    4.3940   66.7280 C.3   154  LEU154      0.0019
     84  CD1       48.8330    4.2000   65.2500 C.3   154  LEU154      0.0001
     85  CD2       50.5980    4.2950   67.0140 C.3   154  LEU154      0.0001
     86  N         46.2060    4.8470   69.0620 N.am  155  ALA155     -0.1980
     87  CA        45.5590    3.7870   69.8220 C.3   155  ALA155      0.1597
     88  C         44.0440    3.7000   69.7020 C.2   155  ALA155      0.2287
     89  O         43.5130    2.6250   69.9400 O.2   155  ALA155     -0.2864
     90  CB        45.9070    3.9090   71.3000 C.3   155  ALA155      0.0319
     91  N         53.5600   15.5480   81.4350 N.3   181  LEU181     -0.1231
     92  CA        54.3960   14.4850   80.8740 C.3   181  LEU181      0.1693
     93  C         55.1760   13.7480   81.9400 C.2   181  LEU181      0.2591
     94  O         55.2160   12.5200   81.9550 O.2   181  LEU181     -0.2718
     95  CB        55.4010   15.0630   79.8920 C.3   181  LEU181      0.0284
     96  CG        54.9100   15.1800   78.4640 C.3   181  LEU181      0.0019
     97  CD1       56.0290   15.7610   77.6060 C.3   181  LEU181      0.0001
     98  CD2       54.4660   13.8250   77.9360 C.3   181  LEU181      0.0001
     99  N         55.8390   14.5180   82.7960 N.am  182  ARG182     -0.1980
    100  CA        56.4350   13.9810   84.0040 C.3   182  ARG182      0.1597
    101  C         55.3450   14.0200   85.0690 C.2   182  ARG182      0.2287
    102  O         54.5630   14.9830   85.1370 O.2   182  ARG182     -0.2864
    103  CB        57.6550   14.8100   84.4240 C.3   182  ARG182      0.0334
    104  CG        58.7170   15.0080   83.3410 C.3   182  ARG182      0.0492
    105  CD        59.8130   13.9510   83.4070 C.3   182  ARG182      0.2205
    106  NE        59.3270   12.6190   83.0590 N.pl3 182  ARG182     -0.0865
    107  CZ        59.0980   12.2050   81.8220 C.cat 182  ARG182      0.5346
    108  NH1       59.3160   13.0170   80.7990 N.pl3 182  ARG182      0.1354
    109  NH2       58.6790   10.9690   81.5980 N.pl3 182  ARG182      0.1354
    110  N         49.0580   11.5620   85.1550 N.3   186  LYS186     -0.1231
    111  CA        48.7610   10.9410   83.8500 C.3   186  LYS186      0.1693
    112  C         48.3750    9.4540   83.9230 C.2   186  LYS186      0.2592
    113  O         47.7430    8.9240   83.0060 O.2   186  LYS186     -0.2718
    114  CB        49.9430   11.1490   82.8860 C.3   186  LYS186      0.0285
    115  CG        51.2110   10.3610   83.1650 C.3   186  LYS186      0.0035
    116  CD        52.1840   10.5290   81.9990 C.3   186  LYS186      0.0206
    117  CE        53.4760    9.7390   82.1880 C.3   186  LYS186      0.1093
    118  NZ        54.2280   10.1900   83.3980 N.3   186  LYS186     -0.1314
    119  N         48.7390    8.7970   85.0210 N.am  187  PHE187     -0.1976
    120  CA        48.3990    7.3990   85.2270 C.3   187  PHE187      0.1639
    121  C         46.9600    7.1910   85.5950 C.2   187  PHE187      0.2290
    122  O         46.4770    6.0830   85.4270 O.2   187  PHE187     -0.2864
    123  CB        49.2940    6.7550   86.3030 C.3   187  PHE187      0.0560
    124  CG        50.7190    6.6390   85.8790 C.ar  187  PHE187     -0.0200
    125  CD1       51.0800    5.7500   84.8810 C.ar  187  PHE187     -0.0042
    126  CD2       51.6910    7.4560   86.4280 C.ar  187  PHE187     -0.0042
    127  CE1       52.3930    5.6560   84.4550 C.ar  187  PHE187     -0.0003
    128  CE2       53.0080    7.3680   86.0100 C.ar  187  PHE187     -0.0003
    129  CZ        53.3590    6.4680   85.0170 C.ar  187  PHE187     -0.0000
    130  N         43.3260    0.2850   71.4490 N.3   197  LEU197     -0.1231
    131  CA        43.4820   -1.0170   70.8110 C.3   197  LEU197      0.1693
    132  C         43.6470   -2.1620   71.7920 C.2   197  LEU197      0.2592
    133  O         43.0350   -3.1780   71.6060 O.2   197  LEU197     -0.2718
    134  CB        44.6620   -0.9890   69.8230 C.3   197  LEU197      0.0284
    135  CG        44.9470   -2.2310   68.9850 C.3   197  LEU197      0.0019
    136  CD1       43.8490   -2.5050   67.9920 C.3   197  LEU197      0.0001
    137  CD2       46.2680   -2.0280   68.2710 C.3   197  LEU197      0.0001
    138  N         44.4960   -2.0150   72.8100 N.am  198  TRP198     -0.1976
    139  CA        44.7230   -3.0940   73.7620 C.3   198  TRP198      0.1640
    140  C         43.4490   -3.4910   74.5140 C.2   198  TRP198      0.2290
    141  O         43.2590   -4.6710   74.8040 O.2   198  TRP198     -0.2864
    142  CB        45.8780   -2.7850   74.7480 C.3   198  TRP198      0.0576
    143  CG        45.7370   -1.5120   75.5030 C.ar  198  TRP198      0.0006
    144  CD1       45.1560   -1.3360   76.7330 C.ar  198  TRP198      0.0946
    145  CD2       46.2150   -0.2310   75.0970 C.ar  198  TRP198      0.0152
    146  NE1       45.2250   -0.0110   77.1000 N.ar  198  TRP198     -0.2442
    147  CE2       45.8710    0.6880   76.1070 C.ar  198  TRP198      0.0810
    148  CE3       46.8840    0.2410   73.9460 C.ar  198  TRP198      0.0012
    149  CZ2       46.1790    2.0470   76.0110 C.ar  198  TRP198      0.0191
    150  CZ3       47.1790    1.5850   73.8560 C.ar  198  TRP198      0.0001
    151  CH2       46.8180    2.4770   74.8670 C.ar  198  TRP198      0.0015
    152  N         51.7200   -2.0240   76.0730 N.3   211  PHE211     -0.1227
    153  CA        52.0730   -1.0440   75.0610 C.3   211  PHE211      0.1736
    154  C         53.1080   -0.0460   75.5700 C.2   211  PHE211      0.2595
    155  O         53.8240    0.5560   74.7720 O.2   211  PHE211     -0.2718
    156  CB        50.8240   -0.3500   74.5330 C.3   211  PHE211      0.0547
    157  CG        50.0980   -1.1510   73.4950 C.ar  211  PHE211     -0.0202
    158  CD1       49.8250   -2.4840   73.7010 C.ar  211  PHE211     -0.0042
    159  CD2       49.7120   -0.5680   72.2920 C.ar  211  PHE211     -0.0042
    160  CE1       49.1480   -3.2230   72.7440 C.ar  211  PHE211     -0.0003
    161  CE2       49.0400   -1.3080   71.3310 C.ar  211  PHE211     -0.0003
    162  CZ        48.7530   -2.6300   71.5570 C.ar  211  PHE211     -0.0000
    163  N         53.2050    0.0990   76.8880 N.am  212  PHE212     -0.1962
    164  CA        54.1680    1.0340   77.4940 C.3   212  PHE212      0.1771
    165  C         55.3830    0.4290   78.2360 C.2   212  PHE212      0.2619
    166  O         55.3250   -0.6560   78.7860 O.2   212  PHE212     -0.2715
    167  CB        53.3850    1.9860   78.3800 C.3   212  PHE212      0.0574
    168  CG        52.2380    2.6320   77.6600 C.ar  212  PHE212     -0.0200
    169  CD1       52.4510    3.7420   76.8480 C.ar  212  PHE212     -0.0042
    170  CD2       50.9610    2.0930   77.7330 C.ar  212  PHE212     -0.0042
    171  CE1       51.4060    4.3260   76.1520 C.ar  212  PHE212     -0.0003
    172  CE2       49.9110    2.6750   77.0430 C.ar  212  PHE212     -0.0003
    173  CZ        50.1300    3.7910   76.2510 C.ar  212  PHE212     -0.0000
    174  N         56.4960    1.1620   78.2240 N.am  213  TRP213     -0.1974
    175  CA        57.7510    0.7080   78.8250 C.3   213  TRP213      0.1640
    176  C         58.3150    1.8270   79.6920 C.2   213  TRP213      0.2290
    177  O         58.4060    2.9780   79.2370 O.2   213  TRP213     -0.2864
    178  CB        58.7590    0.3730   77.7230 C.3   213  TRP213      0.0576
    179  CG        58.2710   -0.6460   76.7680 C.ar  213  TRP213      0.0006
    180  CD1       57.5130   -0.4260   75.6510 C.ar  213  TRP213      0.0946
    181  CD2       58.5000   -2.0540   76.8300 C.ar  213  TRP213      0.0152
    182  NE1       57.2550   -1.6130   75.0090 N.ar  213  TRP213     -0.2442
    183  CE2       57.8430   -2.6320   75.7150 C.ar  213  TRP213      0.0810
    184  CE3       59.2060   -2.8850   77.7070 C.ar  213  TRP213      0.0012
    185  CZ2       57.8730   -3.9980   75.4600 C.ar  213  TRP213      0.0191
    186  CZ3       59.2290   -4.2360   77.4600 C.ar  213  TRP213      0.0001
    187  CH2       58.5680   -4.7850   76.3400 C.ar  213  TRP213      0.0015
    188  N         60.9210    4.1970   81.2960 N.3   215  VAL215     -0.1245
    189  CA        62.0370    4.8470   80.5990 C.3   215  VAL215      0.1561
    190  C         63.3600    4.1250   80.8690 C.2   215  VAL215      0.2260
    191  O         64.2050    4.0160   79.9860 O.2   215  VAL215     -0.2867
    192  CB        62.1250    6.3440   81.0050 C.3   215  VAL215      0.0252
    193  CG1       63.3450    7.0190   80.4020 C.3   215  VAL215      0.0019
    194  CG2       60.8570    7.0730   80.5670 C.3   215  VAL215      0.0019
    195  N         53.6430   -3.6660   71.3910 N.3   242  ALA242     -0.1245
    196  CA        54.2530   -2.4230   70.9380 C.3   242  ALA242      0.1562
    197  C         55.6490   -2.2570   71.5220 C.2   242  ALA242      0.2260
    198  O         55.9120   -2.5840   72.6830 O.2   242  ALA242     -0.2867
    199  CB        53.4050   -1.2120   71.2850 C.3   242  ALA242      0.0290
    200  N         58.3740    1.0410   71.7520 N.3   244  TYR244     -0.1241
    201  CA        58.4520    2.4740   71.7130 C.3   244  TYR244      0.1605
    202  C         59.8910    2.8890   71.9190 C.2   244  TYR244      0.2264
    203  O         60.6040    2.3190   72.7600 O.2   244  TYR244     -0.2867
    204  CB        57.6110    3.1270   72.8100 C.3   244  TYR244      0.0534
    205  CG        57.8210    4.6280   72.9270 C.ar  244  TYR244     -0.0201
    206  CD1       57.3730    5.5130   71.9250 C.ar  244  TYR244     -0.0009
    207  CD2       58.4980    5.1630   74.0250 C.ar  244  TYR244     -0.0009
    208  CE1       57.5940    6.8950   72.0330 C.ar  244  TYR244      0.0417
    209  CE2       58.7180    6.5310   74.1460 C.ar  244  TYR244      0.0417
    210  CZ        58.2740    7.3920   73.1560 C.ar  244  TYR244      0.1957
    211  OH        58.5130    8.7470   73.3170 O.3   244  TYR244     -0.2866
    212  N         55.9680    3.0890   62.6200 N.3   294  VAL294     -0.1231
    213  CA        55.1790    4.2990   62.6310 C.3   294  VAL294      0.1692
    214  C         55.7290    5.3480   63.6130 C.2   294  VAL294      0.2593
    215  O         56.1930    5.0310   64.6940 O.2   294  VAL294     -0.2718
    216  CB        53.7070    3.9280   62.9430 C.3   294  VAL294      0.0266
    217  CG1       53.5880    3.3910   64.3660 C.3   294  VAL294      0.0020
    218  CG2       52.7820    5.0860   62.6740 C.3   294  VAL294      0.0020
    219  N         55.6480    6.6170   63.2330 N.am  295  GLY295     -0.1942
    220  CA        56.0020    7.7090   64.0930 C.3   295  GLY295      0.2014
    221  C         54.7640    8.4730   64.5350 C.2   295  GLY295      0.2638
    222  O         53.6730    8.2140   64.0420 O.2   295  GLY295     -0.2714
    223  N         54.9450    9.4160   65.4490 N.am  296  ASP296     -0.1971
    224  CA        53.8530   10.2110   65.9890 C.3   296  ASP296      0.1709
    225  C         53.7720   11.6390   65.4560 C.2   296  ASP296      0.2293
    226  O         52.7080   12.2460   65.4840 O.2   296  ASP296     -0.2864
    227  CB        53.8880   10.2070   67.5240 C.3   296  ASP296      0.1436
    228  CG        55.2230   10.7070   68.1240 C.2   296  ASP296      0.3671
    229  OD1       56.2180   10.9310   67.3900 O.co2 296  ASP296     -0.2456
    230  OD2       55.2360   10.9550   69.3500 O.co2 296  ASP296     -0.2456
    231  N         44.5920   -1.7430   62.1880 N.3   439  MET439     -0.1245
    232  CA        45.1020   -2.6010   63.2570 C.3   439  MET439      0.1570
    233  C         44.0600   -3.5810   63.7670 C.2   439  MET439      0.2261
    234  O         44.3800   -4.7450   64.0180 O.2   439  MET439     -0.2867
    235  CB        45.6830   -1.7410   64.3640 C.3   439  MET439      0.0387
    236  CG        46.9500   -1.0310   63.8980 C.3   439  MET439      0.0595
    237  SD        47.9040   -0.1670   65.1500 S.3   439  MET439     -0.1393
    238  CE        46.6910    1.0150   65.7580 C.3   439  MET439      0.0692
@<TRIPOS>BOND
     1   231   232    1
     2   212   213    1
     3   213   216    1
     4   213   214    1
     5   218   216    1
     6   216   217    1
     7   219   214   am
     8   219   220    1
     9   232   233    1
    10   232   235    1
    11   214   215    2
    12   233   234    2
    13   236   235    1
    14   236   237    1
    15   222   221    2
    16   220   221    1
    17    35    33    1
    18   221   223   am
    19   237   238    1
    20    84    83    1
    21   223   224    1
    22   225   226    2
    23   225   224    1
    24    33    34    1
    25    33    30    1
    26    68    67    2
    27   224   227    1
    28    32    31    2
    29    16    15    1
    30    16    17    1
    31    16    19    1
    32    20    19    1
    33    20    22    1
    34    21    19    1
    35    83    85    1
    36    83    82    1
    37    29    30    1
    38    29    25   am
    39    67    69   am
    40    67    66    1
    41    30    31    1
    42    17    18    2
    43    79    82    1
    44    79    78    1
    45    79    80    1
    46    81    80    2
    47    31    36   am
    48    24    23    1
    49    24    25    1
    50    24    27    1
    51   229   228   ar
    52   227   228    1
    53    39    38    2
    54    25    26    2
    55    38    37    1
    56    80    86   am
    57    66    63    1
    58   136   135    1
    59   228   230   ar
    60    27    28    1
    61    36    37    1
    62   137   135    1
    63    65    64    2
    64    37    40    1
    65    63    64    1
    66    63    62    1
    67   135   134    1
    68    86    87    1
    69    64    70   am
    70    88    87    1
    71    88    89    2
    72    87    90    1
    73   134   131    1
    74    42    41   ar
    75    40    41    1
    76    70    71    1
    77    71    72    1
    78    71    74    1
    79    41    43   ar
    80    73    72    2
    81   131   130    1
    82   131   132    1
    83   196   199    1
    84   196   195    1
    85   196   197    1
    86    44    45    1
    87   161   162   ar
    88   161   159   ar
    89    45    46    1
    90    45    48    1
    91    47    46    2
    92   197   198    2
    93   162   160   ar
    94   133   132    2
    95    74    75    1
    96    49    48    1
    97   201   200    1
    98   201   202    1
    99   201   204    1
   100   132   138   am
   101   202   203    2
   102   206   208   ar
   103   206   205   ar
   104   208   210   ar
   105    46    51   am
   106   159   157   ar
   107    48    50    1
   108   160   158   ar
   109   204   205    1
   110   138   139    1
   111    54    53    2
   112   205   207   ar
   113    53    52    1
   114    75    76    1
   115    75    77    1
   116   210   211    1
   117   210   209   ar
   118    51    52    1
   119   157   158   ar
   120   157   156    1
   121   139   140    1
   122   139   142    1
   123    52    55    1
   124   150   148   ar
   125   150   151   ar
   126   148   145   ar
   127   207   209   ar
   128   140   141    2
   129   156   153    1
   130   142   143    1
   131   155   154    2
   132   151   149   ar
   133   182   180   ar
   134   182   183   ar
   135   153   154    1
   136   153   152    1
   137   145   143   ar
   138   145   147   ar
   139    55    56    1
   140   185   183   ar
   141   185   187   ar
   142   143   144   ar
   143   154   163   am
   144   180   179   ar
   145   183   181   ar
   146   149   147   ar
   147   147   146   ar
   148   171   173   ar
   149   171   169   ar
   150    57    56   ar
   151    57    59   ar
   152    56    58   ar
   153   173   172   ar
   154   187   186   ar
   155   144   146   ar
   156   179   181   ar
   157   179   178    1
   158   181   184   ar
   159   169   168   ar
   160   163   164    1
   161    59    61   ar
   162   172   170   ar
   163    58    60   ar
   164   186   184   ar
   165   164   165    1
   166   164   167    1
   167    97    96    1
   168   168   170   ar
   169   168   167    1
   170   178   175    1
   171    98    96    1
   172    61    60   ar
   173   174   165   am
   174   174   175    1
   175   165   166    2
   176    96    95    1
   177   175   176    1
   178   177   176    2
   179    95    92    1
   180   191   190    2
   181   193   192    1
   182   194   192    1
   183   189   190    1
   184   189   192    1
   185   189   188    1
   186   108   107    1
   187    92    91    1
   188    92    93    1
   189   109   107    1
   190   107   106    2
   191    93    94    2
   192    93    99   am
   193   116   117    1
   194   116   115    1
   195     7     6    1
   196   117   118    1
   197     8     6    1
   198     6     5    1
   199    99   100    1
   200   114   115    1
   201   114   111    1
   202   113   112    2
   203   106   105    1
   204   104   105    1
   205   104   103    1
   206     1     2    1
   207   111   112    1
   208   111   110    1
   209     5     2    1
   210   112   119   am
   211   100   103    1
   212   100   101    1
   213     2     3    1
   214    14    13    1
   215   127   125   ar
   216   127   129   ar
   217   125   124   ar
   218   129   128   ar
   219   119   120    1
   220   101   102    2
   221   120   121    1
   222   120   123    1
   223   122   121    2
   224    13    10    1
   225     3     4    2
   226   124   123    1
   227   124   126   ar
   228   128   126   ar
   229    10     9    1
   230    10    11    1
   231    11    12    2
