@<TRIPOS>MOLECULE
tmp/4zg7A02.pdb
 199 200 0 0 0
SMALL
GASTEIGER

@<TRIPOS>ATOM
      1  N         -6.3990    2.8140  -51.1500 N.3    25  LEU25      -0.1245
      2  CA        -7.5620    2.9890  -50.3110 C.3    25  LEU25       0.1561
      3  C         -8.7870    3.4780  -51.0830 C.2    25  LEU25       0.2260
      4  O         -9.8540    3.6650  -50.4960 O.2    25  LEU25      -0.2867
      5  CB        -7.2090    3.9680  -49.1810 C.3    25  LEU25       0.0270
      6  CG        -8.1880    4.0820  -48.0080 C.3    25  LEU25       0.0019
      7  CD1       -8.3080    2.7520  -47.2970 C.3    25  LEU25       0.0001
      8  CD2       -7.7170    5.1800  -47.0510 C.3    25  LEU25       0.0001
      9  N        -12.3520    1.9190  -50.5400 N.3    28  SER28      -0.1202
     10  CA       -13.0320    2.1710  -49.2690 C.3    28  SER28       0.2020
     11  C        -13.8110    3.4790  -49.2340 C.2    28  SER28       0.2618
     12  O        -14.5460    3.7350  -48.2680 O.2    28  SER28      -0.2717
     13  CB       -12.0430    2.1340  -48.1010 C.3    28  SER28       0.2103
     14  OG       -11.2750    0.9430  -48.0970 O.3    28  SER28      -0.2182
     15  N        -13.6240    4.3190  -50.2480 N.am   29  TYR29      -0.1975
     16  CA       -14.3710    5.5630  -50.4270 C.3    29  TYR29       0.1639
     17  C        -15.1470    5.5380  -51.7520 C.2    29  TYR29       0.2290
     18  O        -15.5430    6.5870  -52.2530 O.2    29  TYR29      -0.2864
     19  CB       -13.3970    6.7280  -50.3900 C.3    29  TYR29       0.0560
     20  CG       -12.8510    6.9320  -49.0100 C.ar   29  TYR29      -0.0198
     21  CD1      -11.7040    6.2750  -48.5860 C.ar   29  TYR29      -0.0009
     22  CD2      -13.5240    7.7400  -48.1060 C.ar   29  TYR29      -0.0009
     23  CE1      -11.2210    6.4380  -47.3120 C.ar   29  TYR29       0.0417
     24  CE2      -13.0540    7.9170  -46.8260 C.ar   29  TYR29       0.0417
     25  CZ       -11.9090    7.2510  -46.4270 C.ar   29  TYR29       0.1957
     26  OH       -11.4400    7.4140  -45.1530 O.3    29  TYR29      -0.2866
     27  N         -9.9070   -3.0960  -33.0940 N.3   157  PHE157     -0.1241
     28  CA        -9.6500   -1.6790  -33.2780 C.3   157  PHE157      0.1605
     29  C         -8.8580   -1.0610  -32.1350 C.2   157  PHE157      0.2264
     30  O         -7.9190   -0.2690  -32.3870 O.2   157  PHE157     -0.2867
     31  CB       -10.9560   -0.9040  -33.5380 C.3   157  PHE157      0.0534
     32  CG       -11.4340   -0.9980  -34.9680 C.ar  157  PHE157     -0.0203
     33  CD1      -10.5590   -0.8210  -36.0240 C.ar  157  PHE157     -0.0042
     34  CD2      -12.7570   -1.2560  -35.2530 C.ar  157  PHE157     -0.0042
     35  CE1      -10.9880   -0.9060  -37.3370 C.ar  157  PHE157     -0.0003
     36  CE2      -13.1890   -1.3420  -36.5720 C.ar  157  PHE157     -0.0003
     37  CZ       -12.2950   -1.1720  -37.6090 C.ar  157  PHE157     -0.0000
     38  N         -5.0530   -2.4500  -32.7380 N.3   160  LEU160     -0.1231
     39  CA        -4.3310   -1.8840  -33.8700 C.3   160  LEU160      0.1693
     40  C         -3.9830   -0.4160  -33.6440 C.2   160  LEU160      0.2592
     41  O         -2.8750    0.0270  -33.9870 O.2   160  LEU160     -0.2718
     42  CB        -5.0860   -2.0620  -35.1770 C.3   160  LEU160      0.0284
     43  CG        -5.3220   -3.5170  -35.6530 C.3   160  LEU160      0.0019
     44  CD1       -6.1270   -3.5260  -36.9530 C.3   160  LEU160      0.0001
     45  CD2       -4.0260   -4.2750  -35.7930 C.3   160  LEU160      0.0001
     46  N         -4.9060    0.3300  -33.0630 N.am  161  TYR161     -0.1976
     47  CA        -4.6370    1.7490  -32.8440 C.3   161  TYR161      0.1639
     48  C         -3.6660    1.9860  -31.6660 C.2   161  TYR161      0.2290
     49  O         -2.8820    2.9580  -31.6810 O.2   161  TYR161     -0.2864
     50  CB        -5.9380    2.5720  -32.7670 C.3   161  TYR161      0.0560
     51  CG        -5.7180    4.0170  -33.1770 C.ar  161  TYR161     -0.0198
     52  CD1       -5.0930    4.3350  -34.3860 C.ar  161  TYR161     -0.0009
     53  CD2       -6.1020    5.0500  -32.3500 C.ar  161  TYR161     -0.0009
     54  CE1       -4.8550    5.6550  -34.7470 C.ar  161  TYR161      0.0417
     55  CE2       -5.8650    6.3560  -32.6950 C.ar  161  TYR161      0.0417
     56  CZ        -5.2470    6.6530  -33.8950 C.ar  161  TYR161      0.1957
     57  OH        -5.0090    7.9720  -34.2200 O.3   161  TYR161     -0.2866
     58  N         -0.3940    1.5640  -33.2260 N.3   164  ALA164     -0.1245
     59  CA        -0.1270    2.7490  -34.0320 C.3   164  ALA164      0.1562
     60  C          0.3110    3.9620  -33.2320 C.2   164  ALA164      0.2260
     61  O          0.9760    4.8350  -33.7830 O.2   164  ALA164     -0.2867
     62  CB        -1.3570    3.1270  -34.8460 C.3   164  ALA164      0.0290
     63  N        -18.9310   -2.2170  -38.6910 N.3   191  ARG191     -0.1245
     64  CA       -19.5040   -2.1130  -40.0160 C.3   191  ARG191      0.1563
     65  C        -20.1020   -0.7220  -40.1420 C.2   191  ARG191      0.2260
     66  O        -20.7950   -0.2680  -39.2450 O.2   191  ARG191     -0.2867
     67  CB       -20.5830   -3.1900  -40.2190 C.3   191  ARG191      0.0307
     68  CG       -20.1400   -4.6250  -39.9280 C.3   191  ARG191      0.0489
     69  CD       -19.6440   -5.3410  -41.1770 C.3   191  ARG191      0.2205
     70  NE       -18.3960   -4.7780  -41.6860 N.pl3 191  ARG191     -0.0865
     71  CZ       -17.2020   -5.0100  -41.1640 C.cat 191  ARG191      0.5346
     72  NH1      -17.0800   -5.8040  -40.1110 N.pl3 191  ARG191      0.1354
     73  NH2      -16.1200   -4.4740  -41.7070 N.pl3 191  ARG191      0.1354
     74  N        -16.9570    5.0580  -38.6030 N.3   195  LYS195     -0.1231
     75  CA       -15.5500    4.8160  -38.2020 C.3   195  LYS195      0.1693
     76  C        -14.4940    5.4780  -39.0880 C.2   195  LYS195      0.2592
     77  O        -13.3630    5.6760  -38.6470 O.2   195  LYS195     -0.2718
     78  CB       -15.2710    3.3170  -38.1670 C.3   195  LYS195      0.0285
     79  CG       -15.2850    2.6300  -39.5330 C.3   195  LYS195      0.0035
     80  CD       -14.8090    1.1950  -39.3770 C.3   195  LYS195      0.0206
     81  CE       -14.7320    0.4300  -40.6910 C.3   195  LYS195      0.1093
     82  NZ       -16.0630    0.0550  -41.2070 N.3   195  LYS195     -0.1314
     83  N        -14.8270    5.7920  -40.3370 N.am  196  PHE196     -0.1976
     84  CA       -13.8720    6.4510  -41.2370 C.3   196  PHE196      0.1639
     85  C        -13.6930    7.9330  -40.9310 C.2   196  PHE196      0.2290
     86  O        -12.7370    8.5380  -41.4170 O.2   196  PHE196     -0.2864
     87  CB       -14.2530    6.2770  -42.7200 C.3   196  PHE196      0.0560
     88  CG       -14.0700    4.8770  -43.2300 C.ar  196  PHE196     -0.0200
     89  CD1      -12.8220    4.4460  -43.6460 C.ar  196  PHE196     -0.0042
     90  CD2      -15.1330    3.9890  -43.2780 C.ar  196  PHE196     -0.0042
     91  CE1      -12.6270    3.1460  -44.1080 C.ar  196  PHE196     -0.0003
     92  CE2      -14.9530    2.6960  -43.7420 C.ar  196  PHE196     -0.0003
     93  CZ       -13.6920    2.2730  -44.1510 C.ar  196  PHE196     -0.0000
     94  N        -12.2780   10.7590  -39.1070 N.3   198  HIS198     -0.1241
     95  CA       -11.0340   10.8310  -38.3460 C.3   198  HIS198      0.1621
     96  C        -11.2130   11.4570  -36.9550 C.2   198  HIS198      0.2264
     97  O        -10.3440   11.3240  -36.0910 O.2   198  HIS198     -0.2867
     98  CB        -9.9800   11.5440  -39.1810 C.3   198  HIS198      0.0745
     99  CG        -9.4360   10.6950  -40.2930 C.ar  198  HIS198      0.0817
    100  ND1       -8.3800   11.0880  -41.0820 N.ar  198  HIS198     -0.2268
    101  CD2       -9.8180    9.4790  -40.7570 C.ar  198  HIS198      0.1154
    102  CE1       -8.1260   10.1500  -41.9760 C.ar  198  HIS198      0.1986
    103  NE2       -8.9810    9.1590  -41.7950 N.ar  198  HIS198     -0.2212
    104  N        -10.2620    9.3020  -33.8830 N.3   201  TRP201     -0.1241
    105  CA        -8.9390    8.6980  -33.7620 C.3   201  TRP201      0.1605
    106  C         -7.9440    9.7130  -33.2170 C.2   201  TRP201      0.2264
    107  O         -7.4450   10.5920  -33.9490 O.2   201  TRP201     -0.2867
    108  CB        -8.5170    8.1890  -35.1420 C.3   201  TRP201      0.0550
    109  CG        -9.5090    7.2170  -35.7550 C.ar  201  TRP201      0.0003
    110  CD1      -10.6280    7.5280  -36.4690 C.ar  201  TRP201      0.0946
    111  CD2       -9.4190    5.7930  -35.7560 C.ar  201  TRP201      0.0152
    112  NE1      -11.2710    6.3810  -36.8930 N.ar  201  TRP201     -0.2442
    113  CE2      -10.5490    5.2970  -36.4750 C.ar  201  TRP201      0.0810
    114  CE3       -8.5070    4.8810  -35.2220 C.ar  201  TRP201      0.0012
    115  CZ2      -10.7690    3.9560  -36.6740 C.ar  201  TRP201      0.0191
    116  CZ3       -8.7500    3.5210  -35.3960 C.ar  201  TRP201      0.0001
    117  CH2       -9.8800    3.0750  -36.1260 C.ar  201  TRP201      0.0015
    118  N         -4.6010   10.8460  -30.3390 N.3   203  GLY203     -0.1225
    119  CA        -3.1600   10.6630  -30.2880 C.3   203  GLY203      0.1811
    120  C         -2.4930   11.0320  -31.5800 C.2   203  GLY203      0.2280
    121  O         -3.0420   11.7950  -32.3800 O.2   203  GLY203     -0.2866
    122  N         -0.6480    8.8410  -34.5190 N.3   205  PRO205     -0.2116
    123  CA        -0.2270    7.5380  -35.0040 C.3   205  PRO205      0.1372
    124  C          1.0530    7.6040  -35.8290 C.2   205  PRO205      0.2244
    125  O          1.4020    8.6490  -36.3670 O.2   205  PRO205     -0.2868
    126  CB        -1.3930    7.0940  -35.8510 C.3   205  PRO205      0.0268
    127  CG        -1.9920    8.3870  -36.3490 C.3   205  PRO205      0.0207
    128  CD        -1.8850    9.3050  -35.1810 C.3   205  PRO205      0.0892
    129  N          2.1860    6.8700  -38.8110 N.3   207  TRP207     -0.1227
    130  CA         2.2070    7.4540  -40.1280 C.3   207  TRP207      0.1737
    131  C          2.2110    8.9740  -40.0720 C.2   207  TRP207      0.2595
    132  O          2.8580    9.6060  -40.9000 O.2   207  TRP207     -0.2718
    133  CB         1.0900    6.9110  -41.0460 C.3   207  TRP207      0.0564
    134  CG        -0.3040    7.0080  -40.4870 C.ar  207  TRP207      0.0003
    135  CD1       -1.1820    8.0350  -40.6570 C.ar  207  TRP207      0.0946
    136  CD2       -0.9770    6.0420  -39.6740 C.ar  207  TRP207      0.0152
    137  NE1       -2.3530    7.7770  -40.0020 N.ar  207  TRP207     -0.2442
    138  CE2       -2.2590    6.5570  -39.3880 C.ar  207  TRP207      0.0810
    139  CE3       -0.6220    4.7940  -39.1560 C.ar  207  TRP207      0.0012
    140  CZ2       -3.1870    5.8710  -38.6150 C.ar  207  TRP207      0.0191
    141  CZ3       -1.5320    4.1130  -38.3860 C.ar  207  TRP207      0.0001
    142  CH2       -2.8150    4.6550  -38.1150 C.ar  207  TRP207      0.0015
    143  N          1.5320    9.5600  -39.0890 N.am  208  ILE208     -0.1980
    144  CA         1.5330   11.0080  -38.8950 C.3   208  ILE208      0.1595
    145  C          2.8650   11.4740  -38.2940 C.2   208  ILE208      0.2287
    146  O          3.4340   12.4950  -38.7130 O.2   208  ILE208     -0.2864
    147  CB         0.3600   11.4530  -38.0070 C.3   208  ILE208      0.0276
    148  CG1       -0.9630   11.1270  -38.6910 C.3   208  ILE208      0.0022
    149  CG2        0.4540   12.9350  -37.6700 C.3   208  ILE208      0.0022
    150  CD1       -1.1620   11.7050  -40.0830 C.3   208  ILE208      0.0001
    151  N         -0.8080    4.7170  -46.3740 N.3   220  PHE220     -0.1227
    152  CA        -0.4830    3.7270  -45.3660 C.3   220  PHE220      0.1736
    153  C         -1.4650    2.5660  -45.3060 C.2   220  PHE220      0.2595
    154  O         -1.0810    1.4680  -44.9440 O.2   220  PHE220     -0.2718
    155  CB        -0.4250    4.3930  -43.9880 C.3   220  PHE220      0.0547
    156  CG         0.3210    3.5960  -42.9640 C.ar  220  PHE220     -0.0202
    157  CD1        1.7160    3.5900  -42.9660 C.ar  220  PHE220     -0.0042
    158  CD2       -0.3500    2.8420  -42.0080 C.ar  220  PHE220     -0.0042
    159  CE1        2.4220    2.8810  -41.9980 C.ar  220  PHE220     -0.0003
    160  CE2        0.3590    2.1100  -41.0550 C.ar  220  PHE220     -0.0003
    161  CZ         1.7430    2.1340  -41.0520 C.ar  220  PHE220     -0.0000
    162  N         -2.7380    2.8420  -45.6090 N.am  221  PHE221     -0.1962
    163  CA        -3.8130    1.8480  -45.4910 C.3   221  PHE221      0.1771
    164  C         -4.3250    1.2710  -46.8040 C.2   221  PHE221      0.2620
    165  O         -4.6700    2.0060  -47.7350 O.2   221  PHE221     -0.2715
    166  CB        -5.0250    2.4410  -44.7340 C.3   221  PHE221      0.0574
    167  CG        -4.7750    2.6420  -43.2650 C.ar  221  PHE221     -0.0200
    168  CD1       -5.0080    1.6220  -42.3680 C.ar  221  PHE221     -0.0042
    169  CD2       -4.2710    3.8480  -42.7920 C.ar  221  PHE221     -0.0042
    170  CE1       -4.7450    1.7880  -41.0210 C.ar  221  PHE221     -0.0003
    171  CE2       -4.0060    4.0180  -41.4500 C.ar  221  PHE221     -0.0003
    172  CZ        -4.2380    2.9790  -40.5650 C.ar  221  PHE221     -0.0000
    173  N         -4.4660   -0.0580  -46.8340 N.am  222  TRP222     -0.1960
    174  CA        -5.0760   -0.7760  -47.9620 C.3   222  TRP222      0.1771
    175  C         -6.5560   -0.9730  -47.7430 C.2   222  TRP222      0.2620
    176  O         -6.9870   -1.3090  -46.6360 O.2   222  TRP222     -0.2715
    177  CB        -4.4330   -2.1800  -48.1490 C.3   222  TRP222      0.0590
    178  CG        -3.0960   -2.0960  -48.7750 C.ar  222  TRP222      0.0006
    179  CD1       -1.9060   -1.8840  -48.1370 C.ar  222  TRP222      0.0946
    180  CD2       -2.8000   -2.2050  -50.1550 C.ar  222  TRP222      0.0152
    181  NE1       -0.8860   -1.8250  -49.0550 N.ar  222  TRP222     -0.2442
    182  CE2       -1.4170   -2.0210  -50.3040 C.ar  222  TRP222      0.0810
    183  CE3       -3.5710   -2.4340  -51.2920 C.ar  222  TRP222      0.0012
    184  CZ2       -0.8070   -2.0620  -51.5290 C.ar  222  TRP222      0.0191
    185  CZ3       -2.9630   -2.4710  -52.4960 C.ar  222  TRP222      0.0001
    186  CH2       -1.6010   -2.2750  -52.6170 C.ar  222  TRP222      0.0015
    187  N         -7.3320   -0.8130  -48.8070 N.am  223  SER223     -0.1936
    188  CA        -8.6950   -1.3340  -48.8200 C.3   223  SER223      0.2055
    189  C         -8.6430   -2.8530  -48.6360 C.2   223  SER223      0.2642
    190  O         -7.9370   -3.5500  -49.3680 O.2   223  SER223     -0.2714
    191  CB        -9.3880   -0.9750  -50.1470 C.3   223  SER223      0.2130
    192  OG        -9.5390    0.4370  -50.2580 O.3   223  SER223     -0.2179
    193  N         -9.3840   -3.3740  -47.6580 N.am  224  VAL224     -0.1977
    194  CA        -9.2790   -4.7960  -47.3160 C.3   224  VAL224      0.1596
    195  C         -9.8150   -5.7460  -48.4030 C.2   224  VAL224      0.2287
    196  O         -9.4590   -6.9240  -48.4290 O.2   224  VAL224     -0.2864
    197  CB        -9.9140   -5.1110  -45.9550 C.3   224  VAL224      0.0276
    198  CG1       -9.2040   -4.3190  -44.8660 C.3   224  VAL224      0.0022
    199  CG2      -11.4010   -4.8330  -45.9570 C.3   224  VAL224      0.0022
@<TRIPOS>BOND
     1   186   185   ar
     2   186   184   ar
     3   185   183   ar
     4    18    17    2
     5    17    16    1
     6   184   182   ar
     7   183   180   ar
     8     1     2    1
     9     3     4    2
    10     3     2    1
    11     9    10    1
    12    16    19    1
    13    16    15    1
    14    19    20    1
    15     2     5    1
    16   182   180   ar
    17   182   181   ar
    18   192   191    1
    19    15    11   am
    20   180   178   ar
    21   191   188    1
    22   190   189    2
    23    10    11    1
    24    10    13    1
    25    11    12    2
    26     5     6    1
    27   181   179   ar
    28    20    21   ar
    29    20    22   ar
    30   188   187    1
    31   188   189    1
    32   187   175   am
    33   178   177    1
    34   178   179   ar
    35   189   193   am
    36    21    23   ar
    37   196   195    2
    38   195   194    1
    39   177   174    1
    40    22    24   ar
    41    13    14    1
    42     6     7    1
    43     6     8    1
    44   174   175    1
    45   174   173    1
    46   175   176    2
    47   165   164    2
    48   193   194    1
    49   194   197    1
    50    23    25   ar
    51   173   164   am
    52    24    25   ar
    53   164   163    1
    54    25    26    1
    55   151   152    1
    56   199   197    1
    57   197   198    1
    58   162   163    1
    59   162   153   am
    60   163   166    1
    61   152   153    1
    62   152   155    1
    63   153   154    2
    64   166   167    1
    65    93    91   ar
    66    93    92   ar
    67    91    89   ar
    68   155   156    1
    69    92    90   ar
    70    89    88   ar
    71    90    88   ar
    72   167   169   ar
    73   167   168   ar
    74    88    87    1
    75   157   156   ar
    76   157   159   ar
    77   156   158   ar
    78   169   171   ar
    79    87    84    1
    80   168   170   ar
    81   158   160   ar
    82   159   161   ar
    83   102   103   ar
    84   102   100   ar
    85   103   101   ar
    86    73    71    1
    87    70    69    1
    88    70    71    2
    89   171   172   ar
    90    86    85    2
    91    84    85    1
    92    84    83    1
    93    82    81    1
    94    69    68    1
    95    71    72    1
    96   100    99   ar
    97   160   161   ar
    98   133   134    1
    99   133   130    1
   100   170   172   ar
   101   132   131    2
   102   101    99   ar
   103    81    80    1
   104   135   134   ar
   105   135   137   ar
   106   134   136   ar
   107    83    76   am
   108    99    98    1
   109    67    64    1
   110    67    68    1
   111    65    64    1
   112    65    66    2
   113   130   131    1
   114   130   129    1
   115   150   148    1
   116   131   143   am
   117    64    63    1
   118   137   138   ar
   119   136   138   ar
   120   136   139   ar
   121    79    80    1
   122    79    78    1
   123   138   140   ar
   124    98    95    1
   125   139   141   ar
   126    94    95    1
   127   143   144    1
   128    76    77    2
   129    76    75    1
   130   144   145    1
   131   144   147    1
   132   146   145    2
   133   148   147    1
   134   140   142   ar
   135    74    75    1
   136   141   142   ar
   137    95    96    1
   138    75    78    1
   139   147   149    1
   140    37    35   ar
   141    37    36   ar
   142    35    33   ar
   143    96    97    2
   144    44    43    1
   145   112   113   ar
   146   112   110   ar
   147   115   113   ar
   148   115   117   ar
   149    36    34   ar
   150   113   111   ar
   151   110   109   ar
   152   125   124    2
   153   127   126    1
   154   127   128    1
   155   117   116   ar
   156    33    32   ar
   157   126   123    1
   158   124   123    1
   159    45    43    1
   160   111   109   ar
   161   111   114   ar
   162   109   108    1
   163    43    42    1
   164   116   114   ar
   165    34    32   ar
   166   128   122    1
   167    42    39    1
   168   108   105    1
   169   123   122    1
   170    32    31    1
   171    62    59    1
   172    54    52   ar
   173    54    56   ar
   174    52    51   ar
   175    57    56    1
   176    59    60    1
   177    59    58    1
   178    41    40    2
   179   107   106    2
   180    56    55   ar
   181   104   105    1
   182    39    40    1
   183    39    38    1
   184    61    60    2
   185   105   106    1
   186    40    46   am
   187    31    28    1
   188    28    27    1
   189    28    29    1
   190    51    50    1
   191    51    53   ar
   192    46    47    1
   193    47    50    1
   194    47    48    1
   195    55    53   ar
   196    30    29    2
   197   121   120    2
   198    49    48    2
   199   120   119    1
   200   118   119    1
