@<TRIPOS>MOLECULE
tmp/4zg8A00.pdb
 103 101 0 0 0
SMALL
GASTEIGER

@<TRIPOS>ATOM
      1  N         23.1330   11.1090    9.6830 N.3    57  ASP57      -0.1239
      2  CA        23.2690   12.5800    9.7350 C.3    57  ASP57       0.1674
      3  C         24.5520   12.9270   10.4680 C.2    57  ASP57       0.2266
      4  O         25.3500   12.0490   10.8110 O.2    57  ASP57      -0.2867
      5  CB        22.0270   13.1230   10.4500 C.3    57  ASP57       0.1410
      6  CG        21.8470   12.6470   11.8490 C.2    57  ASP57       0.3668
      7  OD1       22.5550   11.7110   12.2830 O.co2  57  ASP57      -0.2456
      8  OD2       20.9840   13.2200   12.5690 O.co2  57  ASP57      -0.2456
      9  N         17.6480   20.3070   11.9120 N.3   119  HIS119     -0.1241
     10  CA        17.0210   20.7080   10.6600 C.3   119  HIS119      0.1621
     11  C         18.0110   21.1420    9.6180 C.2   119  HIS119      0.2264
     12  O         17.9110   20.7170    8.4470 O.2   119  HIS119     -0.2867
     13  CB        15.9260   21.7430   10.9030 C.3   119  HIS119      0.0745
     14  CG        14.8870   21.2330   11.8260 C.ar  119  HIS119      0.0817
     15  ND1       13.9810   20.2380   11.4680 N.ar  119  HIS119     -0.2268
     16  CD2       14.6610   21.5060   13.1330 C.ar  119  HIS119      0.1154
     17  CE1       13.2010   19.9870   12.5070 C.ar  119  HIS119      0.1986
     18  NE2       13.5860   20.7520   13.5210 N.ar  119  HIS119     -0.2212
     19  N         20.0050   18.1160    8.4540 N.3   122  HIS122     -0.1241
     20  CA        19.2930   17.1940    7.6000 C.3   122  HIS122      0.1621
     21  C         18.9260   17.7470    6.2360 C.2   122  HIS122      0.2264
     22  O         18.6710   16.9890    5.3240 O.2   122  HIS122     -0.2867
     23  CB        18.0440   16.6910    8.3010 C.3   122  HIS122      0.0745
     24  CG        18.2930   15.8720    9.5180 C.ar  122  HIS122      0.0817
     25  ND1       19.5080   15.4800   10.0140 N.ar  122  HIS122     -0.2268
     26  CD2       17.3800   15.4150   10.3840 C.ar  122  HIS122      0.1154
     27  CE1       19.3010   14.7440   11.1210 C.ar  122  HIS122      0.1986
     28  NE2       18.0200   14.7060   11.3470 N.ar  122  HIS122     -0.2212
     29  N         12.4370   17.7010   18.4470 N.3   202  ASP202     -0.1225
     30  CA        11.9950   17.2670   17.1560 C.3   202  ASP202      0.1805
     31  C         12.5790   15.9240   16.7580 C.2   202  ASP202      0.2597
     32  O         12.2120   15.3930   15.7120 O.2   202  ASP202     -0.2718
     33  CB        12.4210   18.3360   16.0890 C.3   202  ASP202      0.1424
     34  CG        11.8260   19.7760   16.3440 C.2   202  ASP202      0.3668
     35  OD1       10.8650   19.9130   17.0830 O.co2 202  ASP202     -0.2456
     36  OD2       12.3900   20.7940   15.8020 O.co2 202  ASP202     -0.2456
     37  N         13.5330   15.4180   17.5450 N.am  203  PHE203     -0.1976
     38  CA        14.3700   14.2730   17.1580 C.3   203  PHE203      0.1639
     39  C         14.5220   13.1920   18.2410 C.2   203  PHE203      0.2290
     40  O         14.3910   11.9800   17.9530 O.2   203  PHE203     -0.2864
     41  CB        15.7550   14.7680   16.7390 C.3   203  PHE203      0.0560
     42  CG        15.7170   15.7760   15.5990 C.ar  203  PHE203     -0.0200
     43  CD1       15.4270   15.3950   14.3120 C.ar  203  PHE203     -0.0042
     44  CD2       15.8930   17.1080   15.8490 C.ar  203  PHE203     -0.0042
     45  CE1       15.3540   16.3090   13.2840 C.ar  203  PHE203     -0.0003
     46  CE2       15.8530   18.0230   14.8280 C.ar  203  PHE203     -0.0003
     47  CZ        15.5820   17.6350   13.5650 C.ar  203  PHE203     -0.0000
     48  N          9.1840    1.9520   14.6180 N.3   296  TRP296     -0.1241
     49  CA        10.5150    2.5260   14.4460 C.3   296  TRP296      0.1605
     50  C         11.5860    1.7550   15.1420 C.2   296  TRP296      0.2264
     51  O         11.5130    1.5570   16.3460 O.2   296  TRP296     -0.2867
     52  CB        10.5260    3.9430   15.0020 C.3   296  TRP296      0.0550
     53  CG         9.7620    4.8650   14.2080 C.ar  296  TRP296      0.0003
     54  CD1        8.5300    5.2620   14.4660 C.ar  296  TRP296      0.0946
     55  CD2       10.1870    5.5280   13.0020 C.ar  296  TRP296      0.0152
     56  NE1        8.1370    6.1430   13.5280 N.ar  296  TRP296     -0.2442
     57  CE2        9.1380    6.3330   12.5990 C.ar  296  TRP296      0.0810
     58  CE3       11.3800    5.5180   12.2400 C.ar  296  TRP296      0.0012
     59  CZ2        9.2290    7.1540   11.4370 C.ar  296  TRP296      0.0191
     60  CZ3       11.4580    6.2720   11.0870 C.ar  296  TRP296      0.0001
     61  CH2       10.3940    7.1050   10.7130 C.ar  296  TRP296      0.0015
     62  N         20.3600    4.2150    5.0980 N.3   354  HIS354     -0.1241
     63  CA        20.2130    5.6710    5.0250 C.3   354  HIS354      0.1621
     64  C         21.3690    6.3170    5.7780 C.2   354  HIS354      0.2264
     65  O         21.3030    6.5310    6.9900 O.2   354  HIS354     -0.2867
     66  CB        18.8620    6.0250    5.6490 C.3   354  HIS354      0.0745
     67  CG        18.5960    7.5030    5.6200 C.ar  354  HIS354      0.0817
     68  ND1       17.9840    8.1120    4.5540 N.ar  354  HIS354     -0.2268
     69  CD2       18.8060    8.4680    6.5350 C.ar  354  HIS354      0.1154
     70  CE1       17.8940    9.4300    4.7700 C.ar  354  HIS354      0.1986
     71  NE2       18.3560    9.6620    5.9840 N.ar  354  HIS354     -0.2212
     72  N         24.5440    9.2610    5.0080 N.3   356  ARG356     -0.1245
     73  CA        25.1140   10.2210    4.0450 C.3   356  ARG356      0.1563
     74  C         26.4910    9.7880    3.5510 C.2   356  ARG356      0.2260
     75  O         26.7180    9.6350    2.3690 O.2   356  ARG356     -0.2867
     76  CB        25.1420   11.6110    4.6620 C.3   356  ARG356      0.0307
     77  CG        23.8060   12.2740    4.6290 C.3   356  ARG356      0.0489
     78  CD        23.7420   13.4970    5.5590 C.3   356  ARG356      0.2205
     79  NE        22.4310   14.1440    5.4760 N.pl3 356  ARG356     -0.0865
     80  CZ        21.3100   13.7080    5.9760 C.cat 356  ARG356      0.5346
     81  NH1       21.2800   12.5970    6.6910 N.pl3 356  ARG356      0.1354
     82  NH2       20.1890   14.3660    5.7710 N.pl3 356  ARG356      0.1354
     83  N         12.7760    5.4260    5.5130 N.3   403  TYR403     -0.1241
     84  CA        13.4120    5.7340    6.7620 C.3   403  TYR403      0.1605
     85  C         13.1150    4.6890    7.8300 C.2   403  TYR403      0.2264
     86  O         13.9580    4.3660    8.6510 O.2   403  TYR403     -0.2867
     87  CB        12.9880    7.1230    7.2240 C.3   403  TYR403      0.0534
     88  CG        13.1120    8.1920    6.1500 C.ar  403  TYR403     -0.0201
     89  CD1       14.2980    8.4190    5.4670 C.ar  403  TYR403     -0.0009
     90  CD2       12.0320    8.9630    5.8190 C.ar  403  TYR403     -0.0009
     91  CE1       14.3870    9.3780    4.4780 C.ar  403  TYR403      0.0417
     92  CE2       12.1050    9.9320    4.8360 C.ar  403  TYR403      0.0417
     93  CZ        13.2740   10.1210    4.1570 C.ar  403  TYR403      0.1957
     94  OH        13.3070   11.0750    3.1850 O.3   403  TYR403     -0.2866
     95  N         16.9240    3.1790    8.3280 N.3   407  GLU407     -0.1245
     96  CA        17.6480    3.9630    9.3320 C.3   407  GLU407      0.1567
     97  C         18.7410    3.1160    9.9930 C.2   407  GLU407      0.2260
     98  O         18.5250    1.9210   10.2400 O.2   407  GLU407     -0.2867
     99  CB        16.6530    4.4450   10.3770 C.3   407  GLU407      0.0388
    100  CG        17.2460    5.1290   11.5870 C.3   407  GLU407      0.1160
    101  CD        17.7300    6.5430   11.4190 C.2   407  GLU407      0.3649
    102  OE1       17.7840    7.0870   10.2660 O.co2 407  GLU407     -0.2457
    103  OE2       18.0570    7.1190   12.5030 O.co2 407  GLU407     -0.2457
@<TRIPOS>BOND
     1    75    74    2
     2    94    93    1
     3    74    73    1
     4    73    76    1
     5    73    72    1
     6    93    91   ar
     7    93    92   ar
     8    91    89   ar
     9    68    70   ar
    10    68    67   ar
    11    77    76    1
    12    77    78    1
    13    70    71   ar
    14    92    90   ar
    15    63    62    1
    16    63    66    1
    17    63    64    1
    18    22    21    2
    19    89    88   ar
    20    79    78    1
    21    79    80    2
    22    83    84    1
    23    67    66    1
    24    67    69   ar
    25    82    80    1
    26    64    65    2
    27    90    88   ar
    28    80    81    1
    29    71    69   ar
    30    88    87    1
    31    21    20    1
    32    84    87    1
    33    84    85    1
    34    20    23    1
    35    20    19    1
    36    85    86    2
    37    23    24    1
    38    95    96    1
    39    12    11    2
    40    96    97    1
    41    96    99    1
    42    24    25   ar
    43    24    26   ar
    44    11    10    1
    45     1     2    1
    46     2     5    1
    47     2     3    1
    48    97    98    2
    49    25    27   ar
    50   102   101   ar
    51    99   100    1
    52    26    28   ar
    53     5     6    1
    54     3     4    2
    55    10    13    1
    56    10     9    1
    57    61    60   ar
    58    61    59   ar
    59    13    14    1
    60    60    58   ar
    61    27    28   ar
    62   101   100    1
    63   101   103   ar
    64    59    57   ar
    65    15    14   ar
    66    15    17   ar
    67    14    16   ar
    68     6     7   ar
    69     6     8   ar
    70    58    55   ar
    71    17    18   ar
    72    57    55   ar
    73    57    56   ar
    74    55    53   ar
    75    16    18   ar
    76    45    47   ar
    77    45    43   ar
    78    56    54   ar
    79    47    46   ar
    80    53    54   ar
    81    53    52    1
    82    43    42   ar
    83    49    48    1
    84    49    52    1
    85    49    50    1
    86    46    44   ar
    87    50    51    2
    88    42    44   ar
    89    42    41    1
    90    32    31    2
    91    36    34   ar
    92    33    34    1
    93    33    30    1
    94    34    35   ar
    95    41    38    1
    96    31    30    1
    97    31    37   am
    98    30    29    1
    99    38    37    1
   100    38    39    1
   101    40    39    2
