@<TRIPOS>MOLECULE
tmp/4zg9B03.pdb
 132 132 0 0 0
SMALL
GASTEIGER

@<TRIPOS>ATOM
      1  N         26.2930   57.6930  -81.0960 N.3   171  MET171     -0.1245
      2  CA        26.2670   59.1550  -81.0900 C.3   171  MET171      0.1570
      3  C         26.0800   59.7790  -82.4760 C.2   171  MET171      0.2261
      4  O         26.6820   59.3510  -83.4570 O.2   171  MET171     -0.2867
      5  CB        27.4660   59.7550  -80.3310 C.3   171  MET171      0.0387
      6  CG        28.8110   59.1740  -80.6580 C.3   171  MET171      0.0595
      7  SD        29.9640   59.3890  -79.2910 S.3   171  MET171     -0.1393
      8  CE        31.0620   58.0400  -79.6830 C.3   171  MET171      0.0692
      9  N         26.3660   62.7350  -85.0760 N.3   173  ASP173     -0.1239
     10  CA        27.0390   63.9680  -85.5170 C.3   173  ASP173      0.1674
     11  C         26.1290   64.8080  -86.4320 C.2   173  ASP173      0.2266
     12  O         25.7260   64.3540  -87.5030 O.2   173  ASP173     -0.2867
     13  CB        28.3660   63.6680  -86.2480 C.3   173  ASP173      0.1410
     14  CG        29.1890   64.9350  -86.4850 C.2   173  ASP173      0.3668
     15  OD1       28.6050   65.9020  -86.9990 O.co2 173  ASP173     -0.2456
     16  OD2       30.3980   64.9980  -86.1430 O.co2 173  ASP173     -0.2456
     17  N         24.7610   61.7350  -89.5770 N.3   178  ALA178     -0.1245
     18  CA        25.1180   60.3530  -89.3890 C.3   178  ALA178      0.1562
     19  C         25.2210   59.9920  -87.9490 C.2   178  ALA178      0.2260
     20  O         25.4780   60.8410  -87.1220 O.2   178  ALA178     -0.2867
     21  CB        26.4550   60.1140  -90.0430 C.3   178  ALA178      0.0290
     22  N         27.2970   57.2830  -85.6120 N.3   180  PHE180     -0.1227
     23  CA        28.3310   56.2950  -85.3210 C.3   180  PHE180      0.1736
     24  C         27.9750   55.4170  -84.1130 C.2   180  PHE180      0.2595
     25  O         27.5520   55.9450  -83.0840 O.2   180  PHE180     -0.2718
     26  CB        29.6230   57.0590  -85.0210 C.3   180  PHE180      0.0547
     27  CG        30.7900   56.1780  -84.8110 C.ar  180  PHE180     -0.0202
     28  CD1       31.4760   55.6750  -85.8870 C.ar  180  PHE180     -0.0042
     29  CD2       31.1800   55.8250  -83.5340 C.ar  180  PHE180     -0.0042
     30  CE1       32.5490   54.8390  -85.6940 C.ar  180  PHE180     -0.0003
     31  CE2       32.2580   55.0030  -83.3260 C.ar  180  PHE180     -0.0003
     32  CZ        32.9450   54.5050  -84.4040 C.ar  180  PHE180     -0.0000
     33  N         28.1540   54.1000  -84.2190 N.am  181  HIS181     -0.1961
     34  CA        28.0090   53.2140  -83.0410 C.3   181  HIS181      0.1787
     35  C         29.2980   52.4950  -82.6690 C.2   181  HIS181      0.2620
     36  O         30.0730   52.0410  -83.5230 O.2   181  HIS181     -0.2715
     37  CB        26.9330   52.1340  -83.2190 C.3   181  HIS181      0.0785
     38  CG        25.6910   52.6080  -83.9020 C.ar  181  HIS181      0.0821
     39  ND1       24.4680   52.6560  -83.2670 N.ar  181  HIS181     -0.2267
     40  CD2       25.4750   53.0210  -85.1740 C.ar  181  HIS181      0.1154
     41  CE1       23.5540   53.0900  -84.1170 C.ar  181  HIS181      0.1986
     42  NE2       24.1390   53.3230  -85.2790 N.ar  181  HIS181     -0.2212
     43  N         29.4880   52.3410  -81.3680 N.am  182  LEU182     -0.1963
     44  CA        30.6790   51.7110  -80.8540 C.3   182  LEU182      0.1728
     45  C         30.4760   50.2300  -80.5980 C.2   182  LEU182      0.2616
     46  O         29.6770   49.8350  -79.7530 O.2   182  LEU182     -0.2715
     47  CB        31.1160   52.4050  -79.5650 C.3   182  LEU182      0.0311
     48  CG        32.2460   53.4260  -79.7240 C.3   182  LEU182      0.0022
     49  CD1       31.9060   54.6870  -78.9370 C.3   182  LEU182      0.0001
     50  CD2       33.6020   52.8430  -79.3280 C.3   182  LEU182      0.0001
     51  N         31.2090   49.4190  -81.3500 N.am  183  ARG183     -0.1963
     52  CA        31.5190   48.0510  -80.9540 C.3   183  ARG183      0.1729
     53  C         33.0400   48.0330  -80.6280 C.2   183  ARG183      0.2616
     54  O         33.8240   47.2580  -81.1980 O.2   183  ARG183     -0.2715
     55  CB        31.1170   47.0730  -82.0690 C.3   183  ARG183      0.0348
     56  CG        29.6790   47.0380  -82.4290 C.3   183  ARG183      0.0492
     57  CD        28.7670   46.5940  -81.3120 C.3   183  ARG183      0.2205
     58  NE        29.0130   45.1930  -81.0070 N.pl3 183  ARG183     -0.0865
     59  CZ        28.5850   44.5090  -79.9760 C.cat 183  ARG183      0.5346
     60  NH1       27.9040   45.1420  -79.0140 N.pl3 183  ARG183      0.1354
     61  NH2       29.0070   43.2790  -79.7920 N.pl3 183  ARG183      0.1354
     62  N         33.4330   48.9310  -79.7130 N.am  184  GLY184     -0.1955
     63  CA        34.8340   49.1070  -79.2650 C.3   184  GLY184      0.1869
     64  C         35.2280   48.0910  -78.2020 C.2   184  GLY184      0.2309
     65  O         36.3970   47.9990  -77.7930 O.2   184  GLY184     -0.2863
     66  N         37.4190   46.1680  -81.6900 N.3   187  LYS187     -0.1231
     67  CA        38.5530   47.0130  -82.1040 C.3   187  LYS187      0.1693
     68  C         38.4140   48.5290  -81.9240 C.2   187  LYS187      0.2592
     69  O         37.7500   49.2160  -82.6960 O.2   187  LYS187     -0.2718
     70  CB        39.0490   46.7100  -83.5240 C.3   187  LYS187      0.0285
     71  CG        40.5260   47.0880  -83.6810 C.3   187  LYS187      0.0035
     72  CD        41.4040   46.2640  -82.7250 C.3   187  LYS187      0.0206
     73  CE        42.8740   46.6780  -82.7150 C.3   187  LYS187      0.1093
     74  NZ        43.7890   45.6120  -83.2280 N.3   187  LYS187     -0.1314
     75  N         39.1220   49.0140  -80.9080 N.am  188  PHE188     -0.1962
     76  CA        39.2520   50.4130  -80.5920 C.3   188  PHE188      0.1771
     77  C         40.5110   50.9120  -81.2570 C.2   188  PHE188      0.2619
     78  O         41.4800   50.1640  -81.3440 O.2   188  PHE188     -0.2715
     79  CB        39.4140   50.5530  -79.0750 C.3   188  PHE188      0.0574
     80  CG        39.1880   51.9360  -78.5750 C.ar  188  PHE188     -0.0200
     81  CD1       37.9050   52.4550  -78.5180 C.ar  188  PHE188     -0.0042
     82  CD2       40.2500   52.7250  -78.1810 C.ar  188  PHE188     -0.0042
     83  CE1       37.6790   53.7440  -78.0720 C.ar  188  PHE188     -0.0003
     84  CE2       40.0410   54.0090  -77.7350 C.ar  188  PHE188     -0.0003
     85  CZ        38.7510   54.5240  -77.6780 C.ar  188  PHE188     -0.0000
     86  N         40.4940   52.1630  -81.7190 N.am  189  ASN189     -0.1972
     87  CA        41.7000   52.8750  -82.1680 C.3   189  ASN189      0.1688
     88  C         41.6850   54.2490  -81.5240 C.2   189  ASN189      0.2292
     89  O         40.8050   55.0460  -81.7910 O.2   189  ASN189     -0.2864
     90  CB        41.7220   53.0230  -83.6970 C.3   189  ASN189      0.1181
     91  CG        42.9950   53.6890  -84.2220 C.2   189  ASN189      0.2629
     92  OD1       43.5200   54.6730  -83.6690 O.2   189  ASN189     -0.2716
     93  ND2       43.4950   53.1500  -85.3100 N.am  189  ASN189     -0.0877
     94  N         41.3670   58.2350  -83.2680 N.3   192  TRP192     -0.1227
     95  CA        40.0690   58.7480  -83.6790 C.3   192  TRP192      0.1737
     96  C         39.3480   59.5070  -82.5630 C.2   192  TRP192      0.2595
     97  O         38.2810   60.0820  -82.7880 O.2   192  TRP192     -0.2718
     98  CB        39.1890   57.6000  -84.1540 C.3   192  TRP192      0.0564
     99  CG        39.6920   56.9010  -85.3970 C.ar  192  TRP192      0.0003
    100  CD1       39.7730   55.5540  -85.5920 C.ar  192  TRP192      0.0946
    101  CD2       40.1600   57.5080  -86.6110 C.ar  192  TRP192      0.0152
    102  NE1       40.2540   55.2870  -86.8380 N.ar  192  TRP192     -0.2442
    103  CE2       40.4950   56.4700  -87.4880 C.ar  192  TRP192      0.0810
    104  CE3       40.3270   58.8310  -87.0390 C.ar  192  TRP192      0.0012
    105  CZ2       40.9800   56.7060  -88.7780 C.ar  192  TRP192      0.0191
    106  CZ3       40.8180   59.0670  -88.3150 C.ar  192  TRP192      0.0001
    107  CH2       41.1360   58.0080  -89.1700 C.ar  192  TRP192      0.0015
    108  N         39.9130   59.5010  -81.3590 N.am  193  TRP193     -0.1976
    109  CA        39.2890   60.1530  -80.2150 C.3   193  TRP193      0.1640
    110  C         40.2700   61.0830  -79.5390 C.2   193  TRP193      0.2290
    111  O         41.4610   61.1010  -79.8750 O.2   193  TRP193     -0.2864
    112  CB        38.8450   59.1170  -79.1940 C.3   193  TRP193      0.0576
    113  CG        38.1170   58.0170  -79.7740 C.ar  193  TRP193      0.0006
    114  CD1       38.6290   56.8470  -80.1920 C.ar  193  TRP193      0.0946
    115  CD2       36.7110   57.9660  -80.0270 C.ar  193  TRP193      0.0152
    116  NE1       37.6340   56.0500  -80.7040 N.ar  193  TRP193     -0.2442
    117  CE2       36.4430   56.7130  -80.6080 C.ar  193  TRP193      0.0810
    118  CE3       35.6500   58.8580  -79.8110 C.ar  193  TRP193      0.0012
    119  CZ2       35.1660   56.3220  -80.9720 C.ar  193  TRP193      0.0191
    120  CZ3       34.3900   58.4700  -80.1710 C.ar  193  TRP193      0.0001
    121  CH2       34.1560   57.2170  -80.7510 C.ar  193  TRP193      0.0015
    122  N         28.2110   66.3230  -80.4400 N.3   378  ARG378     -0.1245
    123  CA        27.4590   65.0850  -80.5570 C.3   378  ARG378      0.1563
    124  C         26.6900   64.8070  -79.2840 C.2   378  ARG378      0.2260
    125  O         26.1710   63.7380  -79.1040 O.2   378  ARG378     -0.2867
    126  CB        28.3860   63.9180  -80.9080 C.3   378  ARG378      0.0307
    127  CG        29.4520   64.2870  -81.9330 C.3   378  ARG378      0.0489
    128  CD        29.9970   63.0570  -82.6480 C.3   378  ARG378      0.2205
    129  NE        31.1020   63.3670  -83.5600 N.pl3 378  ARG378     -0.0865
    130  CZ        32.3540   63.5900  -83.1730 C.cat 378  ARG378      0.5346
    131  NH1       32.6900   63.5260  -81.8750 N.pl3 378  ARG378      0.1354
    132  NH2       33.2750   63.8700  -84.0840 N.pl3 378  ARG378      0.1354
@<TRIPOS>BOND
     1    21    18    1
     2    17    18    1
     3    18    19    1
     4   107   105   ar
     5   107   106   ar
     6   105   103   ar
     7   106   104   ar
     8    19    20    2
     9    12    11    2
    10   103   102   ar
    11   103   101   ar
    12   104   101   ar
    13    15    14   ar
    14   102   100   ar
    15   101    99   ar
    16    14    13    1
    17    14    16   ar
    18    11    10    1
    19    13    10    1
    20    28    30   ar
    21    28    27   ar
    22    30    32   ar
    23    22    23    1
    24   100    99   ar
    25    10     9    1
    26    99    98    1
    27    23    26    1
    28    23    24    1
    29    93    91   am
    30    42    40   ar
    31    42    41   ar
    32    40    38   ar
    33    26    27    1
    34    27    29   ar
    35    32    31   ar
    36    91    90    1
    37    91    92    2
    38    33    24   am
    39    33    34    1
    40    98    95    1
    41    41    39   ar
    42    24    25    2
    43   132   130    1
    44    38    39   ar
    45    38    37    1
    46    90    87    1
    47    71    70    1
    48    71    72    1
    49    95    94    1
    50    95    96    1
    51   129   130    2
    52   129   128    1
    53    29    31   ar
    54    70    67    1
    55    36    35    2
    56     4     3    2
    57    74    73    1
    58    37    34    1
    59   130   131    1
    60    34    35    1
    61    97    96    2
    62    72    73    1
    63    69    68    2
    64    35    43   am
    65   128   127    1
    66    96   108   am
    67     3     2    1
    68    56    55    1
    69    56    57    1
    70    87    86    1
    71    87    88    1
    72    67    68    1
    73    67    66    1
    74    55    52    1
    75   127   126    1
    76    68    75   am
    77    89    88    2
    78    86    77   am
    79    43    44    1
    80   108   109    1
    81    51    52    1
    82    51    45   am
    83    78    77    2
    84    57    58    1
    85    77    76    1
    86    54    53    2
    87     1     2    1
    88     2     5    1
    89    58    59    2
    90   119   121   ar
    91   119   117   ar
    92    52    53    1
    93   126   123    1
    94    75    76    1
    95    44    45    1
    96    44    47    1
    97   121   120   ar
    98   116   117   ar
    99   116   114   ar
   100     6     5    1
   101     6     7    1
   102    53    62   am
   103   117   115   ar
   104    45    46    2
   105    76    79    1
   106   123   122    1
   107   123   124    1
   108   109   110    1
   109   109   112    1
   110   114   113   ar
   111   120   118   ar
   112   115   118   ar
   113   115   113   ar
   114    59    61    1
   115    59    60    1
   116   111   110    2
   117   113   112    1
   118    48    47    1
   119    48    50    1
   120    48    49    1
   121    62    63    1
   122     8     7    1
   123   124   125    2
   124    63    64    1
   125    79    80    1
   126    80    81   ar
   127    80    82   ar
   128    81    83   ar
   129    64    65    2
   130    82    84   ar
   131    83    85   ar
   132    84    85   ar
