@<TRIPOS>MOLECULE
tmp/4zg9A03.pdb
 108 106 0 0 0
SMALL
GASTEIGER

@<TRIPOS>ATOM
      1  N         20.3960   49.7360   -2.6890 N.3   172  MET172     -0.1245
      2  CA        19.9620   48.3480   -2.7010 C.3   172  MET172      0.1570
      3  C         19.4420   47.8790   -1.3680 C.2   172  MET172      0.2261
      4  O         20.0780   48.0580   -0.3440 O.2   172  MET172     -0.2867
      5  CB        21.0540   47.3870   -3.2090 C.3   172  MET172      0.0387
      6  CG        22.4370   47.9680   -3.3440 C.3   172  MET172      0.0595
      7  SD        23.5050   46.9190   -4.3340 S.3   172  MET172     -0.1393
      8  CE        24.8910   48.0470   -4.3060 C.3   172  MET172      0.0692
      9  N         18.5400   45.0300    1.1720 N.3   174  ASP174     -0.1239
     10  CA        18.8530   43.6970    1.5700 C.3   174  ASP174      0.1674
     11  C         17.7690   43.1850    2.5190 C.2   174  ASP174      0.2266
     12  O         17.6190   43.6790    3.6300 O.2   174  ASP174     -0.2867
     13  CB        20.2060   43.6840    2.2450 C.3   174  ASP174      0.1410
     14  CG        20.7760   42.2980    2.3450 C.2   174  ASP174      0.3668
     15  OD1       20.0400   41.4020    2.8170 O.co2 174  ASP174     -0.2456
     16  OD2       21.9510   42.1020    1.9530 O.co2 174  ASP174     -0.2456
     17  N         17.6980   40.3910    4.0830 N.3   176  VAL176     -0.1231
     18  CA        18.2530   39.6220    5.1980 C.3   176  VAL176      0.1692
     19  C         18.3390   40.5550    6.4210 C.2   176  VAL176      0.2592
     20  O         17.9470   40.1870    7.5270 O.2   176  VAL176     -0.2718
     21  CB        19.6170   38.9960    4.7980 C.3   176  VAL176      0.0266
     22  CG1       20.4500   38.5820    5.9990 C.3   176  VAL176      0.0020
     23  CG2       19.3760   37.8120    3.8770 C.3   176  VAL176      0.0020
     24  N         18.7990   41.7790    6.1890 N.am  177  PHE177     -0.1976
     25  CA        18.9340   42.7690    7.2320 C.3   177  PHE177      0.1639
     26  C         17.7610   43.7490    7.3030 C.2   177  PHE177      0.2290
     27  O         17.6700   44.5300    8.2410 O.2   177  PHE177     -0.2864
     28  CB        20.2460   43.5470    7.0090 C.3   177  PHE177      0.0560
     29  CG        21.4710   42.6620    6.9450 C.ar  177  PHE177     -0.0200
     30  CD1       21.9770   42.0620    8.1080 C.ar  177  PHE177     -0.0042
     31  CD2       22.1030   42.4110    5.7240 C.ar  177  PHE177     -0.0042
     32  CE1       23.0820   41.2390    8.0520 C.ar  177  PHE177     -0.0003
     33  CE2       23.2140   41.5850    5.6610 C.ar  177  PHE177     -0.0003
     34  CZ        23.7010   40.9980    6.8270 C.ar  177  PHE177     -0.0000
     35  N         17.6300   46.3450    5.6300 N.3   179  ALA179     -0.1245
     36  CA        18.1530   47.6990    5.4510 C.3   179  ALA179      0.1562
     37  C         18.6600   47.9730    4.0440 C.2   179  ALA179      0.2260
     38  O         19.0580   47.0710    3.3270 O.2   179  ALA179     -0.2867
     39  CB        19.2190   48.0220    6.4750 C.3   179  ALA179      0.0290
     40  N         21.1860   50.1400    1.3950 N.3   181  PHE181     -0.1241
     41  CA        22.5490   50.6160    1.3320 C.3   181  PHE181      0.1605
     42  C         22.7090   51.4950    0.0980 C.2   181  PHE181      0.2264
     43  O         22.3280   51.0840   -0.9940 O.2   181  PHE181     -0.2867
     44  CB        23.4920   49.4360    1.2730 C.3   181  PHE181      0.0534
     45  CG        24.9200   49.8260    1.2920 C.ar  181  PHE181     -0.0203
     46  CD1       25.5340   50.1760    2.4860 C.ar  181  PHE181     -0.0042
     47  CD2       25.6540   49.8880    0.1120 C.ar  181  PHE181     -0.0042
     48  CE1       26.8620   50.5530    2.5080 C.ar  181  PHE181     -0.0003
     49  CE2       26.9870   50.2730    0.1270 C.ar  181  PHE181     -0.0003
     50  CZ        27.5910   50.6060    1.3270 C.ar  181  PHE181     -0.0000
     51  N         34.1630   51.5490   -1.2570 N.3   185  ASN185     -0.1240
     52  CA        35.2030   50.5750   -0.8960 C.3   185  ASN185      0.1653
     53  C         35.1080   49.2680   -1.6600 C.2   185  ASN185      0.2266
     54  O         34.3060   48.3940   -1.3830 O.2   185  ASN185     -0.2867
     55  CB        35.2640   50.3000    0.6170 C.3   185  ASN185      0.1155
     56  CG        36.5320   49.5280    1.0330 C.2   185  ASN185      0.2627
     57  OD1       37.0890   48.7150    0.2820 O.2   185  ASN185     -0.2716
     58  ND2       36.9740   49.7710    2.2450 N.am  185  ASN185     -0.0877
     59  N         34.3190   45.2320   -0.0030 N.3   188  TRP188     -0.1227
     60  CA        33.1260   44.5550    0.5410 C.3   188  TRP188      0.1737
     61  C         32.2700   43.8700   -0.5410 C.2   188  TRP188      0.2595
     62  O         31.2380   43.2280   -0.2630 O.2   188  TRP188     -0.2718
     63  CB        32.2960   45.5660    1.2840 C.3   188  TRP188      0.0564
     64  CG        33.0380   46.2380    2.4080 C.ar  188  TRP188      0.0003
     65  CD1       33.4030   47.5490    2.4810 C.ar  188  TRP188      0.0946
     66  CD2       33.4910   45.6310    3.6220 C.ar  188  TRP188      0.0152
     67  NE1       34.0570   47.8000    3.6680 N.ar  188  TRP188     -0.2442
     68  CE2       34.1200   46.6400    4.3850 C.ar  188  TRP188      0.0810
     69  CE3       33.4230   44.3360    4.1390 C.ar  188  TRP188      0.0012
     70  CZ2       34.6760   46.3910    5.6280 C.ar  188  TRP188      0.0191
     71  CZ3       33.9570   44.0850    5.3690 C.ar  188  TRP188      0.0001
     72  CH2       34.5820   45.1070    6.1050 C.ar  188  TRP188      0.0015
     73  N         32.7470   43.9880   -1.7790 N.am  189  TRP189     -0.1976
     74  CA        32.0220   43.5820   -2.9650 C.3   189  TRP189      0.1640
     75  C         32.6140   42.3430   -3.5110 C.2   189  TRP189      0.2290
     76  O         33.7470   41.9960   -3.1690 O.2   189  TRP189     -0.2864
     77  CB        32.1560   44.6830   -3.9980 C.3   189  TRP189      0.0576
     78  CG        31.5280   45.9180   -3.5010 C.ar  189  TRP189      0.0006
     79  CD1       32.1410   47.0840   -3.1490 C.ar  189  TRP189      0.0946
     80  CD2       30.1420   46.0870   -3.2300 C.ar  189  TRP189      0.0152
     81  NE1       31.2100   47.9880   -2.7010 N.ar  189  TRP189     -0.2442
     82  CE2       29.9720   47.3990   -2.7370 C.ar  189  TRP189      0.0810
     83  CE3       29.0190   45.2570   -3.3750 C.ar  189  TRP189      0.0012
     84  CZ2       28.7190   47.9050   -2.3850 C.ar  189  TRP189      0.0191
     85  CZ3       27.7830   45.7520   -3.0260 C.ar  189  TRP189      0.0001
     86  CH2       27.6410   47.0710   -2.5380 C.ar  189  TRP189      0.0015
     87  N         20.1270   38.7450   -4.0620 N.3   373  ARG373     -0.1231
     88  CA        18.9560   38.9380   -3.2090 C.3   373  ARG373      0.1694
     89  C         18.6220   40.3940   -3.0140 C.2   373  ARG373      0.2591
     90  O         17.5700   40.7110   -2.4670 O.2   373  ARG373     -0.2718
     91  CB        19.1200   38.2410   -1.8640 C.3   373  ARG373      0.0321
     92  CG        20.3030   38.7060   -1.0690 C.3   373  ARG373      0.0489
     93  CD        19.9540   38.6430    0.3810 C.3   373  ARG373      0.2205
     94  NE        21.0230   39.2440    1.1460 N.pl3 373  ARG373     -0.0865
     95  CZ        21.9690   38.5630    1.7730 C.cat 373  ARG373      0.5346
     96  NH1       21.9800   37.2420    1.7180 N.pl3 373  ARG373      0.1354
     97  NH2       22.9050   39.2180    2.4590 N.pl3 373  ARG373      0.1354
     98  N         19.4960   41.2650   -3.5090 N.am  374  ARG374     -0.1980
     99  CA        19.2050   42.6880   -3.5730 C.3   374  ARG374      0.1597
    100  C         18.6910   43.0660   -4.9550 C.2   374  ARG374      0.2287
    101  O         18.6350   44.2420   -5.3110 O.2   374  ARG374     -0.2864
    102  CB        20.4360   43.5120   -3.2060 C.3   374  ARG374      0.0334
    103  CG        21.3090   42.8040   -2.2050 C.3   374  ARG374      0.0492
    104  CD        22.1120   43.7740   -1.4010 C.3   374  ARG374      0.2205
    105  NE        23.0870   43.0630   -0.5910 N.pl3 374  ARG374     -0.0865
    106  CZ        24.2160   42.5500   -1.0630 C.cat 374  ARG374      0.5346
    107  NH1       24.5240   42.6520   -2.3700 N.pl3 374  ARG374      0.1354
    108  NH2       25.0340   41.9290   -0.2170 N.pl3 374  ARG374      0.1354
@<TRIPOS>BOND
     1   101   100    2
     2   100    99    1
     3     7     8    1
     4     7     6    1
     5    87    88    1
     6    77    78    1
     7    77    74    1
     8    99    98    1
     9    99   102    1
    10    75    76    2
    11    75    74    1
    12    98    89   am
    13    78    80   ar
    14    78    79   ar
    15    83    80   ar
    16    83    85   ar
    17     6     5    1
    18    80    82   ar
    19     5     2    1
    20    88    89    1
    21    88    91    1
    22   102   103    1
    23    79    81   ar
    24    85    86   ar
    25    89    90    2
    26    74    73    1
    27    82    81   ar
    28    82    84   ar
    29     2     1    1
    30     2     3    1
    31    86    84   ar
    32   107   106    1
    33   103   104    1
    34    91    92    1
    35    73    61   am
    36    53    54    2
    37    53    52    1
    38   104   105    1
    39     3     4    2
    40    51    52    1
    41    92    93    1
    42   106   105    2
    43   106   108    1
    44    43    42    2
    45    52    55    1
    46    61    62    2
    47    61    60    1
    48    59    60    1
    49    42    41    1
    50    47    49   ar
    51    47    45   ar
    52    49    50   ar
    53    57    56    2
    54    93    94    1
    55    60    63    1
    56    55    56    1
    57    56    58   am
    58    94    95    2
    59     9    10    1
    60    44    45    1
    61    44    41    1
    62    63    64    1
    63    45    46   ar
    64    50    48   ar
    65    41    40    1
    66    10    13    1
    67    10    11    1
    68    96    95    1
    69    95    97    1
    70    16    14   ar
    71    13    14    1
    72    14    15   ar
    73    64    65   ar
    74    64    66   ar
    75    65    67   ar
    76    46    48   ar
    77    11    12    2
    78    38    37    2
    79    66    69   ar
    80    66    68   ar
    81    67    68   ar
    82    23    21    1
    83    37    36    1
    84    17    18    1
    85    69    71   ar
    86    68    70   ar
    87    21    18    1
    88    21    22    1
    89    18    19    1
    90    71    72   ar
    91    36    35    1
    92    36    39    1
    93    70    72   ar
    94    33    31   ar
    95    33    34   ar
    96    31    29   ar
    97    24    19   am
    98    24    25    1
    99    19    20    2
   100    34    32   ar
   101    29    28    1
   102    29    30   ar
   103    28    25    1
   104    25    26    1
   105    26    27    2
   106    32    30   ar
