@<TRIPOS>MOLECULE
tmp/4zg9A00.pdb
 98 96 0 0 0
SMALL
GASTEIGER

@<TRIPOS>ATOM
      1  N         32.9190   40.3370  -14.0680 N.3   160  LEU160     -0.1231
      2  CA        31.7300   39.6800  -13.5320 C.3   160  LEU160      0.1693
      3  C         30.4570   40.4090  -13.8640 C.2   160  LEU160      0.2592
      4  O         30.4300   41.6390  -13.8780 O.2   160  LEU160     -0.2718
      5  CB        31.8260   39.6430  -12.0130 C.3   160  LEU160      0.0284
      6  CG        32.9290   38.7720  -11.4180 C.3   160  LEU160      0.0019
      7  CD1       33.0340   39.0620   -9.9430 C.3   160  LEU160      0.0001
      8  CD2       32.6630   37.2880  -11.6270 C.3   160  LEU160      0.0001
      9  N         29.3860   39.6440  -14.0710 N.am  161  TYR161     -0.1976
     10  CA        28.0380   40.2180  -14.1220 C.3   161  TYR161      0.1639
     11  C         27.7160   40.9160  -12.8080 C.2   161  TYR161      0.2290
     12  O         28.1850   40.5200  -11.7540 O.2   161  TYR161     -0.2864
     13  CB        26.9680   39.1540  -14.4150 C.3   161  TYR161      0.0560
     14  CG        27.1680   38.4980  -15.7400 C.ar  161  TYR161     -0.0198
     15  CD1       27.1770   39.2410  -16.9110 C.ar  161  TYR161     -0.0009
     16  CD2       27.4160   37.1540  -15.8300 C.ar  161  TYR161     -0.0009
     17  CE1       27.3980   38.6510  -18.1400 C.ar  161  TYR161      0.0417
     18  CE2       27.6280   36.5470  -17.0570 C.ar  161  TYR161      0.0417
     19  CZ        27.6240   37.3010  -18.2090 C.ar  161  TYR161      0.1957
     20  OH        27.8350   36.6780  -19.4140 O.3   161  TYR161     -0.2866
     21  N         25.0140   40.6120  -11.1500 N.3   163  GLU163     -0.1231
     22  CA        24.4080   39.7140  -10.1730 C.3   163  GLU163      0.1699
     23  C         25.4860   39.1410   -9.2570 C.2   163  GLU163      0.2592
     24  O         25.2320   38.9900   -8.0850 O.2   163  GLU163     -0.2718
     25  CB        23.5250   38.6000  -10.8030 C.3   163  GLU163      0.0402
     26  CG        24.2590   37.6160  -11.7030 C.3   163  GLU163      0.1161
     27  CD        23.3570   36.6470  -12.4610 C.2   163  GLU163      0.3649
     28  OE1       23.9180   35.7280  -13.1160 O.co2 163  GLU163     -0.2457
     29  OE2       22.1080   36.7820  -12.4190 O.co2 163  GLU163     -0.2457
     30  N         26.6900   38.8780   -9.7740 N.am  164  SER164     -0.1952
     31  CA        27.7680   38.1900   -9.0270 C.3   164  SER164      0.1924
     32  C         28.7380   39.1220   -8.3100 C.2   164  SER164      0.2314
     33  O         29.3180   38.7310   -7.3290 O.2   164  SER164     -0.2863
     34  CB        28.6320   37.2860   -9.9390 C.3   164  SER164      0.2116
     35  OG        27.8770   36.4510  -10.8040 O.3   164  SER164     -0.2180
     36  N         21.3560   38.4820  -17.4310 N.3   368  HIS368     -0.1241
     37  CA        22.0260   37.9750  -16.2340 C.3   368  HIS368      0.1621
     38  C         21.6700   38.8260  -15.0130 C.2   368  HIS368      0.2264
     39  O         22.5290   39.2660  -14.2470 O.2   368  HIS368     -0.2867
     40  CB        23.5380   37.9040  -16.4610 C.3   368  HIS368      0.0745
     41  CG        23.9250   36.9740  -17.5640 C.ar  368  HIS368      0.0817
     42  ND1       23.6370   35.6260  -17.5330 N.ar  368  HIS368     -0.2268
     43  CD2       24.5520   37.1960  -18.7430 C.ar  368  HIS368      0.1154
     44  CE1       24.0790   35.0550  -18.6410 C.ar  368  HIS368      0.1986
     45  NE2       24.6380   35.9860  -19.3920 N.ar  368  HIS368     -0.2212
     46  N         38.5830   33.9360  -11.3090 N.3   447  PRO447     -0.2102
     47  CA        37.4200   33.4270  -12.0420 C.3   447  PRO447      0.1504
     48  C         36.3630   34.5120  -12.3070 C.2   447  PRO447      0.2576
     49  O         35.9200   35.1660  -11.3800 O.2   447  PRO447     -0.2718
     50  CB        36.8580   32.3410  -11.1090 C.3   447  PRO447      0.0282
     51  CG        37.9540   32.0340  -10.1670 C.3   447  PRO447      0.0208
     52  CD        38.6600   33.3430   -9.9720 C.3   447  PRO447      0.0893
     53  N         35.9840   34.6910  -13.5660 N.am  448  ASN448     -0.1961
     54  CA        35.0540   35.7410  -13.9740 C.3   448  ASN448      0.1819
     55  C         34.0970   35.2120  -15.0640 C.2   448  ASN448      0.2621
     56  O         34.1770   34.0620  -15.4340 O.2   448  ASN448     -0.2715
     57  CB        35.8490   36.9680  -14.4450 C.3   448  ASN448      0.1195
     58  CG        36.7160   36.6710  -15.6540 C.2   448  ASN448      0.2630
     59  OD1       36.2960   36.8650  -16.7900 O.2   448  ASN448     -0.2716
     60  ND2       37.9130   36.1670  -15.4180 N.am  448  ASN448     -0.0877
     61  N         33.2050   36.0390  -15.5810 N.am  449  ASN449     -0.1972
     62  CA        32.2600   35.5950  -16.6140 C.3   449  ASN449      0.1688
     63  C         32.7360   35.8230  -18.0160 C.2   449  ASN449      0.2292
     64  O         32.0400   35.5010  -18.9650 O.2   449  ASN449     -0.2864
     65  CB        30.9030   36.2420  -16.3730 C.3   449  ASN449      0.1181
     66  CG        30.4700   36.0410  -14.9470 C.2   449  ASN449      0.2629
     67  OD1       30.3130   36.9980  -14.1880 O.2   449  ASN449     -0.2716
     68  ND2       30.3360   34.7500  -14.5600 N.am  449  ASN449     -0.0877
     69  N         20.1870   31.0630  -11.4810 N.3   634  ASP634     -0.1225
     70  CA        21.5850   31.4760  -11.3050 C.3   634  ASP634      0.1805
     71  C         22.3660   31.3240  -12.5960 C.2   634  ASP634      0.2598
     72  O         23.5790   31.4830  -12.6000 O.2   634  ASP634     -0.2718
     73  CB        22.2640   30.6970  -10.1660 C.3   634  ASP634      0.1424
     74  CG        22.4490   29.2100  -10.4750 C.2   634  ASP634      0.3668
     75  OD1       21.7420   28.6530  -11.3470 O.co2 634  ASP634     -0.2456
     76  OD2       23.2980   28.5910   -9.8080 O.co2 634  ASP634     -0.2456
     77  N         21.6660   31.0090  -13.6810 N.am  635  GLY635     -0.1942
     78  CA        22.2890   30.9420  -14.9850 C.3   635  GLY635      0.2014
     79  C         23.0310   29.6500  -15.2670 C.2   635  GLY635      0.2638
     80  O         23.7260   29.5420  -16.2880 O.2   635  GLY635     -0.2714
     81  N         22.8590   28.6640  -14.3840 N.am  636  LEU636     -0.1977
     82  CA        23.5960   27.3950  -14.4720 C.3   636  LEU636      0.1596
     83  C         22.6840   26.1830  -14.4250 C.2   636  LEU636      0.2287
     84  O         21.7060   26.1570  -13.6940 O.2   636  LEU636     -0.2864
     85  CB        24.6120   27.2720  -13.3350 C.3   636  LEU636      0.0297
     86  CG        25.5730   28.4430  -13.1620 C.3   636  LEU636      0.0022
     87  CD1       26.3500   28.3090  -11.8700 C.3   636  LEU636      0.0001
     88  CD2       26.5240   28.5500  -14.3500 C.3   636  LEU636      0.0001
     89  N         26.5370   27.3290  -20.1930 N.3   722  HIS722     -0.1241
     90  CA        26.4340   27.5000  -18.7570 C.3   722  HIS722      0.1621
     91  C         25.1720   26.9300  -18.1920 C.2   722  HIS722      0.2264
     92  O         25.1910   26.3820  -17.1030 O.2   722  HIS722     -0.2867
     93  CB        26.4370   28.9550  -18.3780 C.3   722  HIS722      0.0745
     94  CG        27.7540   29.6200  -18.5440 C.ar  722  HIS722      0.0817
     95  ND1       28.9410   29.0010  -18.2270 N.ar  722  HIS722     -0.2268
     96  CD2       28.0690   30.8680  -18.9600 C.ar  722  HIS722      0.1154
     97  CE1       29.9380   29.8290  -18.4700 C.ar  722  HIS722      0.1986
     98  NE2       29.4340   30.9680  -18.9190 N.ar  722  HIS722     -0.2212
@<TRIPOS>BOND
     1    89    90    1
     2    20    19    1
     3    45    43   ar
     4    45    44   ar
     5    64    63    2
     6    96    98   ar
     7    96    94   ar
     8    98    97   ar
     9    90    93    1
    10    90    91    1
    11    43    41   ar
    12    44    42   ar
    13    94    93    1
    14    94    95   ar
    15    97    95   ar
    16    19    17   ar
    17    19    18   ar
    18    91    92    2
    19    17    15   ar
    20    63    62    1
    21    41    42   ar
    22    41    40    1
    23    36    37    1
    24    18    16   ar
    25    15    14   ar
    26    59    58    2
    27    62    65    1
    28    62    61    1
    29    40    37    1
    30    65    66    1
    31    80    79    2
    32    37    38    1
    33    16    14   ar
    34    14    13    1
    35    58    60   am
    36    58    57    1
    37    61    55   am
    38    56    55    2
    39    79    78    1
    40    79    81   am
    41    55    54    1
    42    38    39    2
    43    78    77    1
    44    66    68   am
    45    66    67    2
    46    82    83    1
    47    82    81    1
    48    82    85    1
    49    57    54    1
    50    83    84    2
    51    13    10    1
    52    88    86    1
    53    10     9    1
    54    10    11    1
    55     9     3   am
    56     1     2    1
    57    54    53    1
    58     4     3    2
    59     3     2    1
    60    77    71   am
    61    53    48   am
    62     2     5    1
    63    85    86    1
    64    86    87    1
    65    28    27   ar
    66    11    12    2
    67    72    71    2
    68    71    70    1
    69    27    29   ar
    70    27    26    1
    71    48    47    1
    72    48    49    2
    73    47    46    1
    74    47    50    1
    75     5     6    1
    76    26    25    1
    77     8     6    1
    78    69    70    1
    79     6     7    1
    80    75    74   ar
    81    46    52    1
    82    70    73    1
    83    21    22    1
    84    50    51    1
    85    35    34    1
    86    25    22    1
    87    74    73    1
    88    74    76   ar
    89    22    23    1
    90    51    52    1
    91    34    31    1
    92    30    23   am
    93    30    31    1
    94    23    24    2
    95    31    32    1
    96    32    33    2
