@<TRIPOS>MOLECULE
tmp/4zg9A02.pdb
 214 210 0 0 0
SMALL
GASTEIGER

@<TRIPOS>ATOM
      1  N         44.5300   52.6270  -18.5580 N.3   107  ILE107     -0.1245
      2  CA        43.1310   52.4910  -18.8600 C.3   107  ILE107      0.1561
      3  C         42.5090   53.8590  -18.7750 C.2   107  ILE107      0.2260
      4  O         42.4890   54.4960  -17.7180 O.2   107  ILE107     -0.2867
      5  CB        42.4740   51.5740  -17.8650 C.3   107  ILE107      0.0252
      6  CG1       43.1170   50.2100  -17.9740 C.3   107  ILE107      0.0019
      7  CG2       41.0060   51.4380  -18.1800 C.3   107  ILE107      0.0019
      8  CD1       42.9660   49.3780  -16.7350 C.3   107  ILE107      0.0001
      9  N         39.2140   55.6720  -19.0660 N.3   109  SER109     -0.1217
     10  CA        37.7890   55.3110  -19.0070 C.3   109  SER109      0.1889
     11  C         36.9700   56.5670  -19.1090 C.2   109  SER109      0.2288
     12  O         37.3790   57.6020  -18.5740 O.2   109  SER109     -0.2866
     13  CB        37.4610   54.6080  -17.6780 C.3   109  SER109      0.2089
     14  OG        37.7910   55.4330  -16.5470 O.3   109  SER109     -0.2183
     15  N         26.5160   53.4590  -14.2480 N.3   149  THR149     -0.1203
     16  CA        27.9670   53.6290  -14.1410 C.3   149  THR149      0.1994
     17  C         28.6170   52.5720  -13.2610 C.2   149  THR149      0.2617
     18  O         29.4460   51.7940  -13.7260 O.2   149  THR149     -0.2717
     19  CB        28.3100   55.0380  -13.6320 C.3   149  THR149      0.1784
     20  OG1       27.8180   56.0010  -14.5740 O.3   149  THR149     -0.2211
     21  CG2       29.7950   55.2300  -13.4680 C.3   149  THR149      0.0376
     22  N         28.2040   52.5220  -12.0030 N.am  150  PHE150     -0.1975
     23  CA        28.9100   51.7300  -10.9950 C.3   150  PHE150      0.1639
     24  C         28.9260   50.2630  -11.3490 C.2   150  PHE150      0.2290
     25  O         30.0050   49.6660  -11.3470 O.2   150  PHE150     -0.2864
     26  CB        28.3560   51.9590   -9.5750 C.3   150  PHE150      0.0560
     27  CG        28.9090   53.1870   -8.9100 C.ar  150  PHE150     -0.0200
     28  CD1       28.7180   54.4430   -9.4760 C.ar  150  PHE150     -0.0042
     29  CD2       29.6220   53.0870   -7.7230 C.ar  150  PHE150     -0.0042
     30  CE1       29.2340   55.5730   -8.8870 C.ar  150  PHE150     -0.0003
     31  CE2       30.1450   54.2210   -7.1100 C.ar  150  PHE150     -0.0003
     32  CZ        29.9530   55.4670   -7.6990 C.ar  150  PHE150     -0.0000
     33  N         31.3570   49.9380  -14.4240 N.3   153  LEU153     -0.1231
     34  CA        32.7600   50.1430  -14.1100 C.3   153  LEU153      0.1693
     35  C         33.3310   48.9670  -13.3320 C.2   153  LEU153      0.2592
     36  O         34.4640   48.5820  -13.5420 O.2   153  LEU153     -0.2718
     37  CB        32.9200   51.3890  -13.2710 C.3   153  LEU153      0.0284
     38  CG        32.7780   52.6620  -14.0650 C.3   153  LEU153      0.0019
     39  CD1       33.0550   53.8250  -13.1300 C.3   153  LEU153      0.0001
     40  CD2       33.7610   52.6710  -15.2180 C.3   153  LEU153      0.0001
     41  N         32.5480   48.3990  -12.4220 N.am  154  TYR154     -0.1976
     42  CA        33.0460   47.3160  -11.6110 C.3   154  TYR154      0.1639
     43  C         33.0930   46.0070  -12.3870 C.2   154  TYR154      0.2290
     44  O         33.9880   45.2170  -12.1860 O.2   154  TYR154     -0.2864
     45  CB        32.2330   47.1640  -10.3300 C.3   154  TYR154      0.0560
     46  CG        33.0090   46.4200   -9.2590 C.ar  154  TYR154     -0.0198
     47  CD1       34.2640   46.8470   -8.8550 C.ar  154  TYR154     -0.0009
     48  CD2       32.4930   45.2910   -8.6650 C.ar  154  TYR154     -0.0009
     49  CE1       34.9640   46.1760   -7.8980 C.ar  154  TYR154      0.0417
     50  CE2       33.1940   44.6020   -7.6940 C.ar  154  TYR154      0.0417
     51  CZ        34.4270   45.0490   -7.3210 C.ar  154  TYR154      0.1957
     52  OH        35.1420   44.3480   -6.3760 O.3   154  TYR154     -0.2866
     53  N         33.7100   45.9880  -15.6130 N.3   156  LEU156     -0.1231
     54  CA        34.8820   46.2620  -16.3940 C.3   156  LEU156      0.1693
     55  C         36.0760   45.7460  -15.6200 C.2   156  LEU156      0.2591
     56  O         36.8210   44.9310  -16.1140 O.2   156  LEU156     -0.2718
     57  CB        34.9930   47.7650  -16.6570 C.3   156  LEU156      0.0284
     58  CG        35.3400   48.3190  -18.0400 C.3   156  LEU156      0.0019
     59  CD1       34.9130   47.3910  -19.1620 C.3   156  LEU156      0.0001
     60  CD2       34.6730   49.6840  -18.2010 C.3   156  LEU156      0.0001
     61  N         36.1910   46.1670  -14.3720 N.am  157  ALA157     -0.1980
     62  CA        37.3580   45.8660  -13.5320 C.3   157  ALA157      0.1597
     63  C         37.4580   44.4540  -12.9950 C.2   157  ALA157      0.2287
     64  O         38.5280   44.0680  -12.5880 O.2   157  ALA157     -0.2864
     65  CB        37.3900   46.8160  -12.3520 C.3   157  ALA157      0.0319
     66  N         27.1000   44.7940   -7.1580 N.3   167  ILE167     -0.1245
     67  CA        26.6790   46.1710   -7.3220 C.3   167  ILE167      0.1561
     68  C         25.5840   46.1820   -8.3770 C.2   167  ILE167      0.2260
     69  O         25.8370   46.4050   -9.5430 O.2   167  ILE167     -0.2867
     70  CB        27.8520   47.0610   -7.6960 C.3   167  ILE167      0.0252
     71  CG1       28.8780   46.9680   -6.5910 C.3   167  ILE167      0.0019
     72  CG2       27.4010   48.4980   -7.8940 C.3   167  ILE167      0.0019
     73  CD1       30.1620   47.7010   -6.9080 C.3   167  ILE167      0.0001
     74  N         33.5460   54.9340   -1.8820 N.3   184  PHE184     -0.1241
     75  CA        33.3120   53.5640   -2.3370 C.3   184  PHE184      0.1605
     76  C         34.4710   52.6750   -1.9110 C.2   184  PHE184      0.2264
     77  O         35.6310   52.9930   -2.2190 O.2   184  PHE184     -0.2867
     78  CB        33.1540   53.5000   -3.8870 C.3   184  PHE184      0.0534
     79  CG        33.2450   52.0710   -4.4920 C.ar  184  PHE184     -0.0203
     80  CD1       32.1100   51.2770   -4.6520 C.ar  184  PHE184     -0.0042
     81  CD2       34.4630   51.5370   -4.9300 C.ar  184  PHE184     -0.0042
     82  CE1       32.1920   50.0030   -5.2030 C.ar  184  PHE184     -0.0003
     83  CE2       34.5320   50.2590   -5.4800 C.ar  184  PHE184     -0.0003
     84  CZ        33.4000   49.4930   -5.6120 C.ar  184  PHE184     -0.0000
     85  N         43.2400   45.7870  -10.0920 N.3   195  TRP195     -0.1241
     86  CA        44.3150   46.3820   -9.2910 C.3   195  TRP195      0.1605
     87  C         44.7060   45.4240   -8.1610 C.2   195  TRP195      0.2264
     88  O         45.8680   45.3530   -7.7860 O.2   195  TRP195     -0.2867
     89  CB        43.9290   47.7830   -8.7710 C.3   195  TRP195      0.0550
     90  CG        42.6180   47.8610   -8.0320 C.ar  195  TRP195      0.0003
     91  CD1       42.4240   47.6410   -6.7120 C.ar  195  TRP195      0.0946
     92  CD2       41.3210   48.1950   -8.5760 C.ar  195  TRP195      0.0152
     93  NE1       41.0930   47.8180   -6.3850 N.ar  195  TRP195     -0.2442
     94  CE2       40.3930   48.1450   -7.5110 C.ar  195  TRP195      0.0810
     95  CE3       40.8560   48.5220   -9.8550 C.ar  195  TRP195      0.0012
     96  CZ2       39.0250   48.4040   -7.6870 C.ar  195  TRP195      0.0191
     97  CZ3       39.4930   48.7790  -10.0320 C.ar  195  TRP195      0.0001
     98  CH2       38.5960   48.7170   -8.9500 C.ar  195  TRP195      0.0015
     99  N         42.9690   53.5520   -9.3810 N.3   208  PHE208     -0.1227
    100  CA        41.9220   53.5480  -10.3730 C.3   208  PHE208      0.1736
    101  C         40.8450   54.5690   -9.9980 C.2   208  PHE208      0.2595
    102  O         39.7730   54.5590  -10.5770 O.2   208  PHE208     -0.2718
    103  CB        41.2990   52.1570  -10.4520 C.3   208  PHE208      0.0547
    104  CG        42.0930   51.1800  -11.2600 C.ar  208  PHE208     -0.0202
    105  CD1       43.4130   50.9140  -10.9570 C.ar  208  PHE208     -0.0042
    106  CD2       41.5060   50.5150  -12.3420 C.ar  208  PHE208     -0.0042
    107  CE1       44.1330   50.0070  -11.7210 C.ar  208  PHE208     -0.0003
    108  CE2       42.2210   49.5850  -13.0950 C.ar  208  PHE208     -0.0003
    109  CZ        43.5330   49.3270  -12.7850 C.ar  208  PHE208     -0.0000
    110  N         41.1320   55.4280   -9.0150 N.am  209  PHE209     -0.1962
    111  CA        40.1490   56.3370   -8.4440 C.3   209  PHE209      0.1771
    112  C         40.8160   57.6530   -8.2190 C.2   209  PHE209      0.2619
    113  O         41.9740   57.6850   -7.8400 O.2   209  PHE209     -0.2715
    114  CB        39.6470   55.8480   -7.0840 C.3   209  PHE209      0.0574
    115  CG        38.8390   54.6050   -7.1560 C.ar  209  PHE209     -0.0200
    116  CD1       37.4860   54.6720   -7.3600 C.ar  209  PHE209     -0.0042
    117  CD2       39.4480   53.3650   -7.0500 C.ar  209  PHE209     -0.0042
    118  CE1       36.7170   53.5190   -7.4470 C.ar  209  PHE209     -0.0003
    119  CE2       38.7010   52.2110   -7.1470 C.ar  209  PHE209     -0.0003
    120  CZ        37.3190   52.2830   -7.3430 C.ar  209  PHE209     -0.0000
    121  N         40.0680   58.7290   -8.4370 N.am  210  TRP210     -0.1974
    122  CA        40.5630   60.0680   -8.2520 C.3   210  TRP210      0.1640
    123  C         39.5630   60.8790   -7.4600 C.2   210  TRP210      0.2290
    124  O         38.3800   60.5820   -7.4420 O.2   210  TRP210     -0.2864
    125  CB        40.8160   60.7410   -9.5880 C.3   210  TRP210      0.0576
    126  CG        41.8370   60.0440  -10.3780 C.ar  210  TRP210      0.0006
    127  CD1       41.6410   58.9980  -11.2370 C.ar  210  TRP210      0.0946
    128  CD2       43.2250   60.3230  -10.3950 C.ar  210  TRP210      0.0152
    129  NE1       42.8290   58.6070  -11.7830 N.ar  210  TRP210     -0.2442
    130  CE2       43.8240   59.4000  -11.2790 C.ar  210  TRP210      0.0810
    131  CE3       44.0320   61.2700   -9.7520 C.ar  210  TRP210      0.0012
    132  CZ2       45.1930   59.3940  -11.5370 C.ar  210  TRP210      0.0191
    133  CZ3       45.3970   61.2590  -10.0000 C.ar  210  TRP210      0.0001
    134  CH2       45.9610   60.3300  -10.8900 C.ar  210  TRP210      0.0015
    135  N         37.4390   64.0740   -6.9810 N.3   212  VAL212     -0.1245
    136  CA        36.8230   64.7560   -8.1090 C.3   212  VAL212      0.1561
    137  C         37.3860   66.1420   -8.3050 C.2   212  VAL212      0.2260
    138  O         37.4550   66.5950   -9.4210 O.2   212  VAL212     -0.2867
    139  CB        35.2590   64.7750   -8.1280 C.3   212  VAL212      0.0252
    140  CG1       34.6440   63.7150   -7.2070 C.3   212  VAL212      0.0019
    141  CG2       34.7230   66.1600   -7.8330 C.3   212  VAL212      0.0019
    142  N         41.5120   67.1660  -14.7050 N.3   216  HIS216     -0.1241
    143  CA        41.9580   66.0640  -15.5660 C.3   216  HIS216      0.1621
    144  C         43.4240   66.2290  -16.0000 C.2   216  HIS216      0.2264
    145  O         44.1800   65.2500  -16.0770 O.2   216  HIS216     -0.2867
    146  CB        41.0230   65.9040  -16.7860 C.3   216  HIS216      0.0745
    147  CG        39.6290   65.4720  -16.4330 C.ar  216  HIS216      0.0817
    148  ND1       38.5130   65.9420  -17.0910 N.ar  216  HIS216     -0.2268
    149  CD2       39.1710   64.6220  -15.4820 C.ar  216  HIS216      0.1154
    150  CE1       37.4300   65.4040  -16.5610 C.ar  216  HIS216      0.1986
    151  NE2       37.8030   64.6000  -15.5820 N.ar  216  HIS216     -0.2212
    152  N         45.7400   64.9990  -13.4040 N.3   219  ARG219     -0.1245
    153  CA        45.7490   63.5500  -13.2830 C.3   219  ARG219      0.1563
    154  C         46.6900   62.9480  -14.3010 C.2   219  ARG219      0.2260
    155  O         47.2740   61.8980  -14.0650 O.2   219  ARG219     -0.2867
    156  CB        44.3540   62.9690  -13.4860 C.3   219  ARG219      0.0307
    157  CG        43.3120   63.5630  -12.5630 C.3   219  ARG219      0.0489
    158  CD        41.9540   62.9580  -12.8030 C.3   219  ARG219      0.2205
    159  NE        40.9150   63.7120  -12.1170 N.pl3 219  ARG219     -0.0865
    160  CZ        39.6510   63.3140  -12.0200 C.cat 219  ARG219      0.5346
    161  NH1       39.2550   62.1650  -12.5720 N.pl3 219  ARG219      0.1354
    162  NH2       38.7810   64.0610  -11.3590 N.pl3 219  ARG219      0.1354
    163  N         45.1280   54.1880  -14.2040 N.3   239  ALA239     -0.1231
    164  CA        43.7590   54.4890  -14.6690 C.3   239  ALA239      0.1694
    165  C         43.2900   55.9300  -14.5090 C.2   239  ALA239      0.2592
    166  O         43.3490   56.5010  -13.4440 O.2   239  ALA239     -0.2718
    167  CB        42.7440   53.5410  -14.0470 C.3   239  ALA239      0.0304
    168  N         42.7860   56.4730  -15.6130 N.am  240  PHE240     -0.1962
    169  CA        42.1720   57.7790  -15.6960 C.3   240  PHE240      0.1771
    170  C         40.6600   57.5720  -15.7980 C.2   240  PHE240      0.2619
    171  O         40.2170   56.5990  -16.3800 O.2   240  PHE240     -0.2715
    172  CB        42.6930   58.4990  -16.9480 C.3   240  PHE240      0.0574
    173  CG        42.0000   59.7900  -17.2190 C.ar  240  PHE240     -0.0200
    174  CD1       42.4050   60.9440  -16.5860 C.ar  240  PHE240     -0.0042
    175  CD2       40.9130   59.8320  -18.0500 C.ar  240  PHE240     -0.0042
    176  CE1       41.7460   62.1270  -16.7960 C.ar  240  PHE240     -0.0003
    177  CE2       40.2390   61.0050  -18.2540 C.ar  240  PHE240     -0.0003
    178  CZ        40.6570   62.1590  -17.6290 C.ar  240  PHE240     -0.0000
    179  N         39.8720   58.4800  -15.2300 N.am  241  TYR241     -0.1974
    180  CA        38.4100   58.4420  -15.3180 C.3   241  TYR241      0.1639
    181  C         37.8910   59.8360  -15.6350 C.2   241  TYR241      0.2290
    182  O         38.4400   60.8140  -15.1460 O.2   241  TYR241     -0.2864
    183  CB        37.8050   57.9810  -14.0020 C.3   241  TYR241      0.0560
    184  CG        36.2970   58.0560  -13.9920 C.ar  241  TYR241     -0.0198
    185  CD1       35.5260   57.1400  -14.6990 C.ar  241  TYR241     -0.0009
    186  CD2       35.6490   59.0580  -13.3080 C.ar  241  TYR241     -0.0009
    187  CE1       34.1540   57.2220  -14.6960 C.ar  241  TYR241      0.0417
    188  CE2       34.2760   59.1570  -13.3200 C.ar  241  TYR241      0.0417
    189  CZ        33.5370   58.2440  -14.0070 C.ar  241  TYR241      0.1957
    190  OH        32.1680   58.3660  -13.9900 O.3   241  TYR241     -0.2866
    191  N         34.0790   62.0260  -15.8660 N.3   243  GLU243     -0.1245
    192  CA        32.6310   62.0160  -15.6890 C.3   243  GLU243      0.1567
    193  C         31.9540   62.4350  -16.9700 C.2   243  GLU243      0.2260
    194  O         30.7500   62.2440  -17.1370 O.2   243  GLU243     -0.2867
    195  CB        32.1750   62.9280  -14.5360 C.3   243  GLU243      0.0388
    196  CG        31.2120   62.2210  -13.5540 C.3   243  GLU243      0.1160
    197  CD        29.7560   62.7330  -13.5690 C.2   243  GLU243      0.3649
    198  OE1       28.8570   62.0170  -14.1050 O.co2 243  GLU243     -0.2457
    199  OE2       29.5140   63.8420  -13.0170 O.co2 243  GLU243     -0.2457
    200  N         38.1080   53.3250  -23.1870 N.3   291  VAL291     -0.1245
    201  CA        36.9380   52.4500  -22.9560 C.3   291  VAL291      0.1561
    202  C         35.7950   53.2190  -22.2550 C.2   291  VAL291      0.2260
    203  O         36.0280   54.2350  -21.5850 O.2   291  VAL291     -0.2867
    204  CB        37.3480   51.2290  -22.1110 C.3   291  VAL291      0.0252
    205  CG1       37.6850   51.6600  -20.6920 C.3   291  VAL291      0.0019
    206  CG2       36.2580   50.1800  -22.0810 C.3   291  VAL291      0.0019
    207  N         42.9680   42.4930  -20.0500 N.3   437  MET437     -0.1245
    208  CA        43.8690   43.3210  -19.2480 C.3   437  MET437      0.1570
    209  C         44.8610   42.4800  -18.4180 C.2   437  MET437      0.2261
    210  O         46.0160   42.8520  -18.2440 O.2   437  MET437     -0.2867
    211  CB        43.0630   44.2820  -18.3710 C.3   437  MET437      0.0387
    212  CG        42.3240   45.2970  -19.2180 C.3   437  MET437      0.0595
    213  SD        41.4370   46.5720  -18.3170 S.3   437  MET437     -0.1393
    214  CE        40.1330   45.5650  -17.6210 C.3   437  MET437      0.0692
@<TRIPOS>BOND
     1   200   201    1
     2   201   202    1
     3   201   204    1
     4   202   203    2
     5   204   206    1
     6   204   205    1
     7   207   208    1
     8   208   209    1
     9   208   211    1
    10   212   211    1
    11   212   213    1
    12    59    58    1
    13    11    10    1
    14    11    12    2
    15     9    10    1
    16    10    13    1
    17     2     3    1
    18     2     1    1
    19     2     5    1
    20     3     4    2
    21   209   210    2
    22   213   214    1
    23   177   175   ar
    24   177   178   ar
    25    60    58    1
    26     7     5    1
    27   175   173   ar
    28    58    57    1
    29     6     5    1
    30     6     8    1
    31    13    14    1
    32   178   176   ar
    33   173   172    1
    34   173   174   ar
    35   194   193    2
    36   148   150   ar
    37   148   147   ar
    38   193   192    1
    39   172   169    1
    40   176   174   ar
    41   146   147    1
    42   146   143    1
    43    57    54    1
    44   150   151   ar
    45   147   149   ar
    46    54    55    1
    47    54    53    1
    48   171   170    2
    49    56    55    2
    50   145   144    2
    51   144   143    1
    52   191   192    1
    53   170   169    1
    54   170   179   am
    55   169   168    1
    56   192   195    1
    57   181   180    1
    58   181   182    2
    59    55    61   am
    60   168   165   am
    61   151   149   ar
    62   143   142    1
    63   180   179    1
    64   180   183    1
    65    40    38    1
    66   185   187   ar
    67   185   184   ar
    68   187   189   ar
    69   164   165    1
    70   164   163    1
    71   164   167    1
    72    20    19    1
    73   195   196    1
    74   165   166    2
    75    33    34    1
    76    61    62    1
    77   154   155    2
    78   154   153    1
    79    15    16    1
    80    16    19    1
    81    16    17    1
    82    34    35    1
    83    34    37    1
    84   198   197   ar
    85    38    37    1
    86    38    39    1
    87   189   190    1
    88   189   188   ar
    89   183   184    1
    90   184   186   ar
    91    18    17    2
    92    19    21    1
    93   197   196    1
    94   197   199   ar
    95    36    35    2
    96    62    63    1
    97    62    65    1
    98   156   153    1
    99   156   157    1
   100   152   153    1
   101    35    41   am
   102   188   186   ar
   103    17    22   am
   104   108   109   ar
   105   108   106   ar
   106    63    64    2
   107   158   157    1
   108   158   159    1
   109   109   107   ar
   110   161   160    1
   111    41    42    1
   112    43    44    2
   113    43    42    1
   114   106   104   ar
   115   159   160    2
   116   160   162    1
   117    22    23    1
   118   129   130   ar
   119   129   127   ar
   120   107   105   ar
   121    42    45    1
   122   132   130   ar
   123   132   134   ar
   124    24    25    2
   125    24    23    1
   126   130   128   ar
   127   104   105   ar
   128   104   103    1
   129   127   126   ar
   130    23    26    1
   131   134   133   ar
   132   102   101    2
   133   103   100    1
   134   128   126   ar
   135   128   131   ar
   136   126   125    1
   137   100   101    1
   138   100    99    1
   139    45    46    1
   140    85    86    1
   141    97    95   ar
   142    97    98   ar
   143   133   131   ar
   144   101   110   am
   145    95    92   ar
   146   125   122    1
   147    26    27    1
   148    69    68    2
   149    28    27   ar
   150    28    30   ar
   151   138   137    2
   152    86    89    1
   153    86    87    1
   154    46    47   ar
   155    46    48   ar
   156   110   111    1
   157    98    96   ar
   158    27    29   ar
   159    30    32   ar
   160    47    49   ar
   161    89    90    1
   162    48    50   ar
   163    92    90   ar
   164    92    94   ar
   165   111   112    1
   166   111   114    1
   167   121   122    1
   168   121   112   am
   169    68    67    1
   170   137   136    1
   171   122   123    1
   172   112   113    2
   173    87    88    2
   174   139   136    1
   175   139   141    1
   176   139   140    1
   177   136   135    1
   178    90    91   ar
   179    49    51   ar
   180    72    70    1
   181    29    31   ar
   182    32    31   ar
   183    70    67    1
   184    70    71    1
   185    50    51   ar
   186    96    94   ar
   187    94    93   ar
   188   123   124    2
   189   118   116   ar
   190   118   120   ar
   191   116   115   ar
   192   120   119   ar
   193    67    66    1
   194    51    52    1
   195   115   114    1
   196   115   117   ar
   197   119   117   ar
   198    73    71    1
   199    91    93   ar
   200    84    83   ar
   201    84    82   ar
   202    83    81   ar
   203    82    80   ar
   204    81    79   ar
   205    80    79   ar
   206    79    78    1
   207    78    75    1
   208    75    76    1
   209    75    74    1
   210    77    76    2
