@<TRIPOS>MOLECULE
tmp/4zg9B02.pdb
 230 224 0 0 0
SMALL
GASTEIGER

@<TRIPOS>ATOM
      1  N         45.8930   46.5200  -63.6610 N.3   106  ILE106     -0.1245
      2  CA        44.5560   47.0860  -63.4940 C.3   106  ILE106      0.1561
      3  C         43.5210   45.9850  -63.6670 C.2   106  ILE106      0.2260
      4  O         43.5240   45.2440  -64.6230 O.2   106  ILE106     -0.2867
      5  CB        44.3130   48.1660  -64.5320 C.3   106  ILE106      0.0252
      6  CG1       45.2670   49.3270  -64.2870 C.3   106  ILE106      0.0019
      7  CG2       42.8690   48.6320  -64.5120 C.3   106  ILE106      0.0019
      8  CD1       45.7640   49.9410  -65.5780 C.3   106  ILE106      0.0001
      9  N         39.8380   45.9490  -63.9860 N.3   108  SER108     -0.1217
     10  CA        38.5490   46.6300  -64.1170 C.3   108  SER108      0.1889
     11  C         37.4120   45.6200  -64.0260 C.2   108  SER108      0.2288
     12  O         37.5080   44.5100  -64.5390 O.2   108  SER108     -0.2866
     13  CB        38.4430   47.4370  -65.4210 C.3   108  SER108      0.2089
     14  OG        38.9040   46.6760  -66.5000 O.3   108  SER108     -0.2183
     15  N         31.5270   52.7590  -71.5450 N.3   149  PHE149     -0.1241
     16  CA        32.6140   53.1780  -72.4220 C.3   149  PHE149      0.1605
     17  C         33.1190   54.5410  -72.0830 C.2   149  PHE149      0.2264
     18  O         34.3350   54.7510  -72.0610 O.2   149  PHE149     -0.2867
     19  CB        32.2560   53.0860  -73.8950 C.3   149  PHE149      0.0534
     20  CG        32.0460   51.6870  -74.3830 C.ar  149  PHE149     -0.0203
     21  CD1       32.4750   50.5840  -73.6480 C.ar  149  PHE149     -0.0042
     22  CD2       31.4280   51.4710  -75.5960 C.ar  149  PHE149     -0.0042
     23  CE1       32.2780   49.2960  -74.1100 C.ar  149  PHE149     -0.0003
     24  CE2       31.2320   50.1820  -76.0690 C.ar  149  PHE149     -0.0003
     25  CZ        31.6550   49.0950  -75.3220 C.ar  149  PHE149     -0.0000
     26  N         35.2440   53.7590  -68.8720 N.3   152  LEU152     -0.1231
     27  CA        36.4880   53.0700  -69.1310 C.3   152  LEU152      0.1693
     28  C         37.4980   54.0000  -69.7670 C.2   152  LEU152      0.2592
     29  O         38.6690   53.9410  -69.4600 O.2   152  LEU152     -0.2718
     30  CB        36.2680   51.8800  -70.0420 C.3   152  LEU152      0.0284
     31  CG        36.0040   50.5220  -69.3940 C.3   152  LEU152      0.0019
     32  CD1       35.4340   50.6070  -68.0100 C.3   152  LEU152      0.0001
     33  CD2       35.0400   49.7830  -70.2870 C.3   152  LEU152      0.0001
     34  N         37.0630   54.8450  -70.6860 N.am  153  TYR153     -0.1976
     35  CA        38.0290   55.6360  -71.4460 C.3   153  TYR153      0.1639
     36  C         38.4680   56.8300  -70.5910 C.2   153  TYR153      0.2290
     37  O         39.6360   57.1750  -70.5720 O.2   153  TYR153     -0.2864
     38  CB        37.5240   55.9860  -72.8840 C.3   153  TYR153      0.0560
     39  CG        38.6520   56.2920  -73.8630 C.ar  153  TYR153     -0.0198
     40  CD1       39.7400   55.4480  -74.0000 C.ar  153  TYR153     -0.0009
     41  CD2       38.6590   57.4490  -74.6050 C.ar  153  TYR153     -0.0009
     42  CE1       40.7990   55.7480  -74.8510 C.ar  153  TYR153      0.0417
     43  CE2       39.6960   57.7450  -75.4900 C.ar  153  TYR153      0.0417
     44  CZ        40.7700   56.8910  -75.6100 C.ar  153  TYR153      0.1957
     45  OH        41.8170   57.1910  -76.4770 O.3   153  TYR153     -0.2866
     46  N         38.7160   56.4800  -67.3730 N.3   155  LEU155     -0.1231
     47  CA        39.7260   55.7710  -66.5990 C.3   155  LEU155      0.1693
     48  C         41.1050   55.8340  -67.2620 C.2   155  LEU155      0.2591
     49  O         42.1170   55.9690  -66.5850 O.2   155  LEU155     -0.2718
     50  CB        39.3340   54.2910  -66.3890 C.3   155  LEU155      0.0284
     51  CG        38.8410   53.7080  -65.0540 C.3   155  LEU155      0.0019
     52  CD1       38.5730   54.7440  -63.9720 C.3   155  LEU155      0.0001
     53  CD2       37.5980   52.8790  -65.3020 C.3   155  LEU155      0.0001
     54  N         41.1390   55.7290  -68.5810 N.am  156  ALA156     -0.1980
     55  CA        42.3940   55.5120  -69.3030 C.3   156  ALA156      0.1597
     56  C         43.0860   56.8020  -69.7040 C.2   156  ALA156      0.2287
     57  O         44.2400   56.7610  -70.1020 O.2   156  ALA156     -0.2864
     58  CB        42.1300   54.6810  -70.5550 C.3   156  ALA156      0.0319
     59  N         33.9180   59.9650  -76.3990 N.3   166  ILE166     -0.1245
     60  CA        33.0120   58.8460  -76.1870 C.3   166  ILE166      0.1561
     61  C         31.9600   59.3090  -75.1840 C.2   166  ILE166      0.2260
     62  O         32.0630   59.0550  -73.9990 O.2   166  ILE166     -0.2867
     63  CB        33.7510   57.5610  -75.7280 C.3   166  ILE166      0.0252
     64  CG1       34.9820   57.3150  -76.6080 C.3   166  ILE166      0.0019
     65  CG2       32.8210   56.3480  -75.7880 C.3   166  ILE166      0.0019
     66  CD1       35.6280   55.9700  -76.4230 C.3   166  ILE166      0.0001
     67  N         29.4880   52.3410  -81.3680 N.3   182  LEU182     -0.1245
     68  CA        30.6790   51.7110  -80.8540 C.3   182  LEU182      0.1561
     69  C         30.4760   50.2300  -80.5980 C.2   182  LEU182      0.2260
     70  O         29.6770   49.8350  -79.7530 O.2   182  LEU182     -0.2867
     71  CB        31.1160   52.4050  -79.5650 C.3   182  LEU182      0.0270
     72  CG        32.2460   53.4260  -79.7240 C.3   182  LEU182      0.0019
     73  CD1       31.9060   54.6870  -78.9370 C.3   182  LEU182      0.0001
     74  CD2       33.6020   52.8430  -79.3280 C.3   182  LEU182      0.0001
     75  N         33.4330   48.9310  -79.7130 N.3   184  GLY184     -0.1210
     76  CA        34.8340   49.1070  -79.2650 C.3   184  GLY184      0.1956
     77  C         35.2280   48.0910  -78.2020 C.2   184  GLY184      0.2611
     78  O         36.3970   47.9990  -77.7930 O.2   184  GLY184     -0.2717
     79  N         34.2140   47.3600  -77.7360 N.am  185  ARG185     -0.1979
     80  CA        34.3680   46.0290  -77.1430 C.3   185  ARG185      0.1597
     81  C         35.4600   45.2390  -77.8680 C.2   185  ARG185      0.2287
     82  O         36.4170   44.7720  -77.2400 O.2   185  ARG185     -0.2864
     83  CB        33.0240   45.2920  -77.2290 C.3   185  ARG185      0.0334
     84  CG        32.9110   44.0960  -76.3140 C.3   185  ARG185      0.0492
     85  CD        31.6800   44.1960  -75.4250 C.3   185  ARG185      0.2205
     86  NE        31.7820   43.2350  -74.3260 N.pl3 185  ARG185     -0.0865
     87  CZ        31.1690   42.0510  -74.2660 C.cat 185  ARG185      0.5346
     88  NH1       30.3390   41.6470  -75.2270 N.pl3 185  ARG185      0.1354
     89  NH2       31.3730   41.2640  -73.2130 N.pl3 185  ARG185      0.1354
     90  N         39.1220   49.0140  -80.9080 N.3   188  PHE188     -0.1241
     91  CA        39.2520   50.4130  -80.5920 C.3   188  PHE188      0.1605
     92  C         40.5110   50.9120  -81.2570 C.2   188  PHE188      0.2264
     93  O         41.4800   50.1640  -81.3440 O.2   188  PHE188     -0.2867
     94  CB        39.4140   50.5530  -79.0750 C.3   188  PHE188      0.0534
     95  CG        39.1880   51.9360  -78.5750 C.ar  188  PHE188     -0.0203
     96  CD1       37.9050   52.4550  -78.5180 C.ar  188  PHE188     -0.0042
     97  CD2       40.2500   52.7250  -78.1810 C.ar  188  PHE188     -0.0042
     98  CE1       37.6790   53.7440  -78.0720 C.ar  188  PHE188     -0.0003
     99  CE2       40.0410   54.0090  -77.7350 C.ar  188  PHE188     -0.0003
    100  CZ        38.7510   54.5240  -77.6780 C.ar  188  PHE188     -0.0000
    101  N         48.0680   53.3980  -72.0810 N.3   199  TRP199     -0.1241
    102  CA        48.9380   52.4620  -72.8130 C.3   199  TRP199      0.1605
    103  C         49.7360   53.1870  -73.8950 C.2   199  TRP199      0.2264
    104  O         50.8070   52.7130  -74.3210 O.2   199  TRP199     -0.2867
    105  CB        48.1560   51.2740  -73.4030 C.3   199  TRP199      0.0550
    106  CG        47.0070   51.6570  -74.3310 C.ar  199  TRP199      0.0003
    107  CD1       47.0780   51.9570  -75.6740 C.ar  199  TRP199      0.0946
    108  CD2       45.6180   51.7770  -73.9720 C.ar  199  TRP199      0.0152
    109  NE1       45.8280   52.2820  -76.1530 N.ar  199  TRP199     -0.2442
    110  CE2       44.9160   52.1670  -75.1370 C.ar  199  TRP199      0.0810
    111  CE3       44.9100   51.6290  -72.7680 C.ar  199  TRP199      0.0012
    112  CZ2       43.5520   52.4000  -75.1320 C.ar  199  TRP199      0.0191
    113  CZ3       43.5600   51.8730  -72.7560 C.ar  199  TRP199      0.0001
    114  CH2       42.8870   52.2420  -73.9350 C.ar  199  TRP199      0.0015
    115  N         45.1920   46.0800  -73.1340 N.3   212  PHE212     -0.1227
    116  CA        44.0960   46.5200  -72.2840 C.3   212  PHE212      0.1736
    117  C         42.7650   45.9420  -72.7240 C.2   212  PHE212      0.2595
    118  O         41.7710   46.1580  -72.0640 O.2   212  PHE212     -0.2718
    119  CB        44.0150   48.0530  -72.2670 C.3   212  PHE212      0.0547
    120  CG        44.9970   48.7050  -71.3230 C.ar  212  PHE212     -0.0202
    121  CD1       46.3500   48.4770  -71.4520 C.ar  212  PHE212     -0.0042
    122  CD2       44.5580   49.5290  -70.3010 C.ar  212  PHE212     -0.0042
    123  CE1       47.2390   49.0610  -70.5880 C.ar  212  PHE212     -0.0003
    124  CE2       45.4460   50.1270  -69.4440 C.ar  212  PHE212     -0.0003
    125  CZ        46.7800   49.8950  -69.5890 C.ar  212  PHE212     -0.0000
    126  N         42.7550   45.2110  -73.8320 N.am  213  PHE213     -0.1962
    127  CA        41.5360   44.6600  -74.3690 C.3   213  PHE213      0.1771
    128  C         41.6910   43.1730  -74.5210 C.2   213  PHE213      0.2619
    129  O         42.7900   42.6740  -74.7370 O.2   213  PHE213     -0.2715
    130  CB        41.2370   45.2540  -75.7200 C.3   213  PHE213      0.0574
    131  CG        41.0290   46.7390  -75.6970 C.ar  213  PHE213     -0.0200
    132  CD1       42.1040   47.5990  -75.7440 C.ar  213  PHE213     -0.0042
    133  CD2       39.7580   47.2730  -75.6420 C.ar  213  PHE213     -0.0042
    134  CE1       41.9160   48.9640  -75.7100 C.ar  213  PHE213     -0.0003
    135  CE2       39.5650   48.6380  -75.6280 C.ar  213  PHE213     -0.0003
    136  CZ        40.6470   49.4840  -75.6520 C.ar  213  PHE213     -0.0000
    137  N         40.5760   42.4710  -74.4100 N.am  214  TRP214     -0.1974
    138  CA        40.5390   41.0290  -74.5280 C.3   214  TRP214      0.1640
    139  C         39.3880   40.6130  -75.4300 C.2   214  TRP214      0.2290
    140  O         38.3460   41.2940  -75.5050 O.2   214  TRP214     -0.2864
    141  CB        40.3570   40.3750  -73.1470 C.3   214  TRP214      0.0576
    142  CG        41.4540   40.6740  -72.2030 C.ar  214  TRP214      0.0006
    143  CD1       41.5340   41.7360  -71.3670 C.ar  214  TRP214      0.0946
    144  CD2       42.6420   39.9080  -71.9990 C.ar  214  TRP214      0.0152
    145  NE1       42.6940   41.6800  -70.6500 N.ar  214  TRP214     -0.2442
    146  CE2       43.3950   40.5660  -71.0240 C.ar  214  TRP214      0.0810
    147  CE3       43.1310   38.7180  -72.5350 C.ar  214  TRP214      0.0012
    148  CZ2       44.6170   40.0810  -70.5770 C.ar  214  TRP214      0.0191
    149  CZ3       44.3530   38.2370  -72.0990 C.ar  214  TRP214      0.0001
    150  CH2       45.0790   38.9140  -71.1290 C.ar  214  TRP214      0.0015
    151  N         36.2150   38.4420  -76.2160 N.3   216  VAL216     -0.1245
    152  CA        35.1880   38.0430  -75.2580 C.3   216  VAL216      0.1561
    153  C         35.3010   36.5500  -74.9530 C.2   216  VAL216      0.2260
    154  O         35.1910   36.1280  -73.8060 O.2   216  VAL216     -0.2867
    155  CB        33.7620   38.3690  -75.7480 C.3   216  VAL216      0.0252
    156  CG1       32.8260   38.4920  -74.5500 C.3   216  VAL216      0.0019
    157  CG2       33.7230   39.6600  -76.5840 C.3   216  VAL216      0.0019
    158  N         38.1400   34.2680  -68.3520 N.3   220  HIS220     -0.1241
    159  CA        38.8870   34.9960  -67.3210 C.3   220  HIS220      0.1621
    160  C         40.1680   34.3090  -66.8140 C.2   220  HIS220      0.2264
    161  O         41.2530   34.8970  -66.7830 O.2   220  HIS220     -0.2867
    162  CB        37.9300   35.2440  -66.1700 C.3   220  HIS220      0.0745
    163  CG        36.8800   36.2460  -66.5040 C.ar  220  HIS220      0.0817
    164  ND1       36.0320   36.7820  -65.5630 N.ar  220  HIS220     -0.2268
    165  CD2       36.5840   36.8580  -67.6750 C.ar  220  HIS220      0.1154
    166  CE1       35.2450   37.6700  -66.1440 C.ar  220  HIS220      0.1986
    167  NE2       35.5640   37.7370  -67.4240 N.ar  220  HIS220     -0.2212
    168  N         42.8990   34.5890  -69.1470 N.3   223  ARG223     -0.1245
    169  CA        43.4040   35.9650  -69.1590 C.3   223  ARG223      0.1563
    170  C         44.4060   36.1790  -68.0380 C.2   223  ARG223      0.2260
    171  O         45.4600   36.8000  -68.2240 O.2   223  ARG223     -0.2867
    172  CB        42.2720   36.9690  -69.0050 C.3   223  ARG223      0.0307
    173  CG        41.1880   36.8600  -70.0730 C.3   223  ARG223      0.0489
    174  CD        40.2090   38.0310  -70.0370 C.3   223  ARG223      0.2205
    175  NE        39.0810   37.7920  -70.9270 N.pl3 223  ARG223     -0.0865
    176  CZ        37.9080   38.4250  -70.8920 C.cat 223  ARG223      0.5346
    177  NH1       37.6680   39.3900  -70.0200 N.pl3 223  ARG223      0.1354
    178  NH2       36.9560   38.0850  -71.7550 N.pl3 223  ARG223      0.1354
    179  N         46.2070   45.0830  -68.1660 N.3   243  ALA243     -0.1231
    180  CA        44.8800   45.3100  -67.6880 C.3   243  ALA243      0.1694
    181  C         44.0090   44.1030  -67.9920 C.2   243  ALA243      0.2592
    182  O         44.1410   43.4780  -69.0270 O.2   243  ALA243     -0.2718
    183  CB        44.3250   46.5930  -68.2830 C.3   243  ALA243      0.0304
    184  N         43.1720   43.7670  -67.0240 N.am  244  PHE244     -0.1962
    185  CA        42.1960   42.7100  -67.0990 C.3   244  PHE244      0.1771
    186  C         40.8290   43.4140  -67.0640 C.2   244  PHE244      0.2619
    187  O         40.6810   44.4720  -66.4410 O.2   244  PHE244     -0.2715
    188  CB        42.4050   41.7650  -65.9060 C.3   244  PHE244      0.0574
    189  CG        41.2780   40.7960  -65.6890 C.ar  244  PHE244     -0.0200
    190  CD1       40.1510   41.1700  -64.9970 C.ar  244  PHE244     -0.0042
    191  CD2       41.3490   39.5100  -66.1820 C.ar  244  PHE244     -0.0042
    192  CE1       39.1050   40.2830  -64.8150 C.ar  244  PHE244     -0.0003
    193  CE2       40.3140   38.6270  -66.0100 C.ar  244  PHE244     -0.0003
    194  CZ        39.1910   39.0130  -65.3280 C.ar  244  PHE244     -0.0000
    195  N         39.8410   42.8600  -67.7540 N.am  245  TYR245     -0.1974
    196  CA        38.5120   43.4710  -67.7980 C.3   245  TYR245      0.1639
    197  C         37.4850   42.3980  -67.6260 C.2   245  TYR245      0.2290
    198  O         37.5180   41.4260  -68.3450 O.2   245  TYR245     -0.2864
    199  CB        38.2290   44.1640  -69.1410 C.3   245  TYR245      0.0560
    200  CG        36.7900   44.6420  -69.2500 C.ar  245  TYR245     -0.0198
    201  CD1       36.3790   45.8330  -68.6260 C.ar  245  TYR245     -0.0009
    202  CD2       35.8250   43.8890  -69.9270 C.ar  245  TYR245     -0.0009
    203  CE1       35.0590   46.2800  -68.6970 C.ar  245  TYR245      0.0417
    204  CE2       34.5060   44.3140  -69.9960 C.ar  245  TYR245      0.0417
    205  CZ        34.1170   45.5180  -69.3800 C.ar  245  TYR245      0.1957
    206  OH        32.7940   45.9720  -69.4520 O.3   245  TYR245     -0.2866
    207  N         33.3740   41.6530  -67.7670 N.3   247  GLU247     -0.1245
    208  CA        32.0070   42.1040  -67.9670 C.3   247  GLU247      0.1567
    209  C         31.1060   41.7740  -66.7750 C.2   247  GLU247      0.2260
    210  O         29.9660   42.2340  -66.7120 O.2   247  GLU247     -0.2867
    211  CB        31.3790   41.5650  -69.2420 C.3   247  GLU247      0.0388
    212  CG        30.3490   42.5610  -69.7870 C.3   247  GLU247      0.1160
    213  CD        29.2320   41.9290  -70.6110 C.2   247  GLU247      0.3649
    214  OE1       28.1430   42.5480  -70.6760 O.co2 247  GLU247     -0.2457
    215  OE2       29.4400   40.8340  -71.1980 O.co2 247  GLU247     -0.2457
    216  N         39.3190   48.2210  -59.7000 N.3   295  VAL295     -0.1245
    217  CA        38.5760   49.4150  -60.0710 C.3   295  VAL295      0.1561
    218  C         37.3660   49.0390  -60.9180 C.2   295  VAL295      0.2260
    219  O         37.4130   48.0840  -61.6730 O.2   295  VAL295     -0.2867
    220  CB        39.4870   50.4430  -60.8210 C.3   295  VAL295      0.0252
    221  CG1       39.9920   49.9170  -62.1510 C.3   295  VAL295      0.0019
    222  CG2       38.7440   51.7290  -61.0590 C.3   295  VAL295      0.0019
    223  N         48.0630   56.4260  -62.0650 N.3   451  MET451     -0.1245
    224  CA        48.6500   55.3070  -62.7870 C.3   451  MET451      0.1570
    225  C         49.9020   55.7960  -63.5140 C.2   451  MET451      0.2261
    226  O         50.8760   55.0790  -63.6200 O.2   451  MET451     -0.2867
    227  CB        47.6510   54.6780  -63.7390 C.3   451  MET451      0.0387
    228  CG        46.4770   54.0550  -63.0030 C.3   451  MET451      0.0595
    229  SD        45.2400   53.2270  -64.0290 S.3   451  MET451     -0.1393
    230  CE        44.5790   54.6360  -64.9240 C.3   451  MET451      0.0692
@<TRIPOS>BOND
     1    67    68    1
     2    93    92    2
     3    92    91    1
     4    90    91    1
     5    68    69    1
     6    68    71    1
     7    69    70    2
     8    91    94    1
     9    72    71    1
    10    72    74    1
    11    72    73    1
    12    75    76    1
    13    76    77    1
    14    94    95    1
    15    95    96   ar
    16    95    97   ar
    17    96    98   ar
    18    77    78    2
    19    77    79   am
    20    97    99   ar
    21    98   100   ar
    22    81    82    2
    23    81    80    1
    24    79    80    1
    25    99   100   ar
    26    83    80    1
    27    83    84    1
    28    64    66    1
    29    64    63    1
    30   157   155    1
    31    45    44    1
    32    59    60    1
    33    84    85    1
    34   151   152    1
    35    60    63    1
    36    60    61    1
    37   109   107   ar
    38   109   110   ar
    39    24    22   ar
    40    24    25   ar
    41    65    63    1
    42   155   152    1
    43   155   156    1
    44   132   134   ar
    45   132   131   ar
    46   130   131    1
    47   130   127    1
    48   134   136   ar
    49   131   133   ar
    50   107   106   ar
    51   136   135   ar
    52   133   135   ar
    53    44    43   ar
    54    44    42   ar
    55    22    20   ar
    56   140   139    2
    57    43    41   ar
    58   139   138    1
    59    85    86    1
    60    25    23   ar
    61   152   153    1
    62    88    87    1
    63    61    62    2
    64   110   112   ar
    65   110   108   ar
    66   112   114   ar
    67   153   154    2
    68    42    40   ar
    69   129   128    2
    70    41    39   ar
    71   138   137    1
    72   138   141    1
    73   128   137   am
    74   128   127    1
    75    20    19    1
    76    20    21   ar
    77   127   126    1
    78   106   108   ar
    79   106   105    1
    80    86    87    2
    81   104   103    2
    82    87    89    1
    83    23    21   ar
    84    40    39   ar
    85   108   111   ar
    86   114   113   ar
    87   103   102    1
    88    19    16    1
    89    39    38    1
    90   126   117   am
    91   105   102    1
    92   141   142    1
    93   115   116    1
    94    38    35    1
    95   102   101    1
    96   111   113   ar
    97   117   116    1
    98   117   118    2
    99   147   149   ar
   100   147   144   ar
   101    16    17    1
   102    16    15    1
   103   116   119    1
   104   119   120    1
   105   142   144   ar
   106   142   143   ar
   107   149   150   ar
   108    17    18    2
   109   144   146   ar
   110   178   176    1
   111   121   120   ar
   112   121   123   ar
   113    35    34    1
   114    35    36    1
   115   143   145   ar
   116   120   122   ar
   117   215   213   ar
   118   150   148   ar
   119   146   145   ar
   120   146   148   ar
   121   175   176    2
   122   175   174    1
   123   176   177    1
   124    34    28   am
   125   214   213   ar
   126   213   212    1
   127    36    37    2
   128   123   125   ar
   129    58    55    1
   130   122   124   ar
   131    33    31    1
   132    57    56    2
   133   173   174    1
   134   173   172    1
   135    30    31    1
   136    30    27    1
   137   204   202   ar
   138   204   205   ar
   139   202   200   ar
   140   212   211    1
   141    28    29    2
   142    28    27    1
   143    56    55    1
   144   125   124   ar
   145   206   205    1
   146    31    32    1
   147   205   203   ar
   148    55    54    1
   149   200   199    1
   150   200   201   ar
   151   211   208    1
   152   169   168    1
   153   169   172    1
   154   169   170    1
   155   199   196    1
   156    27    26    1
   157   182   181    2
   158   203   201   ar
   159    54    48   am
   160   158   159    1
   161   198   197    2
   162   183   180    1
   163   171   170    2
   164   179   180    1
   165   181   180    1
   166   181   184   am
   167   208   207    1
   168   208   209    1
   169   196   195    1
   170   196   197    1
   171   195   186   am
   172   165   167   ar
   173   165   163   ar
   174   167   166   ar
   175    46    47    1
   176   159   160    1
   177   159   162    1
   178    48    47    1
   179    48    49    2
   180   185   186    1
   181   185   184    1
   182   185   188    1
   183   186   187    2
   184   160   161    2
   185   209   210    2
   186    47    50    1
   187   163   162    1
   188   163   164   ar
   189    14    13    1
   190    50    51    1
   191   191   193   ar
   192   191   189   ar
   193   166   164   ar
   194   193   194   ar
   195   188   189    1
   196   189   190   ar
   197     8     6    1
   198    13    10    1
   199   194   192   ar
   200    53    51    1
   201    51    52    1
   202   190   192   ar
   203   230   229    1
   204     4     3    2
   205    12    11    2
   206     5     7    1
   207     5     6    1
   208     5     2    1
   209    10    11    1
   210    10     9    1
   211   229   228    1
   212   227   228    1
   213   227   224    1
   214     3     2    1
   215     1     2    1
   216   226   225    2
   217   225   224    1
   218   224   223    1
   219   221   220    1
   220   219   218    2
   221   222   220    1
   222   218   217    1
   223   220   217    1
   224   217   216    1
