@<TRIPOS>MOLECULE
tmp/4zgaA03.pdb
 183 183 0 0 0
SMALL
GASTEIGER

@<TRIPOS>ATOM
      1  N          0.8040   64.3520   14.4530 N.3   101  ILE101     -0.1245
      2  CA         0.0590   64.3020   15.7010 C.3   101  ILE101      0.1561
      3  C          0.1300   65.6380   16.3750 C.2   101  ILE101      0.2260
      4  O          1.2170   66.0800   16.7530 O.2   101  ILE101     -0.2867
      5  CB         0.6300   63.2620   16.6770 C.3   101  ILE101      0.0252
      6  CG1        0.6430   61.8790   16.0200 C.3   101  ILE101      0.0019
      7  CG2       -0.1760   63.2530   17.9790 C.3   101  ILE101      0.0019
      8  CD1        1.9540   61.1530   16.2270 C.3   101  ILE101      0.0001
      9  N         -0.8430   67.2870   19.5910 N.3   103  SER103     -0.1217
     10  CA        -1.2260   66.9540   20.9340 C.3   103  SER103      0.1889
     11  C         -1.1260   68.1930   21.7980 C.2   103  SER103      0.2288
     12  O         -0.2170   69.0320   21.6400 O.2   103  SER103     -0.2866
     13  CB        -0.3390   65.8330   21.4950 C.3   103  SER103      0.2089
     14  OG         0.6160   66.3170   22.4320 O.3   103  SER103     -0.2183
     15  N          0.0930   64.0730   32.7820 N.3   143  THR143     -0.1203
     16  CA         0.6170   64.2520   31.4360 C.3   143  THR143      0.1994
     17  C          1.5030   63.0670   31.0030 C.2   143  THR143      0.2617
     18  O          1.2590   62.4230   29.9420 O.2   143  THR143     -0.2717
     19  CB         1.3420   65.6320   31.3490 C.3   143  THR143      0.1784
     20  OG1        0.3730   66.6550   31.1330 O.3   143  THR143     -0.2211
     21  CG2        2.3200   65.7270   30.2270 C.3   143  THR143      0.0376
     22  N          2.5110   62.7720   31.8270 N.am  144  PHE144     -0.1975
     23  CA         3.5360   61.8020   31.4560 C.3   144  PHE144      0.1639
     24  C          2.9990   60.3810   31.3470 C.2   144  PHE144      0.2290
     25  O          3.3780   59.6420   30.4470 O.2   144  PHE144     -0.2864
     26  CB         4.7210   61.8740   32.4190 C.3   144  PHE144      0.0560
     27  CG         5.8350   62.7750   31.9300 C.ar  144  PHE144     -0.0200
     28  CD1        5.5830   64.1210   31.6280 C.ar  144  PHE144     -0.0042
     29  CD2        7.1230   62.2730   31.7340 C.ar  144  PHE144     -0.0042
     30  CE1        6.5800   64.9280   31.1470 C.ar  144  PHE144     -0.0003
     31  CE2        8.1350   63.0900   31.2580 C.ar  144  PHE144     -0.0003
     32  CZ         7.8610   64.4190   30.9660 C.ar  144  PHE144     -0.0000
     33  N          0.6270   60.5050   27.8530 N.3   147  LEU147     -0.1231
     34  CA         1.4520   60.6300   26.6560 C.3   147  LEU147      0.1693
     35  C          2.1670   59.3560   26.2750 C.2   147  LEU147      0.2592
     36  O          2.1840   58.9870   25.0990 O.2   147  LEU147     -0.2718
     37  CB         2.4930   61.7580   26.8220 C.3   147  LEU147      0.0284
     38  CG         2.2030   63.1610   26.2320 C.3   147  LEU147      0.0019
     39  CD1        0.7450   63.4030   25.8700 C.3   147  LEU147      0.0001
     40  CD2        2.6640   64.2610   27.1680 C.3   147  LEU147      0.0001
     41  N          2.8100   58.6920   27.2300 N.am  148  TYR148     -0.1976
     42  CA         3.5090   57.4430   26.8870 C.3   148  TYR148      0.1639
     43  C          2.4890   56.3390   26.5690 C.2   148  TYR148      0.2290
     44  O          2.7240   55.4390   25.7250 O.2   148  TYR148     -0.2864
     45  CB         4.4540   56.9950   28.0070 C.3   148  TYR148      0.0560
     46  CG         5.6410   56.1650   27.5320 C.ar  148  TYR148     -0.0198
     47  CD1        6.4940   56.6200   26.5340 C.ar  148  TYR148     -0.0009
     48  CD2        5.9130   54.9370   28.1090 C.ar  148  TYR148     -0.0009
     49  CE1        7.5850   55.8630   26.1240 C.ar  148  TYR148      0.0417
     50  CE2        6.9800   54.1680   27.7010 C.ar  148  TYR148      0.0417
     51  CZ         7.8230   54.6340   26.7210 C.ar  148  TYR148      0.1957
     52  OH         8.8910   53.8530   26.3680 O.3   148  TYR148     -0.2866
     53  N         -0.5510   56.8020   25.1360 N.3   150  LEU150     -0.1231
     54  CA        -0.7280   57.1860   23.7420 C.3   150  LEU150      0.1693
     55  C          0.3890   56.6740   22.8100 C.2   150  LEU150      0.2591
     56  O          0.1260   56.1730   21.6950 O.2   150  LEU150     -0.2718
     57  CB        -0.7810   58.7100   23.6450 C.3   150  LEU150      0.0284
     58  CG        -2.1280   59.4000   23.8180 C.3   150  LEU150      0.0019
     59  CD1       -1.8880   60.9000   23.9390 C.3   150  LEU150      0.0001
     60  CD2       -3.0330   59.0520   22.6440 C.3   150  LEU150      0.0001
     61  N          1.6330   56.7930   23.2500 N.am  151  ALA151     -0.1980
     62  CA         2.7510   56.3500   22.4030 C.3   151  ALA151      0.1597
     63  C          2.9570   54.8300   22.3480 C.2   151  ALA151      0.2287
     64  O          3.6760   54.3410   21.4710 O.2   151  ALA151     -0.2864
     65  CB         4.0330   57.0220   22.8410 C.3   151  ALA151      0.0319
     66  N         11.9640   53.4460   30.7790 N.3   188  TRP188     -0.1241
     67  CA        10.9790   53.4760   29.6920 C.3   188  TRP188      0.1605
     68  C         10.7690   52.1240   29.0240 C.2   188  TRP188      0.2264
     69  O         11.6140   51.6480   28.3230 O.2   188  TRP188     -0.2867
     70  CB        11.4760   54.4760   28.6360 C.3   188  TRP188      0.0550
     71  CG        11.6790   55.8560   29.1550 C.ar  188  TRP188      0.0003
     72  CD1       12.8250   56.3820   29.6740 C.ar  188  TRP188      0.0946
     73  CD2       10.6910   56.8940   29.2360 C.ar  188  TRP188      0.0152
     74  NE1       12.6240   57.7000   30.0620 N.ar  188  TRP188     -0.2442
     75  CE2       11.3200   58.0330   29.7990 C.ar  188  TRP188      0.0810
     76  CE3        9.3300   56.9680   28.9030 C.ar  188  TRP188      0.0012
     77  CZ2       10.6350   59.2320   30.0150 C.ar  188  TRP188      0.0191
     78  CZ3        8.6560   58.1580   29.1150 C.ar  188  TRP188      0.0001
     79  CH2        9.3080   59.2800   29.6600 C.ar  188  TRP188      0.0015
     80  N          7.5260   55.9590   17.5810 N.3   194  TRP194     -0.1241
     81  CA         8.7290   56.2920   16.8470 C.3   194  TRP194      0.1605
     82  C          9.6960   55.1010   16.7150 C.2   194  TRP194      0.2264
     83  O         10.3700   54.9430   15.6680 O.2   194  TRP194     -0.2867
     84  CB         9.4120   57.5310   17.4560 C.3   194  TRP194      0.0550
     85  CG         9.7400   57.4970   18.9230 C.ar  194  TRP194      0.0003
     86  CD1       10.9060   57.0930   19.4750 C.ar  194  TRP194      0.0946
     87  CD2        8.9080   57.9320   20.0050 C.ar  194  TRP194      0.0152
     88  NE1       10.8670   57.2320   20.8410 N.ar  194  TRP194     -0.2442
     89  CE2        9.6470   57.7350   21.2010 C.ar  194  TRP194      0.0810
     90  CE3        7.6110   58.4760   20.0830 C.ar  194  TRP194      0.0012
     91  CZ2        9.1380   58.0500   22.4700 C.ar  194  TRP194      0.0191
     92  CZ3        7.0890   58.7860   21.3550 C.ar  194  TRP194      0.0001
     93  CH2        7.8660   58.5700   22.5380 C.ar  194  TRP194      0.0015
     94  N          9.3630   63.6500   18.5020 N.3   207  PHE207     -0.1227
     95  CA         8.1070   63.7150   19.2560 C.3   207  PHE207      0.1736
     96  C          8.1820   64.6420   20.4600 C.2   207  PHE207      0.2595
     97  O          7.1750   64.8760   21.1020 O.2   207  PHE207     -0.2718
     98  CB         7.6850   62.3230   19.7580 C.3   207  PHE207      0.0547
     99  CG         6.9420   61.5070   18.7490 C.ar  207  PHE207     -0.0202
    100  CD1        7.5290   61.1620   17.5490 C.ar  207  PHE207     -0.0042
    101  CD2        5.6590   61.0720   19.0010 C.ar  207  PHE207     -0.0042
    102  CE1        6.8500   60.3890   16.6240 C.ar  207  PHE207     -0.0003
    103  CE2        4.9650   60.2940   18.0800 C.ar  207  PHE207     -0.0003
    104  CZ         5.5650   59.9530   16.8870 C.ar  207  PHE207     -0.0000
    105  N          9.3570   65.1740   20.7630 N.am  208  PHE208     -0.1962
    106  CA         9.5250   66.0990   21.8880 C.3   208  PHE208      0.1771
    107  C         10.1160   67.4410   21.4440 C.2   208  PHE208      0.2619
    108  O         10.9100   67.4990   20.5140 O.2   208  PHE208     -0.2715
    109  CB        10.4450   65.4760   22.9350 C.3   208  PHE208      0.0574
    110  CG        10.0500   64.0910   23.3320 C.ar  208  PHE208     -0.0200
    111  CD1       10.1900   63.0290   22.4400 C.ar  208  PHE208     -0.0042
    112  CD2        9.5430   63.8390   24.5880 C.ar  208  PHE208     -0.0042
    113  CE1        9.8120   61.7400   22.7880 C.ar  208  PHE208     -0.0003
    114  CE2        9.1720   62.5510   24.9430 C.ar  208  PHE208     -0.0003
    115  CZ         9.3130   61.4980   24.0460 C.ar  208  PHE208     -0.0000
    116  N          9.7430   68.5110   22.1360 N.am  209  TRP209     -0.1974
    117  CA        10.1850   69.8570   21.7990 C.3   209  TRP209      0.1640
    118  C         10.5520   70.5950   23.0690 C.2   209  TRP209      0.2290
    119  O          9.7740   70.6100   24.0150 O.2   209  TRP209     -0.2864
    120  CB         9.0530   70.6170   21.1360 C.3   209  TRP209      0.0576
    121  CG         8.5280   69.9910   19.9260 C.ar  209  TRP209      0.0006
    122  CD1        7.5090   69.0800   19.8370 C.ar  209  TRP209      0.0946
    123  CD2        8.9580   70.2540   18.5840 C.ar  209  TRP209      0.0152
    124  NE1        7.2770   68.7560   18.5140 N.ar  209  TRP209     -0.2442
    125  CE2        8.1550   69.4580   17.7260 C.ar  209  TRP209      0.0810
    126  CE3        9.9560   71.0890   18.0210 C.ar  209  TRP209      0.0012
    127  CZ2        8.3320   69.4450   16.3430 C.ar  209  TRP209      0.0191
    128  CZ3       10.1220   71.1000   16.6530 C.ar  209  TRP209      0.0001
    129  CH2        9.3130   70.2720   15.8190 C.ar  209  TRP209      0.0015
    130  N          7.8540   75.4080   15.9510 N.3   218  ARG218     -0.1245
    131  CA         7.6080   73.9470   15.9120 C.3   218  ARG218      0.1563
    132  C          6.8510   73.5380   14.6410 C.2   218  ARG218      0.2260
    133  O          7.2090   72.5710   13.9860 O.2   218  ARG218     -0.2867
    134  CB         6.8420   73.4460   17.1720 C.3   218  ARG218      0.0307
    135  CG         7.5180   73.7710   18.5070 C.3   218  ARG218      0.0489
    136  CD         6.7870   73.2710   19.7550 C.3   218  ARG218      0.2205
    137  NE         7.3310   73.9150   20.9620 N.pl3 218  ARG218     -0.0865
    138  CZ         6.9450   73.6800   22.2180 C.cat 218  ARG218      0.5346
    139  NH1        6.0010   72.7940   22.4890 N.pl3 218  ARG218      0.1354
    140  NH2        7.5150   74.3350   23.2240 N.pl3 218  ARG218      0.1354
    141  N          5.0770   64.5390   15.4970 N.3   238  ALA238     -0.1231
    142  CA         4.2800   65.0650   16.5720 C.3   238  ALA238      0.1694
    143  C          4.6310   66.5160   16.8800 C.2   238  ALA238      0.2592
    144  O          5.7870   66.8610   17.1190 O.2   238  ALA238     -0.2718
    145  CB         4.4560   64.2260   17.8200 C.3   238  ALA238      0.0304
    146  N          3.6080   67.3550   16.8900 N.am  239  PHE239     -0.1962
    147  CA         3.6710   68.6360   17.5560 C.3   239  PHE239      0.1771
    148  C          3.0920   68.4350   18.9600 C.2   239  PHE239      0.2619
    149  O          2.0970   67.7270   19.1540 O.2   239  PHE239     -0.2715
    150  CB         2.8470   69.6940   16.7940 C.3   239  PHE239      0.0574
    151  CG         2.5360   70.9260   17.6140 C.ar  239  PHE239     -0.0200
    152  CD1        3.4770   71.9380   17.7480 C.ar  239  PHE239     -0.0042
    153  CD2        1.3090   71.0630   18.2710 C.ar  239  PHE239     -0.0042
    154  CE1        3.2000   73.0630   18.5030 C.ar  239  PHE239     -0.0003
    155  CE2        1.0320   72.1880   19.0360 C.ar  239  PHE239     -0.0003
    156  CZ         1.9800   73.1850   19.1550 C.ar  239  PHE239     -0.0000
    157  N          3.7080   69.0910   19.9350 N.am  240  TYR240     -0.1974
    158  CA         3.2050   69.0980   21.2970 C.3   240  TYR240      0.1639
    159  C          3.1240   70.5210   21.8120 C.2   240  TYR240      0.2290
    160  O          4.0420   71.3030   21.5480 O.2   240  TYR240     -0.2864
    161  CB         4.1460   68.3430   22.2390 C.3   240  TYR240      0.0560
    162  CG         3.7280   68.4860   23.6880 C.ar  240  TYR240     -0.0198
    163  CD1        2.6470   67.7730   24.1840 C.ar  240  TYR240     -0.0009
    164  CD2        4.3860   69.3650   24.5440 C.ar  240  TYR240     -0.0009
    165  CE1        2.2370   67.9190   25.4960 C.ar  240  TYR240      0.0417
    166  CE2        3.9920   69.5160   25.8690 C.ar  240  TYR240      0.0417
    167  CZ         2.9140   68.7920   26.3420 C.ar  240  TYR240      0.1957
    168  OH         2.5020   68.9090   27.6630 O.3   240  TYR240     -0.2866
    169  N         -5.3770   65.6480   19.4700 N.3   290  VAL290     -0.1245
    170  CA        -5.5150   64.7080   20.5770 C.3   290  VAL290      0.1561
    171  C         -4.9920   65.2990   21.8850 C.2   290  VAL290      0.2260
    172  O         -3.9080   65.8980   21.9130 O.2   290  VAL290     -0.2867
    173  CB        -4.7930   63.3700   20.2500 C.3   290  VAL290      0.0252
    174  CG1       -3.2930   63.5760   20.0770 C.3   290  VAL290      0.0019
    175  CG2       -5.0820   62.3110   21.3220 C.3   290  VAL290      0.0019
    176  N         -2.6330   54.1380   14.7490 N.3   429  MET429     -0.1245
    177  CA        -1.5810   54.9170   14.1440 C.3   429  MET429      0.1570
    178  C         -0.6160   53.9950   13.4220 C.2   429  MET429      0.2261
    179  O         -0.0310   54.3640   12.4000 O.2   429  MET429     -0.2867
    180  CB        -0.8940   55.7640   15.1960 C.3   429  MET429      0.0387
    181  CG        -1.8620   56.6680   15.9290 C.3   429  MET429      0.0595
    182  SD        -1.0360   58.0500   16.7440 S.3   429  MET429     -0.1393
    183  CE        -0.6560   57.3650   18.3440 C.3   429  MET429      0.0692
@<TRIPOS>BOND
     1   179   178    2
     2   178   177    1
     3   133   132    2
     4   177   176    1
     5   177   180    1
     6     1     2    1
     7   132   131    1
     8   180   181    1
     9   141   142    1
    10    83    82    2
    11     2     3    1
    12     2     5    1
    13   129   127   ar
    14   129   128   ar
    15   131   130    1
    16   131   134    1
    17   181   182    1
    18     6     8    1
    19     6     5    1
    20   127   125   ar
    21     3     4    2
    22   142   143    1
    23   142   145    1
    24   102   104   ar
    25   102   100   ar
    26   128   126   ar
    27     5     7    1
    28    82    81    1
    29   182   183    1
    30   150   147    1
    31   150   151    1
    32    81    84    1
    33    81    80    1
    34   143   146   am
    35   143   144    2
    36   104   103   ar
    37   146   147    1
    38   134   135    1
    39    84    85    1
    40   100    99   ar
    41   147   148    1
    42   151   152   ar
    43   151   153   ar
    44   125   124   ar
    45   125   123   ar
    46   152   154   ar
    47   126   123   ar
    48   103   101   ar
    49   153   155   ar
    50    94    95    1
    51   154   156   ar
    52   135   136    1
    53   124   122   ar
    54   123   121   ar
    55    99   101   ar
    56    99    98    1
    57    85    86   ar
    58    85    87   ar
    59   148   149    2
    60   148   157   am
    61   155   156   ar
    62    95    98    1
    63    95    96    1
    64   169   170    1
    65    86    88   ar
    66     9    10    1
    67   136   137    1
    68   122   121   ar
    69   121   120    1
    70   157   158    1
    71    87    90   ar
    72    87    89   ar
    73   174   173    1
    74    90    92   ar
    75   173   170    1
    76   173   175    1
    77    96   105   am
    78    96    97    2
    79   108   107    2
    80   170   171    1
    81   105   106    1
    82    88    89   ar
    83    10    13    1
    84    10    11    1
    85   137   138    2
    86   120   117    1
    87    89    91   ar
    88   158   159    1
    89   158   161    1
    90    92    93   ar
    91   107   106    1
    92   107   116   am
    93    64    63    2
    94    13    14    1
    95   160   159    2
    96    12    11    2
    97    56    55    2
    98   117   116    1
    99   117   118    1
   100   171   172    2
   101   106   109    1
   102   138   139    1
   103   138   140    1
   104   161   162    1
   105    63    62    1
   106    62    65    1
   107    62    61    1
   108   111   113   ar
   109   111   110   ar
   110    91    93   ar
   111    60    58    1
   112   113   115   ar
   113    55    61   am
   114    55    54    1
   115   109   110    1
   116   118   119    2
   117   110   112   ar
   118    57    54    1
   119    57    58    1
   120   162   163   ar
   121   162   164   ar
   122    54    53    1
   123    58    59    1
   124   115   114   ar
   125   163   165   ar
   126   164   166   ar
   127   112   114   ar
   128    36    35    2
   129   165   167   ar
   130    44    43    2
   131   166   167   ar
   132    39    38    1
   133    49    47   ar
   134    49    51   ar
   135    38    37    1
   136    38    40    1
   137    35    34    1
   138    35    41   am
   139   167   168    1
   140    52    51    1
   141    47    46   ar
   142    43    42    1
   143    34    37    1
   144    34    33    1
   145    51    50   ar
   146    42    41    1
   147    42    45    1
   148    46    45    1
   149    46    48   ar
   150    50    48   ar
   151    69    68    2
   152    70    71    1
   153    70    67    1
   154    76    78   ar
   155    76    73   ar
   156    68    67    1
   157    78    79   ar
   158    71    73   ar
   159    71    72   ar
   160    73    75   ar
   161    79    77   ar
   162    72    74   ar
   163    67    66    1
   164    75    77   ar
   165    75    74   ar
   166    18    17    2
   167    21    19    1
   168    25    24    2
   169    32    30   ar
   170    32    31   ar
   171    17    16    1
   172    17    22   am
   173    20    19    1
   174    30    28   ar
   175    31    29   ar
   176    24    23    1
   177    19    16    1
   178    16    15    1
   179    23    22    1
   180    23    26    1
   181    28    27   ar
   182    29    27   ar
   183    27    26    1
