@<TRIPOS>MOLECULE
tmp/4zgaA02.pdb
 194 196 0 0 0
SMALL
GASTEIGER

@<TRIPOS>ATOM
      1  N         15.8700   69.0440   20.6940 N.3    16  LEU16      -0.1245
      2  CA        16.0250   68.7400   22.1280 C.3    16  LEU16       0.1561
      3  C         17.2990   69.3240   22.7450 C.2    16  LEU16       0.2260
      4  O         17.5670   69.1330   23.9410 O.2    16  LEU16      -0.2867
      5  CB        16.0230   67.2290   22.3610 C.3    16  LEU16       0.0270
      6  CG        14.6710   66.5460   22.1870 C.3    16  LEU16       0.0019
      7  CD1       14.8560   65.0350   22.0880 C.3    16  LEU16       0.0001
      8  CD2       13.7220   66.9240   23.3220 C.3    16  LEU16       0.0001
      9  N         17.1210   71.0640   26.0660 N.3    19  SER19      -0.1202
     10  CA        16.7780   70.1560   27.1240 C.3    19  SER19       0.2020
     11  C         17.9820   69.4310   27.6610 C.2    19  SER19       0.2618
     12  O         17.9170   68.8360   28.7170 O.2    19  SER19      -0.2717
     13  CB        15.7500   69.1710   26.6210 C.3    19  SER19       0.2103
     14  OG        14.5760   69.8670   26.2870 O.3    19  SER19      -0.2182
     15  N         19.0870   69.4860   26.9430 N.am   20  TYR20      -0.1975
     16  CA        20.2660   68.7660   27.3780 C.3    20  TYR20       0.1639
     17  C         21.3850   69.7070   27.6620 C.2    20  TYR20       0.2290
     18  O         22.4860   69.2840   27.9400 O.2    20  TYR20      -0.2864
     19  CB        20.7550   67.8320   26.3030 C.3    20  TYR20       0.0560
     20  CG        19.9390   66.6010   26.0920 C.ar   20  TYR20      -0.0198
     21  CD1       18.7070   66.6570   25.4880 C.ar   20  TYR20      -0.0009
     22  CD2       20.4260   65.3770   26.4570 C.ar   20  TYR20      -0.0009
     23  CE1       17.9790   65.5170   25.2720 C.ar   20  TYR20       0.0417
     24  CE2       19.7050   64.2350   26.2500 C.ar   20  TYR20       0.0417
     25  CZ        18.4860   64.3140   25.6570 C.ar   20  TYR20       0.1957
     26  OH        17.7890   63.1650   25.4600 O.3    20  TYR20      -0.2866
     27  N          2.5110   62.7720   31.8270 N.3   144  PHE144     -0.1241
     28  CA         3.5360   61.8020   31.4560 C.3   144  PHE144      0.1605
     29  C          2.9990   60.3810   31.3470 C.2   144  PHE144      0.2264
     30  O          3.3780   59.6420   30.4470 O.2   144  PHE144     -0.2867
     31  CB         4.7210   61.8740   32.4190 C.3   144  PHE144      0.0534
     32  CG         5.8350   62.7750   31.9300 C.ar  144  PHE144     -0.0203
     33  CD1        5.5830   64.1210   31.6280 C.ar  144  PHE144     -0.0042
     34  CD2        7.1230   62.2730   31.7340 C.ar  144  PHE144     -0.0042
     35  CE1        6.5800   64.9280   31.1470 C.ar  144  PHE144     -0.0003
     36  CE2        8.1350   63.0900   31.2580 C.ar  144  PHE144     -0.0003
     37  CZ         7.8610   64.4190   30.9660 C.ar  144  PHE144     -0.0000
     38  N          2.8100   58.6920   27.2300 N.3   148  TYR148     -0.1241
     39  CA         3.5090   57.4430   26.8870 C.3   148  TYR148      0.1605
     40  C          2.4890   56.3390   26.5690 C.2   148  TYR148      0.2264
     41  O          2.7240   55.4390   25.7250 O.2   148  TYR148     -0.2867
     42  CB         4.4540   56.9950   28.0070 C.3   148  TYR148      0.0534
     43  CG         5.6410   56.1650   27.5320 C.ar  148  TYR148     -0.0201
     44  CD1        6.4940   56.6200   26.5340 C.ar  148  TYR148     -0.0009
     45  CD2        5.9130   54.9370   28.1090 C.ar  148  TYR148     -0.0009
     46  CE1        7.5850   55.8630   26.1240 C.ar  148  TYR148      0.0417
     47  CE2        6.9800   54.1680   27.7010 C.ar  148  TYR148      0.0417
     48  CZ         7.8230   54.6340   26.7210 C.ar  148  TYR148      0.1957
     49  OH         8.8910   53.8530   26.3680 O.3   148  TYR148     -0.2866
     50  N         10.8470   67.8340   36.5970 N.3   178  ARG178     -0.1231
     51  CA        12.0450   68.6360   36.5400 C.3   178  ARG178      0.1694
     52  C         13.1840   67.7360   37.0430 C.2   178  ARG178      0.2593
     53  O         13.0560   67.1100   38.0970 O.2   178  ARG178     -0.2718
     54  CB        11.8870   69.9180   37.3720 C.3   178  ARG178      0.0321
     55  CG        10.6570   70.7660   37.0420 C.3   178  ARG178      0.0489
     56  CD        10.9620   71.8500   36.0170 C.3   178  ARG178      0.2205
     57  NE        11.2660   71.3040   34.6980 N.pl3 178  ARG178     -0.0865
     58  CZ        10.3570   70.8510   33.8470 C.cat 178  ARG178      0.5346
     59  NH1        9.0730   70.8820   34.1680 N.pl3 178  ARG178      0.1354
     60  NH2       10.7240   70.3930   32.6600 N.pl3 178  ARG178      0.1354
     61  N         14.2750   67.6550   36.2750 N.am  179  GLY179     -0.1942
     62  CA        15.4750   66.8860   36.6590 C.3   179  GLY179      0.2014
     63  C         16.1230   66.2340   35.4510 C.2   179  GLY179      0.2638
     64  O         15.6130   66.3600   34.3350 O.2   179  GLY179     -0.2714
     65  N         17.2450   65.5420   35.6470 N.am  180  ARG180     -0.1977
     66  CA        17.9210   64.8830   34.5250 C.3   180  ARG180      0.1597
     67  C         17.6940   63.3500   34.5480 C.2   180  ARG180      0.2287
     68  O         18.0720   62.6210   33.6160 O.2   180  ARG180     -0.2864
     69  CB        19.4210   65.2580   34.5150 C.3   180  ARG180      0.0334
     70  CG        19.6570   66.7450   34.2680 C.3   180  ARG180      0.0492
     71  CD        19.1650   67.2580   32.9180 C.3   180  ARG180      0.2205
     72  NE        19.7550   66.4660   31.8290 N.pl3 180  ARG180     -0.0865
     73  CZ        20.9310   66.6800   31.3050 C.cat 180  ARG180      0.5346
     74  NH1       21.6790   67.7120   31.6820 N.pl3 180  ARG180      0.1354
     75  NH2       21.4250   65.8880   30.3800 N.pl3 180  ARG180      0.1354
     76  N         14.8740   61.5210   34.4180 N.3   182  LYS182     -0.1231
     77  CA        13.9110   61.0760   33.4000 C.3   182  LYS182      0.1693
     78  C         14.5470   60.6640   32.0610 C.2   182  LYS182      0.2592
     79  O         14.0080   59.7950   31.3250 O.2   182  LYS182     -0.2718
     80  CB        12.8820   62.1970   33.1460 C.3   182  LYS182      0.0285
     81  CG        13.3080   63.2330   32.1150 C.3   182  LYS182      0.0035
     82  CD        12.4870   64.5100   32.1370 C.3   182  LYS182      0.0206
     83  CE        13.2280   65.5750   32.9090 C.3   182  LYS182      0.1093
     84  NZ        12.6950   66.9310   32.6370 N.3   182  LYS182     -0.1314
     85  N         15.6750   61.3030   31.7440 N.am  183  PHE183     -0.1976
     86  CA        16.3740   61.0440   30.4950 C.3   183  PHE183      0.1639
     87  C         16.9510   59.6360   30.3770 C.2   183  PHE183      0.2290
     88  O         17.2000   59.1720   29.2660 O.2   183  PHE183     -0.2864
     89  CB        17.4670   62.1070   30.2390 C.3   183  PHE183      0.0560
     90  CG        16.9170   63.4760   29.9330 C.ar  183  PHE183     -0.0200
     91  CD1       16.5950   63.8400   28.6310 C.ar  183  PHE183     -0.0042
     92  CD2       16.7100   64.3960   30.9400 C.ar  183  PHE183     -0.0042
     93  CE1       16.0800   65.0980   28.3540 C.ar  183  PHE183     -0.0003
     94  CE2       16.1810   65.6500   30.6690 C.ar  183  PHE183     -0.0003
     95  CZ        15.8660   66.0020   29.3750 C.ar  183  PHE183     -0.0000
     96  N         17.2050   55.8390   29.9010 N.3   185  HIS185     -0.1241
     97  CA        16.2710   55.0620   29.1530 C.3   185  HIS185      0.1621
     98  C         15.6440   53.9860   30.0380 C.2   185  HIS185      0.2264
     99  O         14.4880   53.6240   29.8560 O.2   185  HIS185     -0.2867
    100  CB        16.9450   54.4750   27.9350 C.3   185  HIS185      0.0745
    101  CG        17.8710   53.3410   28.2350 C.ar  185  HIS185      0.0817
    102  ND1       19.2390   53.4940   28.2860 N.ar  185  HIS185     -0.2268
    103  CD2       17.6270   52.0280   28.4690 C.ar  185  HIS185      0.1154
    104  CE1       19.7990   52.3260   28.5470 C.ar  185  HIS185      0.1986
    105  NE2       18.8410   51.4220   28.6670 N.ar  185  HIS185     -0.2212
    106  N         11.9640   53.4460   30.7790 N.3   188  TRP188     -0.1227
    107  CA        10.9790   53.4760   29.6920 C.3   188  TRP188      0.1737
    108  C         10.7690   52.1240   29.0240 C.2   188  TRP188      0.2596
    109  O         11.6140   51.6480   28.3230 O.2   188  TRP188     -0.2718
    110  CB        11.4760   54.4760   28.6360 C.3   188  TRP188      0.0564
    111  CG        11.6790   55.8560   29.1550 C.ar  188  TRP188      0.0003
    112  CD1       12.8250   56.3820   29.6740 C.ar  188  TRP188      0.0946
    113  CD2       10.6910   56.8940   29.2360 C.ar  188  TRP188      0.0152
    114  NE1       12.6240   57.7000   30.0620 N.ar  188  TRP188     -0.2442
    115  CE2       11.3200   58.0330   29.7990 C.ar  188  TRP188      0.0810
    116  CE3        9.3300   56.9680   28.9030 C.ar  188  TRP188      0.0012
    117  CZ2       10.6350   59.2320   30.0150 C.ar  188  TRP188      0.0191
    118  CZ3        8.6560   58.1580   29.1150 C.ar  188  TRP188      0.0001
    119  CH2        9.3080   59.2800   29.6600 C.ar  188  TRP188      0.0015
    120  N          9.6340   51.4870   29.2140 N.am  189  GLY189     -0.1942
    121  CA         9.4030   50.1850   28.5740 C.3   189  GLY189      0.2014
    122  C          8.5800   50.3100   27.3110 C.2   189  GLY189      0.2639
    123  O          8.6340   51.3430   26.6470 O.2   189  GLY189     -0.2714
    124  N          7.8120   49.2490   27.0060 N.am  190  GLY190     -0.1954
    125  CA         7.0220   49.1280   25.7800 C.3   190  GLY190      0.1869
    126  C          7.8340   49.3590   24.5200 C.2   190  GLY190      0.2309
    127  O          9.0430   49.1780   24.5230 O.2   190  GLY190     -0.2863
    128  N          7.6360   52.7000   22.0260 N.3   192  PRO192     -0.2116
    129  CA         6.9080   53.8880   21.5820 C.3   192  PRO192      0.1372
    130  C          6.8030   53.9210   20.0560 C.2   192  PRO192      0.2244
    131  O          7.4670   53.1320   19.3820 O.2   192  PRO192     -0.2868
    132  CB         7.7670   55.0390   22.1140 C.3   192  PRO192      0.0268
    133  CG         9.1470   54.4820   22.1190 C.3   192  PRO192      0.0207
    134  CD         8.9600   53.0520   22.5590 C.3   192  PRO192      0.0892
    135  N          7.5260   55.9590   17.5810 N.3   194  TRP194     -0.1227
    136  CA         8.7290   56.2920   16.8470 C.3   194  TRP194      0.1737
    137  C          9.6960   55.1010   16.7150 C.2   194  TRP194      0.2595
    138  O         10.3700   54.9430   15.6680 O.2   194  TRP194     -0.2718
    139  CB         9.4120   57.5310   17.4560 C.3   194  TRP194      0.0564
    140  CG         9.7400   57.4970   18.9230 C.ar  194  TRP194      0.0003
    141  CD1       10.9060   57.0930   19.4750 C.ar  194  TRP194      0.0946
    142  CD2        8.9080   57.9320   20.0050 C.ar  194  TRP194      0.0152
    143  NE1       10.8670   57.2320   20.8410 N.ar  194  TRP194     -0.2442
    144  CE2        9.6470   57.7350   21.2010 C.ar  194  TRP194      0.0810
    145  CE3        7.6110   58.4760   20.0830 C.ar  194  TRP194      0.0012
    146  CZ2        9.1380   58.0500   22.4700 C.ar  194  TRP194      0.0191
    147  CZ3        7.0890   58.7860   21.3550 C.ar  194  TRP194      0.0001
    148  CH2        7.8660   58.5700   22.5380 C.ar  194  TRP194      0.0015
    149  N          9.7620   54.2430   17.7410 N.am  195  ILE195     -0.1980
    150  CA        10.6690   53.1070   17.6590 C.3   195  ILE195      0.1595
    151  C         10.0870   52.0590   16.7300 C.2   195  ILE195      0.2287
    152  O         10.8080   51.5190   15.9090 O.2   195  ILE195     -0.2864
    153  CB        11.0400   52.5400   19.0390 C.3   195  ILE195      0.0276
    154  CG1       11.8370   53.5850   19.8390 C.3   195  ILE195      0.0022
    155  CG2       11.8710   51.2690   18.9240 C.3   195  ILE195      0.0022
    156  CD1       13.2030   53.9050   19.2820 C.3   195  ILE195      0.0001
    157  N          9.3570   65.1740   20.7630 N.3   208  PHE208     -0.1227
    158  CA         9.5250   66.0990   21.8880 C.3   208  PHE208      0.1736
    159  C         10.1160   67.4410   21.4440 C.2   208  PHE208      0.2595
    160  O         10.9100   67.4990   20.5140 O.2   208  PHE208     -0.2718
    161  CB        10.4450   65.4760   22.9350 C.3   208  PHE208      0.0547
    162  CG        10.0500   64.0910   23.3320 C.ar  208  PHE208     -0.0202
    163  CD1       10.1900   63.0290   22.4400 C.ar  208  PHE208     -0.0042
    164  CD2        9.5430   63.8390   24.5880 C.ar  208  PHE208     -0.0042
    165  CE1        9.8120   61.7400   22.7880 C.ar  208  PHE208     -0.0003
    166  CE2        9.1720   62.5510   24.9430 C.ar  208  PHE208     -0.0003
    167  CZ         9.3130   61.4980   24.0460 C.ar  208  PHE208     -0.0000
    168  N          9.7430   68.5110   22.1360 N.am  209  TRP209     -0.1962
    169  CA        10.1850   69.8570   21.7990 C.3   209  TRP209      0.1771
    170  C         10.5520   70.5950   23.0690 C.2   209  TRP209      0.2620
    171  O          9.7740   70.6100   24.0150 O.2   209  TRP209     -0.2715
    172  CB         9.0530   70.6170   21.1360 C.3   209  TRP209      0.0590
    173  CG         8.5280   69.9910   19.9260 C.ar  209  TRP209      0.0006
    174  CD1        7.5090   69.0800   19.8370 C.ar  209  TRP209      0.0946
    175  CD2        8.9580   70.2540   18.5840 C.ar  209  TRP209      0.0152
    176  NE1        7.2770   68.7560   18.5140 N.ar  209  TRP209     -0.2442
    177  CE2        8.1550   69.4580   17.7260 C.ar  209  TRP209      0.0810
    178  CE3        9.9560   71.0890   18.0210 C.ar  209  TRP209      0.0012
    179  CZ2        8.3320   69.4450   16.3430 C.ar  209  TRP209      0.0191
    180  CZ3       10.1220   71.1000   16.6530 C.ar  209  TRP209      0.0001
    181  CH2        9.3130   70.2720   15.8190 C.ar  209  TRP209      0.0015
    182  N         11.7110   71.2370   23.0920 N.am  210  SER210     -0.1936
    183  CA        12.1390   71.9480   24.2780 C.3   210  SER210      0.2055
    184  C         11.2290   73.1090   24.5510 C.2   210  SER210      0.2642
    185  O         10.5570   73.6110   23.6480 O.2   210  SER210     -0.2714
    186  CB        13.5710   72.4420   24.1460 C.3   210  SER210      0.2130
    187  OG        14.4780   71.5360   24.7480 O.3   210  SER210     -0.2179
    188  N         11.2420   73.5420   25.8090 N.am  211  VAL211     -0.1977
    189  CA        10.3700   74.6200   26.3090 C.3   211  VAL211      0.1596
    190  C         10.5080   75.9020   25.4810 C.2   211  VAL211      0.2287
    191  O          9.5180   76.5460   25.1470 O.2   211  VAL211     -0.2864
    192  CB        10.7080   74.9820   27.7790 C.3   211  VAL211      0.0276
    193  CG1        9.5500   75.7420   28.4100 C.3   211  VAL211      0.0022
    194  CG2       11.0280   73.7360   28.6030 C.3   211  VAL211      0.0022
@<TRIPOS>BOND
     1   138   137    2
     2   181   179   ar
     3   181   180   ar
     4   152   151    2
     5   179   177   ar
     6   180   178   ar
     7   137   136    1
     8   137   149   am
     9   151   150    1
    10   136   139    1
    11   136   135    1
    12   139   140    1
    13   150   149    1
    14   150   153    1
    15   177   176   ar
    16   177   175   ar
    17   178   175   ar
    18   176   174   ar
    19   175   173   ar
    20   140   141   ar
    21   140   142   ar
    22   155   153    1
    23   153   154    1
    24   156   154    1
    25   131   130    2
    26   141   143   ar
    27   174   173   ar
    28   173   172    1
    29   142   145   ar
    30   142   144   ar
    31   130   129    1
    32   145   147   ar
    33   160   159    2
    34     1     2    1
    35   157   158    1
    36   143   144   ar
    37   172   169    1
    38   144   146   ar
    39   147   148   ar
    40   159   158    1
    41   159   168   am
    42   129   128    1
    43   129   132    1
    44   169   168    1
    45   169   170    1
    46   158   161    1
    47   128   134    1
    48     7     6    1
    49   132   133    1
    50   133   134    1
    51     2     5    1
    52     2     3    1
    53     6     5    1
    54     6     8    1
    55   163   165   ar
    56   163   162   ar
    57   146   148   ar
    58     3     4    2
    59   165   167   ar
    60   161   162    1
    61   170   182   am
    62   170   171    2
    63   182   183    1
    64   162   164   ar
    65   185   184    2
    66   167   166   ar
    67   186   183    1
    68   186   187    1
    69   183   184    1
    70   126   127    2
    71   126   125    1
    72   184   188   am
    73   164   166   ar
    74   191   190    2
    75    23    21   ar
    76    23    25   ar
    77    26    25    1
    78   190   189    1
    79    21    20   ar
    80    25    24   ar
    81    41    40    2
    82   125   124    1
    83   188   189    1
    84     9    10    1
    85    20    19    1
    86    20    22   ar
    87    46    44   ar
    88    46    48   ar
    89    24    22   ar
    90    14    13    1
    91    19    16    1
    92   189   192    1
    93    49    48    1
    94    44    43   ar
    95    40    39    1
    96    13    10    1
    97   123   122    2
    98    48    47   ar
    99    39    38    1
   100    39    42    1
   101    15    16    1
   102    15    11   am
   103   124   122   am
   104    10    11    1
   105   122   121    1
   106    16    17    1
   107    43    42    1
   108    43    45   ar
   109    11    12    2
   110    17    18    2
   111    47    45   ar
   112   192   193    1
   113   192   194    1
   114   100   101    1
   115   100    97    1
   116   101   102   ar
   117   101   103   ar
   118   102   104   ar
   119   109   108    2
   120    93    91   ar
   121    93    95   ar
   122   103   105   ar
   123   104   105   ar
   124   121   120    1
   125    91    90   ar
   126   110   111    1
   127   110   107    1
   128   116   118   ar
   129   116   113   ar
   130   108   120   am
   131   108   107    1
   132   118   119   ar
   133    97    96    1
   134    97    98    1
   135   111   113   ar
   136   111   112   ar
   137   113   115   ar
   138    88    87    2
   139    95    94   ar
   140   119   117   ar
   141   112   114   ar
   142   107   106    1
   143   115   117   ar
   144   115   114   ar
   145    99    98    2
   146    90    89    1
   147    90    92   ar
   148    89    86    1
   149    87    86    1
   150    75    73    1
   151    30    29    2
   152    86    85    1
   153    94    92   ar
   154    37    35   ar
   155    37    36   ar
   156    35    33   ar
   157    36    34   ar
   158    73    74    1
   159    73    72    2
   160    79    78    2
   161    29    28    1
   162    28    27    1
   163    28    31    1
   164    33    32   ar
   165    34    32   ar
   166    85    78   am
   167    72    71    1
   168    32    31    1
   169    78    77    1
   170    81    82    1
   171    81    80    1
   172    82    83    1
   173    84    83    1
   174    60    58    1
   175    71    70    1
   176    80    77    1
   177    77    76    1
   178    68    67    2
   179    58    59    1
   180    58    57    2
   181    70    69    1
   182    64    63    2
   183    69    66    1
   184    66    67    1
   185    66    65    1
   186    57    56    1
   187    63    65   am
   188    63    62    1
   189    56    55    1
   190    61    62    1
   191    61    52   am
   192    51    50    1
   193    51    52    1
   194    51    54    1
   195    55    54    1
   196    52    53    2
