@<TRIPOS>MOLECULE
tmp/4zgfA00.pdb
 95 95 0 0 0
SMALL
GASTEIGER

@<TRIPOS>ATOM
      1  N         32.4390   18.1690  -18.1210 N.3    22  TRP22      -0.1227
      2  CA        31.6030   17.8550  -16.9730 C.3    22  TRP22       0.1737
      3  C         31.9010   18.7360  -15.7710 C.2    22  TRP22       0.2595
      4  O         30.9800   19.2100  -15.0920 O.2    22  TRP22      -0.2718
      5  CB        31.7720   16.3680  -16.6420 C.3    22  TRP22       0.0564
      6  CG        30.9390   15.8850  -15.5150 C.ar   22  TRP22       0.0003
      7  CD1       31.3870   15.4070  -14.3220 C.ar   22  TRP22       0.0946
      8  CD2       29.5050   15.7580  -15.4750 C.ar   22  TRP22       0.0152
      9  NE1       30.3380   14.9790  -13.5500 N.ar   22  TRP22      -0.2442
     10  CE2       29.1690   15.2030  -14.2270 C.ar   22  TRP22       0.0810
     11  CE3       28.4760   16.0810  -16.3540 C.ar   22  TRP22       0.0012
     12  CZ2       27.8420   14.9640  -13.8470 C.ar   22  TRP22       0.0191
     13  CZ3       27.1610   15.8520  -15.9690 C.ar   22  TRP22       0.0001
     14  CH2       26.8470   15.3200  -14.7280 C.ar   22  TRP22       0.0015
     15  N         33.2120   18.9650  -15.5450 N.am   23  ASP23      -0.1974
     16  CA        33.7000   19.8150  -14.4460 C.3    23  ASP23       0.1709
     17  C         32.9050   21.1430  -14.4490 C.2    23  ASP23       0.2293
     18  O         32.6300   21.7160  -13.3780 O.2    23  ASP23      -0.2864
     19  CB        35.2150   20.1540  -14.5750 C.3    23  ASP23       0.1436
     20  CG        36.1940   19.0370  -14.1630 C.2    23  ASP23       0.3671
     21  OD1       35.7820   17.9850  -13.6180 O.co2  23  ASP23      -0.2456
     22  OD2       37.4320   19.2900  -14.3900 O.co2  23  ASP23      -0.2456
     23  N         24.8920   11.1150   -2.1410 N.3    82  GLY82      -0.1210
     24  CA        25.2530   12.5040   -2.1490 C.3    82  GLY82       0.1956
     25  C         26.6720   12.7860   -1.7120 C.2    82  GLY82       0.2612
     26  O         27.1400   13.9270   -1.8320 O.2    82  GLY82      -0.2717
     27  N         27.3600   11.7730   -1.1950 N.am   83  LYS83      -0.1965
     28  CA        28.7380   11.9440   -0.7580 C.3    83  LYS83       0.1728
     29  C         29.6920   12.0150   -1.9420 C.2    83  LYS83       0.2616
     30  O         30.7480   12.6510   -1.8360 O.2    83  LYS83      -0.2715
     31  CB        29.1400   10.8460    0.2130 C.3    83  LYS83       0.0311
     32  CG        28.1890   10.7290    1.4300 C.3    83  LYS83       0.0038
     33  CD        28.5890    9.7050    2.4710 C.3    83  LYS83       0.0206
     34  CE        28.8360    8.3140    1.9270 C.3    83  LYS83       0.1093
     35  NZ        27.6010    7.7160    1.3620 N.3    83  LYS83      -0.1314
     36  N         29.3560   11.3310   -3.0330 N.am   84  ASP84      -0.1957
     37  CA        30.1780   11.3450   -4.2360 C.3    84  ASP84       0.1840
     38  C         29.4040   11.7430   -5.4920 C.2    84  ASP84       0.2621
     39  O         29.9380   11.7180   -6.6040 O.2    84  ASP84      -0.2715
     40  CB        30.9240   10.0500   -4.4200 C.3    84  ASP84       0.1450
     41  CG        30.0330    8.8650   -4.4570 C.2    84  ASP84       0.3671
     42  OD1       28.8210    9.0360   -4.5810 O.co2  84  ASP84      -0.2456
     43  OD2       30.5300    7.7090   -4.3200 O.co2  84  ASP84      -0.2456
     44  N         28.1590   12.1440   -5.3210 N.am   85  ARG85      -0.1977
     45  CA        27.2870   12.5450   -6.4370 C.3    85  ARG85       0.1597
     46  C         27.1890   11.4790   -7.5300 C.2    85  ARG85       0.2287
     47  O         27.3380   11.7280   -8.7250 O.2    85  ARG85      -0.2864
     48  CB        27.6070   13.9450   -6.9670 C.3    85  ARG85       0.0334
     49  CG        27.2580   15.0180   -5.9710 C.3    85  ARG85       0.0492
     50  CD        27.4550   16.4210   -6.5320 C.3    85  ARG85       0.2205
     51  NE        28.8730   16.7140   -6.6830 N.pl3  85  ARG85      -0.0865
     52  CZ        29.3610   17.7270   -7.4190 C.cat  85  ARG85       0.5346
     53  NH1       28.5410   18.5280   -8.0910 N.pl3  85  ARG85       0.1354
     54  NH2       30.6790   17.9370   -7.4660 N.pl3  85  ARG85       0.1354
     55  N         26.9510    9.5680  -12.6980 N.3   113  PHE113     -0.1227
     56  CA        27.2410   10.8070  -12.0110 C.3   113  PHE113      0.1736
     57  C         26.0990   11.7930  -12.2260 C.2   113  PHE113      0.2595
     58  O         25.4820   11.7990  -13.2940 O.2   113  PHE113     -0.2718
     59  CB        28.5380   11.4260  -12.5400 C.3   113  PHE113      0.0547
     60  CG        29.7280   10.5300  -12.4160 C.ar  113  PHE113     -0.0202
     61  CD1       30.1460   10.0690  -11.1790 C.ar  113  PHE113     -0.0042
     62  CD2       30.4040   10.0900  -13.5480 C.ar  113  PHE113     -0.0042
     63  CE1       31.2350    9.2340  -11.0570 C.ar  113  PHE113     -0.0003
     64  CE2       31.5000    9.2550  -13.4100 C.ar  113  PHE113     -0.0003
     65  CZ        31.8890    8.8310  -12.1880 C.ar  113  PHE113     -0.0000
     66  N         25.8640   12.6350  -11.2340 N.am  114  TYR114     -0.1962
     67  CA        24.8970   13.7070  -11.4020 C.3   114  TYR114      0.1771
     68  C         25.4310   15.0110  -10.8650 C.2   114  TYR114      0.2619
     69  O         26.3370   15.0520  -10.0330 O.2   114  TYR114     -0.2715
     70  CB        23.5440   13.3710  -10.7120 C.3   114  TYR114      0.0574
     71  CG        23.5730   13.4350   -9.1980 C.ar  114  TYR114     -0.0198
     72  CD1       23.3210   14.6320   -8.5320 C.ar  114  TYR114     -0.0009
     73  CD2       23.8850   12.3260   -8.4350 C.ar  114  TYR114     -0.0009
     74  CE1       23.3980   14.7190   -7.1590 C.ar  114  TYR114      0.0417
     75  CE2       23.9380   12.3990   -7.0480 C.ar  114  TYR114      0.0417
     76  CZ        23.7220   13.5960   -6.4000 C.ar  114  TYR114      0.1957
     77  OH        23.7930   13.6710   -5.0250 O.3   114  TYR114     -0.2866
     78  N         24.8330   16.0970  -11.3490 N.am  115  GLN115     -0.1977
     79  CA        24.9920   17.3880  -10.7070 C.3   115  GLN115      0.1601
     80  C         23.7370   18.1910  -11.0160 C.2   115  GLN115      0.2287
     81  O         23.0060   17.9140  -11.9680 O.2   115  GLN115     -0.2864
     82  CB        26.2530   18.1210  -11.1800 C.3   115  GLN115      0.0394
     83  CG        26.2740   18.5010  -12.6490 C.3   115  GLN115      0.0908
     84  CD        27.6070   19.1330  -13.0520 C.2   115  GLN115      0.2608
     85  OE1       28.0290   20.1420  -12.4480 O.2   115  GLN115     -0.2717
     86  NE2       28.2750   18.5630  -14.0440 N.am  115  GLN115     -0.0878
     87  N         31.9770   10.5500  -18.7230 N.3   128  LYS128     -0.1245
     88  CA        31.7040   11.9750  -18.5900 C.3   128  LYS128      0.1561
     89  C         31.8100   12.7470  -19.8950 C.2   128  LYS128      0.2260
     90  O         31.9920   13.9650  -19.8600 O.2   128  LYS128     -0.2867
     91  CB        32.5110   12.5980  -17.4460 C.3   128  LYS128      0.0271
     92  CG        32.2540   11.9670  -16.0990 C.3   128  LYS128      0.0035
     93  CD        33.2300   12.4360  -15.0130 C.3   128  LYS128      0.0206
     94  CE        34.7090   12.0900  -15.2230 C.3   128  LYS128      0.1093
     95  NZ        35.4820   12.6610  -14.0560 N.3   128  LYS128     -0.1314
@<TRIPOS>BOND
     1    89    90    2
     2    89    88    1
     3    87    88    1
     4    88    91    1
     5     1     2    1
     6    91    92    1
     7     2     5    1
     8     2     3    1
     9     5     6    1
    10    11    13   ar
    11    11     8   ar
    12    92    93    1
    13    13    14   ar
    14     3    15   am
    15     3     4    2
    16    15    16    1
    17     6     8   ar
    18     6     7   ar
    19     8    10   ar
    20    94    93    1
    21    94    95    1
    22    14    12   ar
    23    19    16    1
    24    19    20    1
    25    17    16    1
    26    17    18    2
    27    22    20   ar
    28     7     9   ar
    29    10    12   ar
    30    10     9   ar
    31    20    21   ar
    32    86    84   am
    33    62    64   ar
    34    62    60   ar
    35    64    65   ar
    36    58    57    2
    37    84    83    1
    38    84    85    2
    39    55    56    1
    40    83    82    1
    41    59    60    1
    42    59    56    1
    43    60    61   ar
    44    57    56    1
    45    57    66   am
    46    65    63   ar
    47    81    80    2
    48    67    66    1
    49    67    68    1
    50    67    70    1
    51    78    68   am
    52    78    79    1
    53    82    79    1
    54    61    63   ar
    55    80    79    1
    56    68    69    2
    57    70    71    1
    58    71    72   ar
    59    71    73   ar
    60    47    46    2
    61    72    74   ar
    62    73    75   ar
    63    53    52    1
    64    46    45    1
    65    54    52    1
    66    52    51    2
    67    74    76   ar
    68    75    76   ar
    69    48    45    1
    70    48    49    1
    71    51    50    1
    72    39    38    2
    73    50    49    1
    74    45    44    1
    75    76    77    1
    76    38    44   am
    77    38    37    1
    78    42    41   ar
    79    41    40    1
    80    41    43   ar
    81    40    37    1
    82    37    36    1
    83    36    29   am
    84    24    23    1
    85    24    25    1
    86    29    30    2
    87    29    28    1
    88    26    25    2
    89    25    27   am
    90    27    28    1
    91    28    31    1
    92    31    32    1
    93    35    34    1
    94    32    33    1
    95    34    33    1
