@<TRIPOS>MOLECULE
tmp/4zglF00.pdb
 178 174 0 0 0
SMALL
GASTEIGER

@<TRIPOS>ATOM
      1  N         -4.3360  -12.0900  -54.1490 N.3     3  VAL3       -0.1231
      2  CA        -3.8950  -12.6970  -52.8810 C.3     3  VAL3        0.1692
      3  C         -5.0350  -13.0390  -51.9070 C.2     3  VAL3        0.2592
      4  O         -5.0160  -14.1100  -51.3050 O.2     3  VAL3       -0.2718
      5  CB        -2.7880  -11.8670  -52.1800 C.3     3  VAL3        0.0266
      6  CG1       -3.3040  -10.5190  -51.6950 C.3     3  VAL3        0.0020
      7  CG2       -2.1850  -12.6440  -51.0210 C.3     3  VAL3        0.0020
      8  N         -6.0150  -12.1480  -51.7530 N.am    4  PHE4       -0.1976
      9  CA        -7.1520  -12.4180  -50.8640 C.3     4  PHE4        0.1639
     10  C         -8.1190  -13.4320  -51.4700 C.2     4  PHE4        0.2290
     11  O         -8.7300  -14.2150  -50.7430 O.2     4  PHE4       -0.2864
     12  CB        -7.9130  -11.1390  -50.5020 C.3     4  PHE4        0.0560
     13  CG        -7.1420  -10.1760  -49.6230 C.ar    4  PHE4       -0.0200
     14  CD1       -6.0780  -10.5920  -48.8290 C.ar    4  PHE4       -0.0042
     15  CD2       -7.5260   -8.8410  -49.5670 C.ar    4  PHE4       -0.0042
     16  CE1       -5.4000   -9.6930  -48.0270 C.ar    4  PHE4       -0.0003
     17  CE2       -6.8500   -7.9390  -48.7640 C.ar    4  PHE4       -0.0003
     18  CZ        -5.7870   -8.3650  -47.9910 C.ar    4  PHE4       -0.0000
     19  N         -6.7920  -16.7660  -50.6750 N.3     7  ILE7       -0.1245
     20  CA        -7.1100  -17.1220  -49.3010 C.3     7  ILE7        0.1561
     21  C         -8.5330  -17.6690  -49.2220 C.2     7  ILE7        0.2260
     22  O         -8.7680  -18.7020  -48.5840 O.2     7  ILE7       -0.2867
     23  CB        -6.9500  -15.9210  -48.3510 C.3     7  ILE7        0.0252
     24  CG1       -5.4810  -15.5010  -48.2960 C.3     7  ILE7        0.0019
     25  CG2       -7.4500  -16.2620  -46.9490 C.3     7  ILE7        0.0019
     26  CD1       -5.1950  -14.3150  -47.3860 C.3     7  ILE7        0.0001
     27  N         -3.9020  -20.4410  -50.4490 N.3    12  ILE12      -0.1231
     28  CA        -2.8400  -20.0410  -49.5280 C.3    12  ILE12       0.1678
     29  C         -3.3840  -19.9410  -48.1040 C.2    12  ILE12       0.2434
     30  O         -4.5360  -19.5470  -47.8920 O.2    12  ILE12      -0.2733
     31  CB        -2.0680  -18.7850  -50.0120 C.3    12  ILE12       0.0265
     32  CG1       -2.9470  -17.5440  -50.1680 C.3    12  ILE12       0.0019
     33  CG2       -1.3630  -19.0810  -51.3310 C.3    12  ILE12       0.0020
     34  CD1       -2.0930  -16.2890  -50.2510 C.3    12  ILE12       0.0001
     35  N         -2.5710  -20.3580  -47.1210 N.am   13  PRO13      -0.2718
     36  CA        -3.0120  -20.3160  -45.7250 C.3    13  PRO13       0.1535
     37  C         -3.1710  -18.9030  -45.1770 C.2    13  PRO13       0.2598
     38  O         -2.7770  -17.9350  -45.8200 O.2    13  PRO13      -0.2715
     39  CB        -1.8830  -21.0430  -44.9810 C.3    13  PRO13       0.0310
     40  CG        -0.6960  -20.9040  -45.8710 C.3    13  PRO13       0.0237
     41  CD        -1.2580  -21.0160  -47.2540 C.3    13  PRO13       0.0939
     42  N         -3.7520  -18.7980  -43.9880 N.am   14  CYS14      -0.1968
     43  CA        -3.8260  -17.5300  -43.2630 C.3    14  CYS14       0.1712
     44  C         -4.0720  -17.7910  -41.7790 C.2    14  CYS14       0.2296
     45  O         -4.3430  -18.9310  -41.3780 O.2    14  CYS14      -0.2864
     46  CB        -4.9340  -16.6460  -43.8370 C.3    14  CYS14       0.0983
     47  SG        -6.6110  -17.2640  -43.5810 S.3    14  CYS14      -0.0798
     48  N         -8.9680  -12.3590  -40.8560 N.3    26  PHE26      -0.1227
     49  CA        -7.6500  -12.9120  -40.5700 C.3    26  PHE26       0.1736
     50  C         -6.6320  -11.8040  -40.2960 C.2    26  PHE26       0.2595
     51  O         -6.8560  -10.6410  -40.6370 O.2    26  PHE26      -0.2718
     52  CB        -7.1730  -13.7870  -41.7280 C.3    26  PHE26       0.0547
     53  CG        -7.2060  -13.0970  -43.0620 C.ar   26  PHE26      -0.0202
     54  CD1       -6.0850  -12.4380  -43.5510 C.ar   26  PHE26      -0.0042
     55  CD2       -8.3630  -13.1020  -43.8260 C.ar   26  PHE26      -0.0042
     56  CE1       -6.1240  -11.7930  -44.7750 C.ar   26  PHE26      -0.0003
     57  CE2       -8.4040  -12.4590  -45.0440 C.ar   26  PHE26      -0.0003
     58  CZ        -7.2850  -11.8050  -45.5230 C.ar   26  PHE26      -0.0000
     59  N         -5.5170  -12.1760  -39.6710 N.am   27  TYR27      -0.1962
     60  CA        -4.4670  -11.2220  -39.3180 C.3    27  TYR27       0.1771
     61  C         -3.6890  -10.7580  -40.5390 C.2    27  TYR27       0.2620
     62  O         -3.4370  -11.5350  -41.4590 O.2    27  TYR27      -0.2715
     63  CB        -3.4990  -11.8360  -38.3070 C.3    27  TYR27       0.0574
     64  CG        -4.0860  -12.0040  -36.9310 C.ar   27  TYR27      -0.0198
     65  CD1       -4.2130  -10.9160  -36.0720 C.ar   27  TYR27      -0.0009
     66  CD2       -4.5100  -13.2480  -36.4790 C.ar   27  TYR27      -0.0009
     67  CE1       -4.7460  -11.0650  -34.7990 C.ar   27  TYR27       0.0417
     68  CE2       -5.0420  -13.4090  -35.2080 C.ar   27  TYR27       0.0417
     69  CZ        -5.1580  -12.3190  -34.3710 C.ar   27  TYR27       0.1957
     70  OH        -5.6890  -12.4710  -33.1100 O.3    27  TYR27      -0.2866
     71  N         -3.3040   -9.4880  -40.5260 N.am   28  ASP28      -0.1957
     72  CA        -2.4510   -8.9170  -41.5570 C.3    28  ASP28       0.1840
     73  C         -1.0060   -9.3490  -41.3080 C.2    28  ASP28       0.2622
     74  O         -0.5210   -9.2790  -40.1770 O.2    28  ASP28      -0.2715
     75  CB        -2.5610   -7.3870  -41.5380 C.3    28  ASP28       0.1450
     76  CG        -1.9470   -6.7320  -42.7630 C.2    28  ASP28       0.3671
     77  OD1       -0.7990   -7.0730  -43.1220 O.co2  28  ASP28      -0.2456
     78  OD2       -2.6050   -5.8660  -43.3750 O.co2  28  ASP28      -0.2456
     79  N         -0.3290   -9.7920  -42.3680 N.am   29  ILE29      -0.1963
     80  CA         1.0440  -10.3110  -42.2620 C.3    29  ILE29       0.1727
     81  C          2.0990   -9.2130  -42.0740 C.2    29  ILE29       0.2616
     82  O          3.2040   -9.5110  -41.6310 O.2    29  ILE29      -0.2715
     83  CB         1.4480  -11.1830  -43.4800 C.3    29  ILE29       0.0290
     84  CG1        1.1910  -10.4370  -44.7940 C.3    29  ILE29       0.0022
     85  CG2        0.7210  -12.5260  -43.4460 C.3    29  ILE29       0.0023
     86  CD1        2.0020  -10.9570  -45.9560 C.3    29  ILE29       0.0001
     87  N          1.7580   -7.9670  -42.4150 N.am   30  ASN30      -0.1972
     88  CA         2.5850   -6.7820  -42.0780 C.3    30  ASN30       0.1688
     89  C          1.7950   -5.8340  -41.1760 C.2    30  ASN30       0.2292
     90  O          1.2760   -4.8290  -41.6580 O.2    30  ASN30      -0.2864
     91  CB         3.0620   -5.9790  -43.3220 C.3    30  ASN30       0.1181
     92  CG         4.1820   -6.6500  -44.0880 C.2    30  ASN30       0.2629
     93  OD1        4.0600   -7.0040  -45.2770 O.2    30  ASN30      -0.2716
     94  ND2        5.3020   -6.7700  -43.4210 N.am   30  ASN30      -0.0877
     95  N          0.3850   -3.0060  -38.6630 N.3    32  LYS32      -0.1245
     96  CA         0.6360   -1.5790  -38.4950 C.3    32  LYS32       0.1561
     97  C          0.1330   -1.1330  -37.1270 C.2    32  LYS32       0.2260
     98  O          0.1520    0.0520  -36.8040 O.2    32  LYS32      -0.2867
     99  CB        -0.0710   -0.7990  -39.6080 C.3    32  LYS32       0.0271
    100  CG         0.3890   -1.2050  -41.0000 C.3    32  LYS32       0.0035
    101  CD         1.6000   -0.4030  -41.4220 C.3    32  LYS32       0.0206
    102  CE         2.2570   -0.7670  -42.6770 C.3    32  LYS32       0.1093
    103  NZ         2.0730   -2.1860  -43.0190 N.3    32  LYS32      -0.1314
    104  N         -3.8420   -6.1240  -35.7240 N.3    36  HIS36      -0.1241
    105  CA        -4.2160   -5.7110  -37.0610 C.3    36  HIS36       0.1621
    106  C         -4.9100   -6.8640  -37.7830 C.2    36  HIS36       0.2264
    107  O         -4.2670   -7.8230  -38.2090 O.2    36  HIS36      -0.2867
    108  CB        -2.9850   -5.2680  -37.8490 C.3    36  HIS36       0.0745
    109  CG        -3.3120   -4.7270  -39.2040 C.ar   36  HIS36       0.0817
    110  ND1       -2.3770   -4.1330  -40.0240 N.ar   36  HIS36      -0.2268
    111  CD2       -4.4870   -4.6690  -39.8740 C.ar   36  HIS36       0.1154
    112  CE1       -2.9580   -3.7520  -41.1480 C.ar   36  HIS36       0.1986
    113  NE2       -4.2390   -4.0620  -41.0780 N.ar   36  HIS36      -0.2212
    114  N         -7.9600   -8.1090  -40.8360 N.3    38  LEU38      -0.1245
    115  CA        -8.6010   -7.7570  -42.0950 C.3    38  LEU38       0.1561
    116  C         -9.9390   -8.4750  -42.1660 C.2    38  LEU38       0.2260
    117  O        -10.0170   -9.6540  -41.8440 O.2    38  LEU38      -0.2867
    118  CB        -7.7240   -8.1880  -43.2660 C.3    38  LEU38       0.0270
    119  CG        -6.4050   -7.4370  -43.4320 C.3    38  LEU38       0.0019
    120  CD1       -5.4560   -8.2230  -44.3210 C.3    38  LEU38       0.0001
    121  CD2       -6.6460   -6.0510  -43.9980 C.3    38  LEU38       0.0001
    122  N         -9.7000    1.2760  -48.0270 N.3    82  ASN82      -0.1240
    123  CA        -9.2010    2.1050  -49.1250 C.3    82  ASN82       0.1653
    124  C         -9.9220    1.7580  -50.4160 C.2    82  ASN82       0.2266
    125  O         -9.9750    0.5980  -50.8080 O.2    82  ASN82      -0.2867
    126  CB        -7.7010    1.9020  -49.3010 C.3    82  ASN82       0.1155
    127  CG        -6.9220    2.2170  -48.0380 C.2    82  ASN82       0.2627
    128  OD1       -6.3180    1.3380  -47.4320 O.2    82  ASN82      -0.2716
    129  ND2       -6.9500    3.4760  -47.6290 N.am   82  ASN82      -0.0877
    130  N         -4.6470    4.3730  -51.8960 N.3    88  GLY88      -0.1210
    131  CA        -3.6870    3.4790  -51.2590 C.3    88  GLY88       0.1956
    132  C         -4.0280    2.0010  -51.2890 C.2    88  GLY88       0.2612
    133  O         -3.3420    1.2030  -50.6530 O.2    88  GLY88      -0.2717
    134  N         -5.0870    1.6210  -52.0040 N.am   89  GLN89      -0.1965
    135  CA        -5.4840    0.2150  -52.0780 C.3    89  GLN89       0.1733
    136  C         -4.4670   -0.5620  -52.9100 C.2    89  GLN89       0.2616
    137  O         -4.1730   -0.1930  -54.0380 O.2    89  GLN89      -0.2715
    138  CB        -6.8870    0.0680  -52.6740 C.3    89  GLN89       0.0408
    139  CG        -7.4580   -1.3410  -52.5640 C.3    89  GLN89       0.0908
    140  CD        -8.8080   -1.4930  -53.2430 C.2    89  GLN89       0.2608
    141  OE1       -9.2800   -0.5860  -53.9300 O.2    89  GLN89      -0.2717
    142  NE2       -9.4300   -2.6550  -53.0660 N.am   89  GLN89      -0.0878
    143  N         -3.9380   -1.6380  -52.3350 N.am   90  GLU90      -0.1963
    144  CA        -2.8870   -2.4390  -52.9700 C.3    90  GLU90       0.1733
    145  C         -3.4360   -3.7750  -53.4610 C.2    90  GLU90       0.2616
    146  O         -3.1190   -4.1960  -54.5680 O.2    90  GLU90      -0.2715
    147  CB        -1.7250   -2.6820  -52.0040 C.3    90  GLU90       0.0429
    148  CG        -1.0230   -1.4430  -51.5190 C.3    90  GLU90       0.1163
    149  CD        -0.0800   -1.7120  -50.3570 C.2    90  GLU90       0.3649
    150  OE1        0.3070   -2.8900  -50.0990 O.co2  90  GLU90      -0.2457
    151  OE2        0.2890   -0.7120  -49.7130 O.co2  90  GLU90      -0.2457
    152  N         -4.2440   -4.4390  -52.6290 N.am   91  VAL91      -0.1977
    153  CA        -4.9250   -5.6670  -53.0200 C.3    91  VAL91       0.1596
    154  C         -6.3310   -5.2970  -53.4590 C.2    91  VAL91       0.2287
    155  O         -7.0590   -4.6230  -52.7260 O.2    91  VAL91      -0.2864
    156  CB        -4.9990   -6.6800  -51.8570 C.3    91  VAL91       0.0276
    157  CG1       -5.7300   -7.9460  -52.2880 C.3    91  VAL91       0.0022
    158  CG2       -3.6050   -7.0250  -51.3580 C.3    91  VAL91       0.0022
    159  N        -11.7090   -4.9320  -48.5740 N.3    95  HIS95      -0.1241
    160  CA       -11.2820   -5.3130  -47.2470 C.3    95  HIS95       0.1621
    161  C        -11.2590   -4.1290  -46.2980 C.2    95  HIS95       0.2264
    162  O        -10.9160   -3.0110  -46.6890 O.2    95  HIS95      -0.2867
    163  CB        -9.9100   -5.9840  -47.2950 C.3    95  HIS95       0.0745
    164  CG        -8.8290   -5.1320  -47.8590 C.ar   95  HIS95       0.0817
    165  ND1       -8.6730   -4.9380  -49.2130 N.ar   95  HIS95      -0.2268
    166  CD2       -7.8240   -4.4530  -47.2600 C.ar   95  HIS95       0.1154
    167  CE1       -7.6270   -4.1600  -49.4250 C.ar   95  HIS95       0.1986
    168  NE2       -7.0940   -3.8540  -48.2550 N.ar   95  HIS95      -0.2212
    169  N         -9.5810   -2.7430  -42.7920 N.3    97  HIS97      -0.1241
    170  CA        -8.5350   -2.8610  -41.7900 C.3    97  HIS97       0.1621
    171  C         -9.1480   -2.6060  -40.4220 C.2    97  HIS97       0.2264
    172  O         -9.9170   -1.6570  -40.2480 O.2    97  HIS97      -0.2867
    173  CB        -7.4290   -1.8420  -42.0410 C.3    97  HIS97       0.0745
    174  CG        -6.7330   -2.0210  -43.3490 C.ar   97  HIS97       0.0817
    175  ND1       -5.4770   -2.5730  -43.4500 N.ar   97  HIS97      -0.2268
    176  CD2       -7.1160   -1.7260  -44.6120 C.ar   97  HIS97       0.1154
    177  CE1       -5.1110   -2.6110  -44.7170 C.ar   97  HIS97       0.1986
    178  NE2       -6.0920   -2.1090  -45.4430 N.ar   97  HIS97      -0.2212
@<TRIPOS>BOND
     1   146   145    2
     2     1     2    1
     3   137   136    2
     4   141   140    2
     5   145   144    1
     6   145   152   am
     7   154   153    1
     8   154   155    2
     9   140   142   am
    10   140   139    1
    11   153   152    1
    12   153   156    1
    13   144   143    1
    14   144   147    1
    15   136   143   am
    16   136   135    1
    17     2     5    1
    18     2     3    1
    19   138   139    1
    20   138   135    1
    21   157   156    1
    22     5     6    1
    23     5     7    1
    24   135   134    1
    25   134   132   am
    26   147   148    1
    27     3     8   am
    28     3     4    2
    29   130   131    1
    30   156   158    1
    31     8     9    1
    32   148   149    1
    33    10     9    1
    34    10    11    2
    35    33    31    1
    36   132   131    1
    37   132   133    2
    38     9    12    1
    39   125   124    2
    40    19    20    1
    41    12    13    1
    42    27    28    1
    43   124   123    1
    44   149   150   ar
    45   149   151   ar
    46    34    32    1
    47    32    31    1
    48    31    28    1
    49    13    15   ar
    50    13    14   ar
    51    15    17   ar
    52    28    29    1
    53   167   165   ar
    54   167   168   ar
    55   126   123    1
    56   126   127    1
    57    20    21    1
    58    20    23    1
    59    21    22    2
    60   165   164   ar
    61   123   122    1
    62    14    16   ar
    63    17    18   ar
    64   159   160    1
    65    23    24    1
    66    23    25    1
    67    24    26    1
    68   168   166   ar
    69    29    30    2
    70    29    35   am
    71   127   129   am
    72   127   128    2
    73    16    18   ar
    74   164   163    1
    75   164   166   ar
    76   163   160    1
    77    41    35    1
    78    41    40    1
    79   160   161    1
    80    35    36    1
    81   162   161    2
    82    86    84    1
    83    40    39    1
    84    38    37    2
    85    36    37    1
    86    36    39    1
    87    58    57   ar
    88    58    56   ar
    89   178   177   ar
    90   178   176   ar
    91    93    92    2
    92    37    42   am
    93    57    55   ar
    94    84    83    1
    95    56    54   ar
    96   177   175   ar
    97   176   174   ar
    98   120   119    1
    99    92    94   am
   100    92    91    1
   101   121   119    1
   102    42    43    1
   103    46    47    1
   104    46    43    1
   105    55    53   ar
   106    54    53   ar
   107    83    85    1
   108    83    80    1
   109   175   174   ar
   110   119   118    1
   111    78    76   ar
   112   174   173    1
   113    91    88    1
   114   118   115    1
   115    43    44    1
   116    77    76   ar
   117    53    52    1
   118   103   102    1
   119   169   170    1
   120    76    75    1
   121   102   101    1
   122    87    88    1
   123    87    81   am
   124    79    80    1
   125    79    73   am
   126    80    81    1
   127   116   115    1
   128   116   117    2
   129   115   114    1
   130    88    89    1
   131    81    82    2
   132   173   170    1
   133   170   171    1
   134    44    45    2
   135    52    49    1
   136    90    89    2
   137    72    75    1
   138    72    73    1
   139    72    71    1
   140    62    61    2
   141   101   100    1
   142    73    74    2
   143   112   113   ar
   144   112   110   ar
   145   113   111   ar
   146   100    99    1
   147    48    49    1
   148    51    50    2
   149    49    50    1
   150    61    71   am
   151    61    60    1
   152   171   172    2
   153    50    59   am
   154   110   109   ar
   155   111   109   ar
   156    59    60    1
   157    99    96    1
   158    60    63    1
   159   109   108    1
   160    95    96    1
   161    96    97    1
   162    63    64    1
   163   107   106    2
   164   108   105    1
   165   106   105    1
   166    97    98    2
   167   105   104    1
   168    64    66   ar
   169    64    65   ar
   170    66    68   ar
   171    65    67   ar
   172    68    69   ar
   173    67    69   ar
   174    69    70    1
