@<TRIPOS>MOLECULE
tmp/4zgnA00.pdb
 204 194 0 0 0
SMALL
GASTEIGER

@<TRIPOS>ATOM
      1  N         10.3760  136.5320  134.1870 N.3    34  PRO34      -0.2116
      2  CA         9.2020  135.6990  134.5190 C.3    34  PRO34       0.1372
      3  C          8.5580  136.0650  135.8620 C.2    34  PRO34       0.2244
      4  O          9.2620  136.5330  136.7670 O.2    34  PRO34      -0.2868
      5  CB         9.7680  134.2760  134.5170 C.3    34  PRO34       0.0268
      6  CG        11.0750  134.3570  133.7890 C.3    34  PRO34       0.0207
      7  CD        11.6010  135.7080  134.0720 C.3    34  PRO34       0.0892
      8  N          9.9010  129.6970  143.9550 N.3    83  VAL83      -0.1245
      9  CA        11.3610  129.6110  144.1740 C.3    83  VAL83       0.1561
     10  C         11.7190  130.8490  145.0340 C.2    83  VAL83       0.2260
     11  O         11.5400  131.9960  144.5800 O.2    83  VAL83      -0.2867
     12  CB        12.1950  129.4930  142.8610 C.3    83  VAL83       0.0252
     13  CG1       13.6670  129.8210  143.0830 C.3    83  VAL83       0.0019
     14  CG2       12.0360  128.1190  142.2260 C.3    83  VAL83       0.0019
     15  N         13.8930  133.5980  147.5160 N.3    85  LYS85      -0.1245
     16  CA        15.1000  134.4010  147.4160 C.3    85  LYS85       0.1561
     17  C         14.9030  135.5450  148.4160 C.2    85  LYS85       0.2260
     18  O         13.7710  135.9580  148.6840 O.2    85  LYS85      -0.2867
     19  CB        15.1400  134.9830  145.9790 C.3    85  LYS85       0.0271
     20  CG        16.4420  135.5780  145.4890 C.3    85  LYS85       0.0035
     21  CD        16.3170  135.9050  144.0160 C.3    85  LYS85       0.0206
     22  CE        17.6450  135.9830  143.2890 C.3    85  LYS85       0.1093
     23  NZ        17.4940  136.0450  141.7930 N.3    85  LYS85      -0.1314
     24  N         19.0460  139.2540  147.2460 N.3    88  TRP88      -0.1227
     25  CA        19.9220  138.8990  146.1240 C.3    88  TRP88       0.1737
     26  C         20.0840  137.4040  145.8640 C.2    88  TRP88       0.2596
     27  O         20.2090  137.0040  144.7020 O.2    88  TRP88      -0.2718
     28  CB        21.3290  139.4930  146.3210 C.3    88  TRP88       0.0564
     29  CG        21.3950  140.9610  146.6270 C.ar   88  TRP88       0.0003
     30  CD1       21.6090  141.9780  145.7380 C.ar   88  TRP88       0.0946
     31  CD2       21.3840  141.5590  147.9240 C.ar   88  TRP88       0.0152
     32  NE1       21.6860  143.1780  146.4000 N.ar   88  TRP88      -0.2442
     33  CE2       21.5440  142.9520  147.7460 C.ar   88  TRP88       0.0810
     34  CE3       21.2380  141.0570  149.2250 C.ar   88  TRP88       0.0012
     35  CZ2       21.5510  143.8480  148.8240 C.ar   88  TRP88       0.0191
     36  CZ3       21.2200  141.9520  150.2860 C.ar   88  TRP88       0.0001
     37  CH2       21.3820  143.3260  150.0790 C.ar   88  TRP88       0.0015
     38  N         20.1670  136.5880  146.9300 N.am   89  SER89      -0.1938
     39  CA        20.4840  135.1790  146.7740 C.3    89  SER89       0.2055
     40  C         19.3710  134.2120  147.0500 C.2    89  SER89       0.2643
     41  O         18.5800  134.4360  147.9670 O.2    89  SER89      -0.2714
     42  CB        21.6810  134.8150  147.6400 C.3    89  SER89       0.2130
     43  OG        22.6810  135.8190  147.6030 O.3    89  SER89      -0.2179
     44  N         19.3320  133.1090  146.2480 N.am   90  THR90      -0.1950
     45  CA        18.3980  131.9830  146.4140 C.3    90  THR90       0.1897
     46  C         19.1400  130.9660  147.2880 C.2    90  THR90       0.2313
     47  O         20.3830  130.9860  147.2920 O.2    90  THR90      -0.2863
     48  CB        18.0360  131.3200  145.0810 C.3    90  THR90       0.1794
     49  OG1       19.2270  131.1210  144.3630 O.3    90  THR90      -0.2208
     50  CG2       17.0640  132.1280  144.2530 C.3    90  THR90       0.0378
     51  N         20.2820  127.9840  146.9900 N.3    92  LYS92      -0.1245
     52  CA        20.7830  126.8690  146.1660 C.3    92  LYS92       0.1561
     53  C         21.8060  125.9760  146.8620 C.2    92  LYS92       0.2260
     54  O         21.9740  124.8230  146.4590 O.2    92  LYS92      -0.2867
     55  CB        21.3280  127.3100  144.8030 C.3    92  LYS92       0.0271
     56  CG        21.1440  128.7610  144.4330 C.3    92  LYS92       0.0035
     57  CD        22.4950  129.4410  144.2720 C.3    92  LYS92       0.0206
     58  CE        22.8340  129.6630  142.8270 C.3    92  LYS92       0.1093
     59  NZ        24.2300  130.1240  142.6930 N.3    92  LYS92      -0.1314
     60  N         14.6410  123.9350  144.6280 N.3   103  LEU103     -0.1245
     61  CA        14.1880  125.1970  145.1970 C.3   103  LEU103      0.1561
     62  C         12.6630  125.3530  145.1240 C.2   103  LEU103      0.2260
     63  O         12.1430  126.3470  145.6290 O.2   103  LEU103     -0.2867
     64  CB        14.8930  126.3730  144.4960 C.3   103  LEU103      0.0270
     65  CG        16.3650  126.5580  144.7900 C.3   103  LEU103      0.0019
     66  CD1       16.9380  127.6650  143.9880 C.3   103  LEU103      0.0001
     67  CD2       16.6020  126.8240  146.2570 C.3   103  LEU103      0.0001
     68  N         24.1520  131.2560  151.6410 N.3   120  PHE120     -0.1241
     69  CA        23.9990  132.3210  150.6510 C.3   120  PHE120      0.1605
     70  C         22.9820  133.3310  151.1870 C.2   120  PHE120      0.2264
     71  O         23.2220  134.5330  151.1400 O.2   120  PHE120     -0.2867
     72  CB        23.4980  131.7470  149.3410 C.3   120  PHE120      0.0534
     73  CG        24.4920  130.9350  148.5560 C.ar  120  PHE120     -0.0203
     74  CD1       25.8430  131.2570  148.5690 C.ar  120  PHE120     -0.0042
     75  CD2       24.0660  129.9230  147.7070 C.ar  120  PHE120     -0.0042
     76  CE1       26.7540  130.5370  147.8070 C.ar  120  PHE120     -0.0003
     77  CE2       24.9820  129.2050  146.9360 C.ar  120  PHE120     -0.0003
     78  CZ        26.3200  129.5120  147.0020 C.ar  120  PHE120     -0.0000
     79  N          9.4030  133.7520  143.4210 N.3   150  LYS150     -0.1231
     80  CA         9.3420  133.7060  141.9530 C.3   150  LYS150      0.1693
     81  C          8.5430  132.4770  141.5810 C.2   150  LYS150      0.2592
     82  O          8.8210  131.4040  142.1180 O.2   150  LYS150     -0.2718
     83  CB        10.7620  133.6520  141.3220 C.3   150  LYS150      0.0285
     84  CG        11.8710  134.3180  142.1640 C.3   150  LYS150      0.0035
     85  CD        13.1730  134.5430  141.4260 C.3   150  LYS150      0.0206
     86  CE        14.0020  133.2980  141.1860 C.3   150  LYS150      0.1093
     87  NZ        14.7290  133.3750  139.8870 N.3   150  LYS150     -0.1314
     88  N          7.5330  132.6210  140.7000 N.am  151  GLU151     -0.1966
     89  CA         6.7160  131.4770  140.2840 C.3   151  GLU151      0.1733
     90  C          7.6100  130.3770  139.7240 C.2   151  GLU151      0.2616
     91  O          8.4020  130.6300  138.8050 O.2   151  GLU151     -0.2715
     92  CB         5.6250  131.8830  139.2730 C.3   151  GLU151      0.0429
     93  CG         4.9890  130.6790  138.5980 C.3   151  GLU151      0.1163
     94  CD         3.6470  130.8350  137.9240 C.2   151  GLU151      0.3649
     95  OE1        2.9510  131.8480  138.1640 O.co2 151  GLU151     -0.2457
     96  OE2        3.2690  129.8980  137.1870 O.co2 151  GLU151     -0.2457
     97  N          7.5180  129.1800  140.3090 N.am  152  TRP152     -0.1960
     98  CA         8.3180  128.0370  139.8800 C.3   152  TRP152      0.1771
     99  C          7.9370  127.5950  138.4930 C.2   152  TRP152      0.2619
    100  O          6.7460  127.5340  138.1880 O.2   152  TRP152     -0.2715
    101  CB         8.1300  126.8370  140.8390 C.3   152  TRP152      0.0590
    102  CG         8.4300  125.4990  140.2110 C.ar  152  TRP152      0.0006
    103  CD1        7.5920  124.7350  139.4370 C.ar  152  TRP152      0.0946
    104  CD2        9.6970  124.8470  140.1910 C.ar  152  TRP152      0.0152
    105  NE1        8.2640  123.6400  138.9480 N.ar  152  TRP152     -0.2442
    106  CE2        9.5570  123.6750  139.4090 C.ar  152  TRP152      0.0810
    107  CE3       10.9440  125.1360  140.7660 C.ar  152  TRP152      0.0012
    108  CZ2       10.6140  122.7800  139.2090 C.ar  152  TRP152      0.0191
    109  CZ3       11.9950  124.2480  140.5740 C.ar  152  TRP152      0.0001
    110  CH2       11.8270  123.0830  139.8070 C.ar  152  TRP152      0.0015
    111  N          8.9310  127.1850  137.6880 N.am  153  PHE153     -0.1974
    112  CA         8.6760  126.5680  136.3910 C.3   153  PHE153      0.1639
    113  C          9.7650  125.5570  136.0130 C.2   153  PHE153      0.2290
    114  O         10.9080  125.6970  136.4760 O.2   153  PHE153     -0.2864
    115  CB         8.4170  127.5860  135.2850 C.3   153  PHE153      0.0560
    116  CG         9.5880  128.4190  134.8600 C.ar  153  PHE153     -0.0200
    117  CD1        9.8550  129.6370  135.4750 C.ar  153  PHE153     -0.0042
    118  CD2       10.3890  128.0260  133.7960 C.ar  153  PHE153     -0.0042
    119  CE1       10.9140  130.4420  135.0410 C.ar  153  PHE153     -0.0003
    120  CE2       11.4510  128.8220  133.3730 C.ar  153  PHE153     -0.0003
    121  CZ        11.7150  130.0200  134.0070 C.ar  153  PHE153     -0.0000
    122  N         12.5630  124.6900  134.4220 N.3   155  MET155     -0.1245
    123  CA        13.5780  125.4720  133.7470 C.3   155  MET155      0.1570
    124  C         14.7470  124.5830  133.3690 C.2   155  MET155      0.2261
    125  O         15.3880  124.0220  134.2600 O.2   155  MET155     -0.2867
    126  CB        14.0190  126.5670  134.7250 C.3   155  MET155      0.0387
    127  CG        14.6740  127.7340  134.0820 C.3   155  MET155      0.0595
    128  SD        15.8360  128.5440  135.1800 S.3   155  MET155     -0.1393
    129  CE        15.0140  130.0400  135.4860 C.3   155  MET155      0.0692
    130  N         18.3790  123.8230  132.8230 N.3   157  ALA157     -0.1245
    131  CA        19.7070  124.3630  133.1680 C.3   157  ALA157      0.1562
    132  C         20.6390  124.4910  131.9660 C.2   157  ALA157      0.2260
    133  O         21.6670  125.1790  132.0340 O.2   157  ALA157     -0.2867
    134  CB        20.3560  123.4840  134.2140 C.3   157  ALA157      0.0290
    135  N         20.7090  128.2780  130.3330 N.3   160  GLU160     -0.1245
    136  CA        20.9130  129.2870  131.3520 C.3   160  GLU160      0.1567
    137  C         22.3030  129.7860  131.1000 C.2   160  GLU160      0.2260
    138  O         23.2420  128.9920  131.0520 O.2   160  GLU160     -0.2867
    139  CB        20.8760  128.6800  132.7580 C.3   160  GLU160      0.0388
    140  CG        19.5060  128.3470  133.3020 C.3   160  GLU160      0.1160
    141  CD        19.5200  128.3640  134.8160 C.2   160  GLU160      0.3649
    142  OE1       19.8770  127.3300  135.4300 O.co2 160  GLU160     -0.2457
    143  OE2       19.2890  129.4570  135.3830 O.co2 160  GLU160     -0.2457
    144  N         25.2170  133.1600  131.9400 N.3   162  ARG162     -0.1245
    145  CA        25.7050  134.2350  132.7970 C.3   162  ARG162      0.1563
    146  C         26.3210  135.2300  131.8200 C.2   162  ARG162      0.2260
    147  O         27.2330  134.8610  131.0700 O.2   162  ARG162     -0.2867
    148  CB        26.7860  133.6720  133.7310 C.3   162  ARG162      0.0307
    149  CG        27.2630  134.5830  134.8310 C.3   162  ARG162      0.0489
    150  CD        26.5590  134.1160  136.0570 C.3   162  ARG162      0.2205
    151  NE        27.2450  134.3940  137.3040 N.pl3 162  ARG162     -0.0865
    152  CZ        26.7290  134.0720  138.4790 C.cat 162  ARG162      0.5346
    153  NH1       25.5470  133.4680  138.5500 N.pl3 162  ARG162      0.1354
    154  NH2       27.3790  134.3630  139.5970 N.pl3 162  ARG162      0.1354
    155  N         25.5950  128.3300  132.4940 N.3   176  ARG176     -0.1245
    156  CA        25.5210  128.3950  133.9550 C.3   176  ARG176      0.1563
    157  C         25.7100  127.0230  134.5970 C.2   176  ARG176      0.2260
    158  O         26.2870  126.9230  135.6900 O.2   176  ARG176     -0.2867
    159  CB        24.2300  129.0460  134.4130 C.3   176  ARG176      0.0307
    160  CG        24.4670  130.3790  135.0970 C.3   176  ARG176      0.0489
    161  CD        23.1630  130.9930  135.5520 C.3   176  ARG176      0.2205
    162  NE        23.1470  131.2300  136.9950 N.pl3 176  ARG176     -0.0865
    163  CZ        22.0890  131.6690  137.6700 C.cat 176  ARG176      0.5346
    164  NH1       20.9400  131.8980  137.0440 N.pl3 176  ARG176      0.1354
    165  NH2       22.1700  131.8800  138.9770 N.pl3 176  ARG176      0.1354
    166  N         21.9970  137.2790  134.4900 N.3   213  ASP213     -0.1239
    167  CA        21.7360  135.8710  134.3230 C.3   213  ASP213      0.1674
    168  C         20.4930  135.7570  133.4890 C.2   213  ASP213      0.2266
    169  O         19.5710  136.5550  133.6420 O.2   213  ASP213     -0.2867
    170  CB        21.6600  135.1840  135.6920 C.3   213  ASP213      0.1410
    171  CG        23.0390  135.0580  136.3220 C.2   213  ASP213      0.3668
    172  OD1       24.0370  135.2260  135.5990 O.co2 213  ASP213     -0.2456
    173  OD2       23.1180  134.7990  137.5380 O.co2 213  ASP213     -0.2456
    174  N         16.8140  136.6290  134.3950 N.3   224  ILE224     -0.1231
    175  CA        16.5760  135.9310  135.6700 C.3   224  ILE224      0.1692
    176  C         17.0200  136.7570  136.8760 C.2   224  ILE224      0.2592
    177  O         16.3240  136.7530  137.9040 O.2   224  ILE224     -0.2718
    178  CB        17.1920  134.5080  135.6430 C.3   224  ILE224      0.0266
    179  CG1       16.5450  133.6540  134.5240 C.3   224  ILE224      0.0019
    180  CG2       17.1350  133.7970  136.9850 C.3   224  ILE224      0.0020
    181  CD1       14.9440  133.6970  134.3820 C.3   224  ILE224      0.0001
    182  N         18.1740  137.4440  136.7570 N.am  225  ASP225     -0.1974
    183  CA        18.7430  138.2570  137.8240 C.3   225  ASP225      0.1709
    184  C         19.8330  139.1660  137.2910 C.2   225  ASP225      0.2293
    185  O         20.3240  138.9530  136.1820 O.2   225  ASP225     -0.2864
    186  CB        19.2970  137.3510  138.9480 C.3   225  ASP225      0.1436
    187  CG        19.5790  138.0170  140.2900 C.2   225  ASP225      0.3671
    188  OD1       18.8620  139.0030  140.6430 O.co2 225  ASP225     -0.2456
    189  OD2       20.4840  137.5350  141.0070 O.co2 225  ASP225     -0.2456
    190  N         23.3400  140.5720  138.8570 N.3   227  ASN227     -0.1240
    191  CA        24.3820  140.3970  139.8540 C.3   227  ASN227      0.1653
    192  C         25.4350  141.4890  139.6060 C.2   227  ASN227      0.2266
    193  O         25.5600  141.9260  138.4570 O.2   227  ASN227     -0.2867
    194  CB        25.0010  139.0060  139.6730 C.3   227  ASN227      0.1155
    195  CG        23.9900  137.8930  139.5050 C.2   227  ASN227      0.2627
    196  OD1       23.4080  137.3910  140.4640 O.2   227  ASN227     -0.2716
    197  ND2       23.7360  137.5090  138.2710 N.am  227  ASN227     -0.0877
    198  N         30.2780  137.8450  142.7210 N.3   233  THR233     -0.1218
    199  CA        29.4880  136.9710  141.8450 C.3   233  THR233      0.1862
    200  C         30.4190  136.1140  140.9930 C.2   233  THR233      0.2287
    201  O         31.3890  136.6200  140.4190 O.2   233  THR233     -0.2866
    202  CB        28.3900  137.7060  141.0640 C.3   233  THR233      0.1770
    203  OG1       28.9470  138.7340  140.2590 O.3   233  THR233     -0.2211
    204  CG2       27.3130  138.2590  141.9910 C.3   233  THR233      0.0375
@<TRIPOS>BOND
     1   135   136    1
     2   138   137    2
     3   147   146    2
     4   137   136    1
     5   136   139    1
     6   146   145    1
     7   144   145    1
     8   132   133    2
     9   132   131    1
    10   155   156    1
    11   139   140    1
    12   145   148    1
    13   130   131    1
    14   131   134    1
    15   140   141    1
    16   124   123    1
    17   124   125    2
    18   120   118   ar
    19   120   121   ar
    20   168   169    2
    21   168   167    1
    22   148   149    1
    23   123   122    1
    24   123   126    1
    25     6     7    1
    26     6     5    1
    27   118   116   ar
    28   156   159    1
    29   156   157    1
    30   121   119   ar
    31     7     1    1
    32   127   126    1
    33   127   128    1
    34     1     2    1
    35   167   166    1
    36   167   170    1
    37   181   179    1
    38   174   175    1
    39   159   160    1
    40     5     2    1
    41     2     3    1
    42   179   178    1
    43   157   158    2
    44   141   143   ar
    45   141   142   ar
    46   149   150    1
    47   116   115    1
    48   116   117   ar
    49   119   117   ar
    50   160   161    1
    51   128   129    1
    52   115   112    1
    53   161   162    1
    54   172   171   ar
    55   178   175    1
    56   178   180    1
    57   175   176    1
    58   170   171    1
    59     3     4    2
    60   113   112    1
    61   113   114    2
    62   150   151    1
    63   185   184    2
    64   171   173   ar
    65   112   111    1
    66   182   176   am
    67   182   183    1
    68   176   177    2
    69   162   163    2
    70   164   163    1
    71    96    94   ar
    72   184   183    1
    73   151   152    2
    74   163   165    1
    75   111    99   am
    76   183   186    1
    77    94    95   ar
    78    94    93    1
    79   100    99    2
    80   197   195   am
    81   193   192    2
    82   152   153    1
    83   152   154    1
    84    99    98    1
    85    93    92    1
    86    91    90    2
    87   190   191    1
    88   105   106   ar
    89   105   103   ar
    90   186   187    1
    91   108   106   ar
    92   108   110   ar
    93    92    89    1
    94   106   104   ar
    95   103   102   ar
    96   195   194    1
    97   195   196    2
    98   192   191    1
    99   194   191    1
   100    90    89    1
   101    90    97   am
   102   110   109   ar
   103    98    97    1
   104    98   101    1
   105    87    86    1
   106   104   102   ar
   107   104   107   ar
   108   102   101    1
   109   203   202    1
   110    89    88    1
   111   187   188   ar
   112   187   189   ar
   113   201   200    2
   114   109   107   ar
   115    88    81   am
   116   200   199    1
   117   202   199    1
   118   202   204    1
   119    86    85    1
   120    83    80    1
   121    83    84    1
   122    85    84    1
   123    81    80    1
   124    81    82    2
   125    23    22    1
   126   199   198    1
   127    80    79    1
   128    14    12    1
   129    59    58    1
   130    58    57    1
   131    12    13    1
   132    12     9    1
   133    22    21    1
   134     8     9    1
   135    66    65    1
   136    21    20    1
   137     9    10    1
   138    50    48    1
   139    57    56    1
   140    49    48    1
   141    56    55    1
   142    64    65    1
   143    64    61    1
   144    11    10    2
   145    60    61    1
   146    27    26    2
   147    65    67    1
   148    55    52    1
   149    48    45    1
   150    62    61    1
   151    62    63    2
   152    20    19    1
   153    30    32   ar
   154    30    29   ar
   155    26    25    1
   156    26    38   am
   157    19    16    1
   158    25    28    1
   159    25    24    1
   160    52    53    1
   161    52    51    1
   162    44    45    1
   163    44    40   am
   164    28    29    1
   165    32    33   ar
   166    45    46    1
   167    54    53    2
   168    29    31   ar
   169    39    38    1
   170    39    40    1
   171    39    42    1
   172    77    78   ar
   173    77    75   ar
   174    78    76   ar
   175    40    41    2
   176    46    47    2
   177    16    15    1
   178    16    17    1
   179    43    42    1
   180    75    73   ar
   181    33    31   ar
   182    33    35   ar
   183    76    74   ar
   184    31    34   ar
   185    17    18    2
   186    73    74   ar
   187    73    72    1
   188    35    37   ar
   189    34    36   ar
   190    72    69    1
   191    37    36   ar
   192    69    70    1
   193    69    68    1
   194    71    70    2
