@<TRIPOS>MOLECULE
tmp/4zgpA00.pdb
 186 177 0 0 0
SMALL
GASTEIGER

@<TRIPOS>ATOM
      1  N        198.4290    7.1570  166.1800 N.3    26  PRO26      -0.2116
      2  CA       197.9750    8.5530  166.1110 C.3    26  PRO26       0.1372
      3  C        198.7520    9.4640  167.0470 C.2    26  PRO26       0.2244
      4  O        199.2380    9.0490  168.1050 O.2    26  PRO26      -0.2868
      5  CB       196.5060    8.4590  166.5160 C.3    26  PRO26       0.0268
      6  CG       196.1030    7.0410  166.1370 C.3    26  PRO26       0.0207
      7  CD       197.3260    6.2380  166.5100 C.3    26  PRO26       0.0892
      8  N        192.1390   12.6230  173.8540 N.3    72  VAL72      -0.1245
      9  CA       191.7150   11.5300  174.7190 C.3    72  VAL72       0.1561
     10  C        192.8380   11.2490  175.7150 C.2    72  VAL72       0.2260
     11  O        193.9630   10.9700  175.3110 O.2    72  VAL72      -0.2867
     12  CB       191.3900   10.2490  173.9060 C.3    72  VAL72       0.0252
     13  CG1      191.1660    9.0690  174.8410 C.3    72  VAL72       0.0019
     14  CG2      190.1600   10.4580  173.0180 C.3    72  VAL72       0.0019
     15  N        194.9390    9.3590  178.9200 N.3    74  LYS74      -0.1245
     16  CA       195.1060    8.0530  179.5950 C.3    74  LYS74       0.1561
     17  C        196.3520    8.1420  180.4810 C.2    74  LYS74       0.2260
     18  O        197.1190    9.0990  180.3610 O.2    74  LYS74      -0.2867
     19  CB       195.2150    6.9000  178.5760 C.3    74  LYS74       0.0271
     20  CG       196.4420    6.9680  177.6760 C.3    74  LYS74       0.0035
     21  CD       196.5000    5.8190  176.6390 C.3    74  LYS74       0.0206
     22  CE       196.9440    4.5100  177.3000 C.3    74  LYS74       0.1093
     23  NZ       196.9430    3.3340  176.3570 N.3    74  LYS74      -0.1314
     24  N        198.8110    2.8800  181.1060 N.3    77  TRP77      -0.1227
     25  CA       198.2550    1.7140  180.3990 C.3    77  TRP77       0.1737
     26  C        196.8080    1.8600  179.9510 C.2    77  TRP77       0.2596
     27  O        196.4820    1.4560  178.8370 O.2    77  TRP77      -0.2718
     28  CB       198.3470    0.4380  181.2440 C.3    77  TRP77       0.0564
     29  CG       199.7370    0.1030  181.6780 C.ar   77  TRP77       0.0003
     30  CD1      200.6760   -0.6210  180.9820 C.ar   77  TRP77       0.0946
     31  CD2      200.3510    0.4940  182.9000 C.ar   77  TRP77       0.0152
     32  NE1      201.8460   -0.6940  181.7120 N.ar   77  TRP77      -0.2442
     33  CE2      201.6640   -0.0340  182.9020 C.ar   77  TRP77       0.0810
     34  CE3      199.9120    1.2280  184.0130 C.ar   77  TRP77       0.0012
     35  CZ2      202.5440    0.1670  183.9570 C.ar   77  TRP77       0.0191
     36  CZ3      200.7830    1.4200  185.0620 C.ar   77  TRP77       0.0001
     37  CH2      202.0900    0.8900  185.0280 C.ar   77  TRP77       0.0015
     38  N        195.9500    2.4170  180.8050 N.am   78  SER78      -0.1938
     39  CA       194.5070    2.2950  180.6000 C.3    78  SER78       0.2055
     40  C        193.8060    3.6010  180.2020 C.2    78  SER78       0.2643
     41  O        193.9700    4.6320  180.8440 O.2    78  SER78      -0.2714
     42  CB       193.8530    1.7410  181.8690 C.3    78  SER78       0.2130
     43  OG       194.5150    0.5700  182.3110 O.3    78  SER78      -0.2179
     44  N        193.0430    3.5230  179.1260 N.am   79  THR79      -0.1950
     45  CA       192.1710    4.6120  178.6710 C.3    79  THR79       0.1897
     46  C        190.8720    4.5380  179.4740 C.2    79  THR79       0.2313
     47  O        190.3340    3.4490  179.6540 O.2    79  THR79      -0.2863
     48  CB       191.9160    4.4930  177.1400 C.3    79  THR79       0.1794
     49  OG1      193.1800    4.4740  176.4510 O.3    79  THR79      -0.2208
     50  CG2      191.0700    5.6340  176.5990 C.3    79  THR79       0.0378
     51  N        187.8430    4.4510  179.2940 N.3    81  LYS81      -0.1245
     52  CA       186.7040    4.1530  178.4360 C.3    81  LYS81       0.1561
     53  C        185.4750    3.8380  179.2870 C.2    81  LYS81       0.2260
     54  O        184.3380    3.9010  178.8190 O.2    81  LYS81      -0.2867
     55  CB       187.0200    2.9800  177.5070 C.3    81  LYS81       0.0271
     56  CG       187.5190    1.7500  178.2400 C.3    81  LYS81       0.0035
     57  CD       187.6050    0.5240  177.3340 C.3    81  LYS81       0.0206
     58  CE       188.2600   -0.6590  178.0490 C.3    81  LYS81       0.1093
     59  NZ       189.7440   -0.5060  178.2060 N.3    81  LYS81      -0.1314
     60  N        184.8040   10.4460  174.9960 N.3    92  LEU92      -0.1245
     61  CA       186.1320   10.5180  175.5750 C.3    92  LEU92       0.1561
     62  C        186.8180   11.8270  175.1920 C.2    92  LEU92       0.2260
     63  O        187.8590   12.1750  175.7470 O.2    92  LEU92      -0.2867
     64  CB       186.9980    9.3360  175.1140 C.3    92  LEU92       0.0270
     65  CG       186.7590    7.9850  175.7870 C.3    92  LEU92       0.0019
     66  CD1      187.6350    6.9400  175.1310 C.3    92  LEU92       0.0001
     67  CD2      187.0900    8.0980  177.2420 C.3    92  LEU92       0.0001
     68  N        196.2820   11.8550  173.8880 N.3   139  LYS139     -0.1231
     69  CA       196.2170   11.4760  172.4840 C.3   139  LYS139      0.1693
     70  C        195.3650   12.4340  171.7060 C.2   139  LYS139      0.2592
     71  O        194.2990   12.8000  172.1730 O.2   139  LYS139     -0.2718
     72  CB       195.6460   10.0650  172.3580 C.3   139  LYS139      0.0285
     73  CG       196.4970    9.0880  173.1660 C.3   139  LYS139      0.0035
     74  CD       196.0110    7.6940  173.0410 C.3   139  LYS139      0.0206
     75  CE       194.6230    7.5580  173.6010 C.3   139  LYS139      0.1093
     76  NZ       194.0510    6.3120  173.0330 N.3   139  LYS139     -0.1314
     77  N        195.7950   12.8060  170.5040 N.am  140  GLU140     -0.1966
     78  CA       194.9330   13.6290  169.6620 C.3   140  GLU140      0.1733
     79  C        193.6230   12.8980  169.4040 C.2   140  GLU140      0.2616
     80  O        193.6280   11.7460  168.9990 O.2   140  GLU140     -0.2715
     81  CB       195.5990   13.9770  168.3370 C.3   140  GLU140      0.0429
     82  CG       194.6640   14.7410  167.4170 C.3   140  GLU140      0.1163
     83  CD       195.3880   15.4810  166.3220 C.2   140  GLU140      0.3649
     84  OE1      196.6400   15.5230  166.3440 O.co2 140  GLU140     -0.2457
     85  OE2      194.6900   16.0220  165.4400 O.co2 140  GLU140     -0.2457
     86  N        192.5040   13.5640  169.6650 N.am  141  TRP141     -0.1960
     87  CA       191.2040   12.9800  169.4080 C.3   141  TRP141      0.1771
     88  C        190.9090   12.9570  167.9230 C.2   141  TRP141      0.2619
     89  O        191.2220   13.8930  167.1980 O.2   141  TRP141     -0.2715
     90  CB       190.1050   13.7440  170.1540 C.3   141  TRP141      0.0590
     91  CG       188.7100   13.2530  169.8380 C.ar  141  TRP141      0.0006
     92  CD1      188.0180   12.2640  170.4840 C.ar  141  TRP141      0.0946
     93  CD2      187.8500   13.7320  168.8040 C.ar  141  TRP141      0.0152
     94  NE1      186.7810   12.0970  169.9120 N.ar  141  TRP141     -0.2442
     95  CE2      186.6540   12.9850  168.8750 C.ar  141  TRP141      0.0810
     96  CE3      187.9790   14.7100  167.8120 C.ar  141  TRP141      0.0012
     97  CZ2      185.5940   13.1930  168.0000 C.ar  141  TRP141      0.0191
     98  CZ3      186.9200   14.9190  166.9450 C.ar  141  TRP141      0.0001
     99  CH2      185.7450   14.1630  167.0430 C.ar  141  TRP141      0.0015
    100  N        190.3090   11.8700  167.4620 N.am  142  PHE142     -0.1974
    101  CA       189.7680   11.8440  166.1240 C.3   142  PHE142      0.1639
    102  C        188.5180   10.9760  166.1440 C.2   142  PHE142      0.2290
    103  O        188.4140   10.0300  166.9250 O.2   142  PHE142     -0.2864
    104  CB       190.7980   11.3290  165.1220 C.3   142  PHE142      0.0560
    105  CG       191.3740   10.0070  165.4880 C.ar  142  PHE142     -0.0200
    106  CD1      192.4180    9.9140  166.4080 C.ar  142  PHE142     -0.0042
    107  CD2      190.8590    8.8420  164.9330 C.ar  142  PHE142     -0.0042
    108  CE1      192.9490    8.6750  166.7570 C.ar  142  PHE142     -0.0003
    109  CE2      191.3900    7.6040  165.2780 C.ar  142  PHE142     -0.0003
    110  CZ       192.4330    7.5280  166.1930 C.ar  142  PHE142     -0.0000
    111  N        186.5010    7.9900  165.3440 N.3   144  MET144     -0.1245
    112  CA       186.8660    6.7060  164.7510 C.3   144  MET144      0.1570
    113  C        185.6630    5.7750  164.6760 C.2   144  MET144      0.2261
    114  O        184.8240    5.7570  165.5720 O.2   144  MET144     -0.2867
    115  CB       188.0290    6.0470  165.5090 C.3   144  MET144      0.0387
    116  CG       187.8360    5.8340  166.9920 C.3   144  MET144      0.0595
    117  SD       188.8700    4.4680  167.6030 S.3   144  MET144     -0.1393
    118  CE       190.4970    4.8870  167.0150 C.3   144  MET144      0.0692
    119  N        183.8670    2.7430  165.3580 N.3   146  ALA146     -0.1245
    120  CA       184.0890    1.7500  166.4060 C.3   146  ALA146      0.1562
    121  C        184.2160    0.3400  165.8420 C.2   146  ALA146      0.2260
    122  O        184.9330   -0.5000  166.4080 O.2   146  ALA146     -0.2867
    123  CB       182.9610    1.8040  167.4360 C.3   146  ALA146      0.0290
    124  N        187.7100   -1.2360  164.4310 N.3   149  GLU149     -0.1245
    125  CA       188.8150   -1.4280  165.3570 C.3   149  GLU149      0.1567
    126  C        188.8960   -2.9040  165.7350 C.2   149  GLU149      0.2260
    127  O        187.8740   -3.5860  165.8630 O.2   149  GLU149     -0.2867
    128  CB       188.6680   -0.5550  166.6040 C.3   149  GLU149      0.0388
    129  CG       190.0100   -0.0450  167.1050 C.3   149  GLU149      0.1160
    130  CD       190.0400    0.2430  168.5830 C.2   149  GLU149      0.3649
    131  OE1      188.9890    0.6350  169.1400 O.co2 149  GLU149     -0.2457
    132  OE2      191.1220    0.0710  169.1780 O.co2 149  GLU149     -0.2457
    133  N        191.1540   -6.1640  167.9880 N.3   151  ARG151     -0.1245
    134  CA       192.1170   -6.5570  169.0010 C.3   151  ARG151      0.1563
    135  C        192.8340   -7.8050  168.5010 C.2   151  ARG151      0.2260
    136  O        192.1860   -8.7430  168.0580 O.2   151  ARG151     -0.2867
    137  CB       191.4260   -6.8150  170.3310 C.3   151  ARG151      0.0307
    138  CG       192.3750   -7.3500  171.4000 C.3   151  ARG151      0.0489
    139  CD       191.8920   -7.0200  172.8040 C.3   151  ARG151      0.2205
    140  NE       191.9970   -5.5940  173.1060 N.pl3 151  ARG151     -0.0865
    141  CZ       191.6980   -5.0590  174.2840 C.cat 151  ARG151      0.5346
    142  NH1      191.2440   -5.8340  175.2600 N.pl3 151  ARG151      0.1354
    143  NH2      191.8510   -3.7420  174.4880 N.pl3 151  ARG151      0.1354
    144  N        186.5940   -5.2000  167.8130 N.3   165  ARG165     -0.1245
    145  CA       186.8030   -4.6030  169.1300 C.3   165  ARG165      0.1563
    146  C        185.4950   -4.2210  169.8220 C.2   165  ARG165      0.2260
    147  O        185.3720   -4.3260  171.0420 O.2   165  ARG165     -0.2867
    148  CB       187.7100   -3.3690  168.9980 C.3   165  ARG165      0.0307
    149  CG       187.8970   -2.5540  170.2760 C.3   165  ARG165      0.0489
    150  CD       188.7740   -3.2830  171.2630 C.3   165  ARG165      0.2205
    151  NE       188.9960   -2.5080  172.4780 N.pl3 165  ARG165     -0.0865
    152  CZ       188.1760   -2.5150  173.5260 C.cat 165  ARG165      0.5346
    153  NH1      188.4660   -1.7880  174.5910 N.pl3 165  ARG165      0.1354
    154  NH2      187.0670   -3.2430  173.5070 N.pl3 165  ARG165      0.1354
    155  N        195.9530   -3.3170  169.7300 N.3   202  ASP202     -0.1239
    156  CA       194.6750   -2.8540  169.1930 C.3   202  ASP202      0.1674
    157  C        194.9620   -2.0380  167.9520 C.2   202  ASP202      0.2266
    158  O        195.9520   -1.3070  167.9020 O.2   202  ASP202     -0.2867
    159  CB       193.8890   -2.0110  170.2120 C.3   202  ASP202      0.1410
    160  CG       193.4010   -2.8340  171.3980 C.2   202  ASP202      0.3668
    161  OD1      193.3020   -4.0730  171.2740 O.co2 202  ASP202     -0.2456
    162  OD2      193.1290   -2.2490  172.4550 O.co2 202  ASP202     -0.2456
    163  N        196.7840    1.3340  167.9820 N.3   213  ILE213     -0.1231
    164  CA       196.0960    2.1220  169.0030 C.3   213  ILE213      0.1692
    165  C        196.6220    1.8410  170.4070 C.2   213  ILE213      0.2592
    166  O        196.7620    2.7500  171.2230 O.2   213  ILE213     -0.2718
    167  CB       194.5640    1.8700  168.9540 C.3   213  ILE213      0.0266
    168  CG1      194.0180    2.2720  167.5790 C.3   213  ILE213      0.0019
    169  CG2      193.8380    2.6030  170.0770 C.3   213  ILE213      0.0020
    170  CD1      194.2100    3.7660  167.2520 C.3   213  ILE213      0.0001
    171  N        196.9500    0.5810  170.6960 N.am  214  ASP214     -0.1974
    172  CA       197.4310    0.2660  172.0360 C.3   214  ASP214      0.1709
    173  C        198.1490   -1.0730  171.9980 C.2   214  ASP214      0.2293
    174  O        197.9700   -1.8450  171.0630 O.2   214  ASP214     -0.2864
    175  CB       196.2690    0.2190  173.0400 C.3   214  ASP214      0.1436
    176  CG       196.7230    0.4040  174.4960 C.2   214  ASP214      0.3671
    177  OD1      197.8870    0.7620  174.7650 O.co2 214  ASP214     -0.2456
    178  OD2      195.8880    0.2060  175.3890 O.co2 214  ASP214     -0.2456
    179  N        198.9850   -4.2220  174.8910 N.3   216  ASN216     -0.1240
    180  CA       198.6890   -4.7000  176.2310 C.3   216  ASN216      0.1653
    181  C        199.3230   -6.0680  176.4950 C.2   216  ASN216      0.2266
    182  O        199.6670   -6.7540  175.5500 O.2   216  ASN216     -0.2867
    183  CB       197.1860   -4.8060  176.4200 C.3   216  ASN216      0.1155
    184  CG       196.5350   -3.4560  176.5340 C.2   216  ASN216      0.2627
    185  OD1      196.7740   -2.7360  177.4920 O.2   216  ASN216     -0.2716
    186  ND2      195.7120   -3.1080  175.5630 N.am  216  ASN216     -0.0877
@<TRIPOS>BOND
     1   124   125    1
     2   113   112    1
     3   113   114    2
     4   112   111    1
     5   112   115    1
     6   107   109   ar
     7   107   105   ar
     8   104   105    1
     9   104   101    1
    10   109   110   ar
    11   125   126    1
    12   125   128    1
    13   119   120    1
    14    85    83   ar
    15   105   106   ar
    16   115   116    1
    17   126   127    2
    18   121   120    1
    19   121   122    2
    20     2     1    1
    21     2     5    1
    22     2     3    1
    23   101   102    1
    24   101   100    1
    25     6     7    1
    26     6     5    1
    27   102   103    2
    28     1     7    1
    29   110   108   ar
    30    83    84   ar
    31    83    82    1
    32   120   123    1
    33   106   108   ar
    34   128   129    1
    35    98    99   ar
    36    98    96   ar
    37   116   117    1
    38   118   117    1
    39    99    97   ar
    40     3     4    2
    41   129   130    1
    42    89    88    2
    43   170   168    1
    44    82    81    1
    45   100    88   am
    46   168   167    1
    47    96    93   ar
    48   144   145    1
    49   158   157    2
    50    88    87    1
    51   157   156    1
    52   163   164    1
    53   133   134    1
    54    97    95   ar
    55   136   135    2
    56    81    78    1
    57   135   134    1
    58   130   131   ar
    59   130   132   ar
    60    93    95   ar
    61    93    91   ar
    62    95    94   ar
    63   167   164    1
    64   167   169    1
    65   148   145    1
    66   148   149    1
    67    80    79    2
    68   134   137    1
    69   164   165    1
    70   145   146    1
    71   156   155    1
    72   156   159    1
    73    79    78    1
    74    79    86   am
    75    87    86    1
    76    87    90    1
    77    78    77    1
    78   146   147    2
    79    91    90    1
    80    91    92   ar
    81    94    92   ar
    82   159   160    1
    83   149   150    1
    84   137   138    1
    85   165   171   am
    86   165   166    2
    87    77    70   am
    88   171   172    1
    89   174   173    2
    90   150   151    1
    91   161   160   ar
    92   160   162   ar
    93   138   139    1
    94    70    71    2
    95    70    69    1
    96   173   172    1
    97   172   175    1
    98    72    69    1
    99    72    73    1
   100   151   152    2
   101    69    68    1
   102   139   140    1
   103    14    12    1
   104    76    75    1
   105   175   176    1
   106    74    73    1
   107    74    75    1
   108   140   141    2
   109   154   152    1
   110   152   153    1
   111     8     9    1
   112    12     9    1
   113    12    13    1
   114   141   143    1
   115   141   142    1
   116   176   177   ar
   117   176   178   ar
   118     9    10    1
   119   179   180    1
   120    60    61    1
   121    64    61    1
   122    64    65    1
   123    66    65    1
   124    62    61    1
   125    62    63    2
   126    11    10    2
   127   182   181    2
   128   186   184   am
   129    65    67    1
   130   180   183    1
   131   180   181    1
   132    23    22    1
   133   183   184    1
   134    49    48    1
   135   184   185    2
   136    50    48    1
   137    21    22    1
   138    21    20    1
   139    48    45    1
   140    57    58    1
   141    57    56    1
   142    55    56    1
   143    55    52    1
   144    20    19    1
   145    58    59    1
   146    52    53    1
   147    52    51    1
   148    19    16    1
   149    45    44    1
   150    45    46    1
   151    54    53    2
   152    27    26    2
   153    15    16    1
   154    44    40   am
   155    46    47    2
   156    16    17    1
   157    26    25    1
   158    26    38   am
   159    40    39    1
   160    40    41    2
   161    18    17    2
   162    25    24    1
   163    25    28    1
   164    39    38    1
   165    39    42    1
   166    30    29   ar
   167    30    32   ar
   168    28    29    1
   169    29    31   ar
   170    32    33   ar
   171    42    43    1
   172    31    33   ar
   173    31    34   ar
   174    33    35   ar
   175    35    37   ar
   176    34    36   ar
   177    37    36   ar
