@<TRIPOS>MOLECULE
tmp/4zgvA04.pdb
 87 83 0 0 0
SMALL
GASTEIGER

@<TRIPOS>ATOM
      1  N         23.4840   50.5720   44.6190 N.3   501  LEU501     -0.1245
      2  CA        24.3340   50.1760   45.7580 C.3   501  LEU501      0.1561
      3  C         23.6450   49.0850   46.5230 C.2   501  LEU501      0.2260
      4  O         22.4330   48.9320   46.4530 O.2   501  LEU501     -0.2867
      5  CB        24.5750   51.3020   46.7620 C.3   501  LEU501      0.0270
      6  CG        24.8130   52.7100   46.2490 C.3   501  LEU501      0.0019
      7  CD1       24.5600   53.7260   47.3520 C.3   501  LEU501      0.0001
      8  CD2       26.2320   52.7980   45.7050 C.3   501  LEU501      0.0001
      9  N         29.7390   45.6210   51.1630 N.3   563  LEU563     -0.1231
     10  CA        29.3560   46.8830   50.5350 C.3   563  LEU563      0.1693
     11  C         29.7980   46.7970   49.0950 C.2   563  LEU563      0.2593
     12  O         30.9020   46.3100   48.8060 O.2   563  LEU563     -0.2718
     13  CB        30.0430   48.0870   51.1820 C.3   563  LEU563      0.0284
     14  CG        29.4590   48.6510   52.4680 C.3   563  LEU563      0.0019
     15  CD1       30.4770   49.6030   53.0790 C.3   563  LEU563      0.0001
     16  CD2       28.1290   49.3300   52.1920 C.3   563  LEU563      0.0001
     17  N         28.9470   47.2740   48.1950 N.am  564  GLY564     -0.1942
     18  CA        29.2400   47.1850   46.7810 C.3   564  GLY564      0.2014
     19  C         28.4920   48.1820   45.9390 C.2   564  GLY564      0.2638
     20  O         27.7610   49.0320   46.4460 O.2   564  GLY564     -0.2714
     21  N         28.6860   48.0610   44.6330 N.am  565  LEU565     -0.1977
     22  CA        28.1810   49.0380   43.6810 C.3   565  LEU565      0.1596
     23  C         28.2290   48.4330   42.2900 C.2   565  LEU565      0.2287
     24  O         29.2370   47.8620   41.8910 O.2   565  LEU565     -0.2864
     25  CB        29.0250   50.3120   43.7680 C.3   565  LEU565      0.0297
     26  CG        28.8720   51.3990   42.7140 C.3   565  LEU565      0.0022
     27  CD1       29.0460   52.7490   43.3860 C.3   565  LEU565      0.0001
     28  CD2       29.8760   51.2330   41.5780 C.3   565  LEU565      0.0001
     29  N         32.8910   45.1750   44.4910 N.3   577  LYS577     -0.1231
     30  CA        32.3910   44.9820   45.8470 C.3   577  LYS577      0.1693
     31  C         33.4390   44.5650   46.8690 C.2   577  LYS577      0.2592
     32  O         34.4340   43.9310   46.5260 O.2   577  LYS577     -0.2718
     33  CB        31.2280   43.9860   45.8470 C.3   577  LYS577      0.0285
     34  CG        31.5990   42.5210   45.6510 C.3   577  LYS577      0.0035
     35  CD        30.3940   41.6120   45.9150 C.3   577  LYS577      0.0206
     36  CE        30.7830   40.2550   46.4970 C.3   577  LYS577      0.1093
     37  NZ        31.1760   39.3060   45.4190 N.3   577  LYS577     -0.1314
     38  N         33.1730   44.9190   48.1290 N.am  578  TRP578     -0.1976
     39  CA        34.0530   44.6280   49.2670 C.3   578  TRP578      0.1640
     40  C         33.3480   43.6810   50.2140 C.2   578  TRP578      0.2290
     41  O         32.1440   43.7850   50.4180 O.2   578  TRP578     -0.2864
     42  CB        34.4040   45.9260   50.0040 C.3   578  TRP578      0.0576
     43  CG        35.0220   45.7770   51.4070 C.ar  578  TRP578      0.0006
     44  CD1       36.3010   45.4100   51.7070 C.ar  578  TRP578      0.0946
     45  CD2       34.3780   46.0490   52.6770 C.ar  578  TRP578      0.0152
     46  NE1       36.4880   45.4150   53.0710 N.ar  578  TRP578     -0.2442
     47  CE2       35.3260   45.8080   53.6860 C.ar  578  TRP578      0.0810
     48  CE3       33.0840   46.4660   53.0550 C.ar  578  TRP578      0.0012
     49  CZ2       35.0220   45.9720   55.0560 C.ar  578  TRP578      0.0191
     50  CZ3       32.7850   46.6260   54.4250 C.ar  578  TRP578      0.0001
     51  CH2       33.7470   46.3780   55.3960 C.ar  578  TRP578      0.0015
     52  N         34.1390   41.6330   54.1030 N.3   580  ASN580     -0.1240
     53  CA        35.0490   41.3070   55.1940 C.3   580  ASN580      0.1653
     54  C         34.4780   40.2230   56.0880 C.2   580  ASN580      0.2266
     55  O         33.3080   40.2690   56.4480 O.2   580  ASN580     -0.2867
     56  CB        35.3930   42.5270   56.0220 C.3   580  ASN580      0.1155
     57  CG        36.3620   42.1900   57.1170 C.2   580  ASN580      0.2627
     58  OD1       36.0070   41.5220   58.0810 O.2   580  ASN580     -0.2716
     59  ND2       37.6010   42.5880   56.9490 N.am  580  ASN580     -0.0877
     60  N         40.7300   35.9030   59.5100 N.3   609  GLU609     -0.1245
     61  CA        40.1700   37.0840   58.8550 C.3   609  GLU609      0.1567
     62  C         40.1500   36.8320   57.3380 C.2   609  GLU609      0.2260
     63  O         40.9260   36.0380   56.8050 O.2   609  GLU609     -0.2867
     64  CB        40.9730   38.3630   59.1870 C.3   609  GLU609      0.0388
     65  CG        40.1520   39.4690   59.8630 C.3   609  GLU609      0.1160
     66  CD        40.6130   40.8940   59.5410 C.2   609  GLU609      0.3649
     67  OE1       39.9280   41.5590   58.7270 O.co2 609  GLU609     -0.2457
     68  OE2       41.6320   41.3590   60.1090 O.co2 609  GLU609     -0.2457
     69  N         39.4590   39.4280   53.7160 N.3   611  ASN611     -0.1240
     70  CA        39.1440   40.7470   53.2130 C.3   611  ASN611      0.1653
     71  C         39.4020   40.8040   51.7330 C.2   611  ASN611      0.2266
     72  O         40.5420   40.6790   51.3170 O.2   611  ASN611     -0.2867
     73  CB        39.9780   41.8040   53.9240 C.3   611  ASN611      0.1155
     74  CG        39.3390   43.1750   53.8560 C.2   611  ASN611      0.2627
     75  OD1       38.8390   43.5920   52.8090 O.2   611  ASN611     -0.2716
     76  ND2       39.3420   43.8830   54.9780 N.am  611  ASN611     -0.0877
     77  N         38.5230   42.7860   47.9270 N.3   613  PHE613     -0.1241
     78  CA        37.9600   43.7720   46.9870 C.3   613  PHE613      0.1605
     79  C         37.8890   43.1080   45.6110 C.2   613  PHE613      0.2264
     80  O         38.9000   42.6380   45.0940 O.2   613  PHE613     -0.2867
     81  CB        38.8260   45.0400   46.9030 C.3   613  PHE613      0.0534
     82  CG        38.9330   45.8000   48.1990 C.ar  613  PHE613     -0.0203
     83  CD1       39.9570   45.5190   49.1110 C.ar  613  PHE613     -0.0042
     84  CD2       38.0160   46.8020   48.5080 C.ar  613  PHE613     -0.0042
     85  CE1       40.0570   46.2210   50.3040 C.ar  613  PHE613     -0.0003
     86  CE2       38.1100   47.5050   49.7010 C.ar  613  PHE613     -0.0003
     87  CZ        39.1320   47.2160   50.5990 C.ar  613  PHE613     -0.0000
@<TRIPOS>BOND
     1    28    26    1
     2    24    23    2
     3    23    22    1
     4    26    27    1
     5    26    25    1
     6    22    25    1
     7    22    21    1
     8    29    30    1
     9     1     2    1
    10    21    19   am
    11    80    79    2
    12    37    36    1
    13    79    78    1
    14    34    33    1
    15    34    35    1
    16     8     6    1
    17     2     3    1
    18     2     5    1
    19    33    30    1
    20    30    31    1
    21    35    36    1
    22    19    20    2
    23    19    18    1
    24     6     5    1
    25     6     7    1
    26     4     3    2
    27    32    31    2
    28    18    17    1
    29    31    38   am
    30    81    78    1
    31    81    82    1
    32    78    77    1
    33    38    39    1
    34    17    11   am
    35    82    84   ar
    36    82    83   ar
    37    84    86   ar
    38    12    11    2
    39    11    10    1
    40    83    85   ar
    41    39    42    1
    42    39    40    1
    43    86    87   ar
    44    42    43    1
    45    40    41    2
    46    85    87   ar
    47    10     9    1
    48    10    13    1
    49    13    14    1
    50    72    71    2
    51    43    44   ar
    52    43    45   ar
    53    44    46   ar
    54    71    70    1
    55    16    14    1
    56    14    15    1
    57    45    48   ar
    58    45    47   ar
    59    75    74    2
    60    48    50   ar
    61    46    47   ar
    62    70    69    1
    63    70    73    1
    64    47    49   ar
    65    74    73    1
    66    74    76   am
    67    52    53    1
    68    50    51   ar
    69    49    51   ar
    70    53    56    1
    71    53    54    1
    72    56    57    1
    73    54    55    2
    74    63    62    2
    75    59    57   am
    76    57    58    2
    77    62    61    1
    78    67    66   ar
    79    61    64    1
    80    61    60    1
    81    64    65    1
    82    66    65    1
    83    66    68   ar
