@<TRIPOS>MOLECULE
tmp/4zgvA02.pdb
 107 106 0 0 0
SMALL
GASTEIGER

@<TRIPOS>ATOM
      1  N         17.4170    9.1210   42.8880 N.3   257  GLY257     -0.1210
      2  CA        18.2410    8.1190   43.5250 C.3   257  GLY257      0.1956
      3  C         19.6310    8.2890   42.9720 C.2   257  GLY257      0.2612
      4  O         19.7770    8.5010   41.7760 O.2   257  GLY257     -0.2717
      5  N         20.6450    8.1960   43.8250 N.am  258  MET258     -0.1965
      6  CA        22.0250    8.3850   43.3970 C.3   258  MET258      0.1736
      7  C         22.9200    7.3730   44.0560 C.2   258  MET258      0.2616
      8  O         22.6720    6.9930   45.1750 O.2   258  MET258     -0.2715
      9  CB        22.5110    9.7720   43.7760 C.3   258  MET258      0.0427
     10  CG        23.7200   10.2440   42.9810 C.3   258  MET258      0.0599
     11  SD        24.3600   11.8390   43.5470 S.3   258  MET258     -0.1393
     12  CE        22.9970   12.9140   43.0660 C.3   258  MET258      0.0692
     13  N         23.9590    6.9410   43.3580 N.am  259  TYR259     -0.1974
     14  CA        24.9520    6.0620   43.9400 C.3   259  TYR259      0.1639
     15  C         26.2820    6.5320   43.4570 C.2   259  TYR259      0.2290
     16  O         26.5020    6.5170   42.2630 O.2   259  TYR259     -0.2864
     17  CB        24.7500    4.6320   43.4930 C.3   259  TYR259      0.0560
     18  CG        25.8230    3.6880   44.0070 C.ar  259  TYR259     -0.0198
     19  CD1       26.2950    3.7650   45.3300 C.ar  259  TYR259     -0.0009
     20  CD2       26.3530    2.6980   43.1970 C.ar  259  TYR259     -0.0009
     21  CE1       27.2680    2.8930   45.8120 C.ar  259  TYR259      0.0417
     22  CE2       27.3190    1.8180   43.6860 C.ar  259  TYR259      0.0417
     23  CZ        27.7680    1.9210   44.9890 C.ar  259  TYR259      0.1957
     24  OH        28.7260    1.0540   45.4500 O.3   259  TYR259     -0.2866
     25  N         29.9490    5.8250   44.5270 N.3   261  PRO261     -0.2116
     26  CA        31.1620    5.3210   45.1210 C.3   261  PRO261      0.1372
     27  C         32.3730    5.8800   44.3900 C.2   261  PRO261      0.2244
     28  O         32.3250    6.0550   43.1680 O.2   261  PRO261     -0.2868
     29  CB        31.0530    3.8210   44.8770 C.3   261  PRO261      0.0268
     30  CG        30.3810    3.7190   43.5600 C.3   261  PRO261      0.0207
     31  CD        29.3960    4.8600   43.5580 C.3   261  PRO261      0.0892
     32  N         35.1370    5.4130   49.2800 N.3   280  GLY280     -0.1210
     33  CA        34.3770    6.5590   49.7970 C.3   280  GLY280      0.1956
     34  C         33.0570    6.6350   49.0360 C.2   280  GLY280      0.2612
     35  O         32.7240    5.7390   48.2380 O.2   280  GLY280     -0.2717
     36  N         32.2890    7.6850   49.2850 N.am  281  GLY281     -0.1942
     37  CA        30.9750    7.8130   48.6530 C.3   281  GLY281      0.2014
     38  C         29.8940    7.0040   49.3330 C.2   281  GLY281      0.2639
     39  O         30.0590    6.5660   50.4700 O.2   281  GLY281     -0.2714
     40  N         28.7870    6.7940   48.6200 N.am  282  GLY282     -0.1939
     41  CA        27.5810    6.1630   49.1880 C.3   282  GLY282      0.2014
     42  C         26.3830    6.3200   48.2590 C.2   282  GLY282      0.2639
     43  O         26.5590    6.2600   47.0370 O.2   282  GLY282     -0.2714
     44  N         25.1930    6.5570   48.8300 N.am  283  TYR283     -0.1959
     45  CA        24.0020    6.7370   48.0390 C.3   283  TYR283      0.1771
     46  C         22.9140    7.5600   48.6980 C.2   283  TYR283      0.2619
     47  O         22.9940    7.8570   49.8710 O.2   283  TYR283     -0.2715
     48  CB        23.4510    5.3780   47.6930 C.3   283  TYR283      0.0574
     49  CG        23.3110    4.4800   48.8650 C.ar  283  TYR283     -0.0198
     50  CD1       22.1490    4.4620   49.6420 C.ar  283  TYR283     -0.0009
     51  CD2       24.3210    3.6300   49.1890 C.ar  283  TYR283     -0.0009
     52  CE1       22.0130    3.5990   50.7190 C.ar  283  TYR283      0.0417
     53  CE2       24.2100    2.7750   50.2610 C.ar  283  TYR283      0.0417
     54  CZ        23.0610    2.7560   51.0200 C.ar  283  TYR283      0.1957
     55  OH        23.0470    1.8720   52.0660 O.3   283  TYR283     -0.2866
     56  N         21.8960    7.8960   47.9110 N.am  284  ARG284     -0.1963
     57  CA        20.7800    8.7050   48.3360 C.3   284  ARG284      0.1729
     58  C         19.4230    8.1700   47.8830 C.2   284  ARG284      0.2616
     59  O         19.3550    7.3740   46.9500 O.2   284  ARG284     -0.2715
     60  CB        20.8980   10.0430   47.6770 C.3   284  ARG284      0.0348
     61  CG        21.8540   10.9690   48.3230 C.3   284  ARG284      0.0492
     62  CD        21.8070   12.2600   47.5460 C.3   284  ARG284      0.2205
     63  NE        22.4810   13.3050   48.2840 N.pl3 284  ARG284     -0.0865
     64  CZ        22.3690   14.5900   48.0090 C.cat 284  ARG284      0.5346
     65  NH1       21.6030   15.0010   46.9850 N.pl3 284  ARG284      0.1354
     66  NH2       23.0190   15.4650   48.7700 N.pl3 284  ARG284      0.1354
     67  N         18.3460    8.6620   48.5070 N.am  285  PHE285     -0.1974
     68  CA        17.0210    8.5230   47.9550 C.3   285  PHE285      0.1639
     69  C         16.1870    9.7200   48.3660 C.2   285  PHE285      0.2290
     70  O         16.0140    9.9330   49.5390 O.2   285  PHE285     -0.2864
     71  CB        16.4010    7.2360   48.4500 C.3   285  PHE285      0.0560
     72  CG        15.1290    6.8790   47.7440 C.ar  285  PHE285     -0.0200
     73  CD1       15.1470    6.4300   46.4100 C.ar  285  PHE285     -0.0042
     74  CD2       13.9100    6.9950   48.3910 C.ar  285  PHE285     -0.0042
     75  CE1       13.9700    6.1010   45.7450 C.ar  285  PHE285     -0.0003
     76  CE2       12.7360    6.6590   47.7420 C.ar  285  PHE285     -0.0003
     77  CZ        12.7620    6.2130   46.4180 C.ar  285  PHE285     -0.0000
     78  N         23.1200    7.3280   53.0690 N.3   306  TYR306     -0.1241
     79  CA        24.3000    6.6270   53.5970 C.3   306  TYR306      0.1605
     80  C         25.5740    6.9260   52.8290 C.2   306  TYR306      0.2264
     81  O         25.5940    6.8080   51.6190 O.2   306  TYR306     -0.2867
     82  CB        24.0700    5.1360   53.4970 C.3   306  TYR306      0.0534
     83  CG        25.0820    4.2720   54.2160 C.ar  306  TYR306     -0.0201
     84  CD1       26.2070    3.8140   53.5750 C.ar  306  TYR306     -0.0009
     85  CD2       24.8690    3.8760   55.5270 C.ar  306  TYR306     -0.0009
     86  CE1       27.0960    2.9900   54.2260 C.ar  306  TYR306      0.0417
     87  CE2       25.7570    3.0670   56.1850 C.ar  306  TYR306      0.0417
     88  CZ        26.8660    2.6260   55.5340 C.ar  306  TYR306      0.1957
     89  OH        27.7350    1.8120   56.2200 O.3   306  TYR306     -0.2866
     90  N         30.0730    6.4920   53.3190 N.3   308  GLU308     -0.1245
     91  CA        31.0510    5.7020   54.0840 C.3   308  GLU308      0.1567
     92  C         32.4710    5.7340   53.5790 C.2   308  GLU308      0.2260
     93  O         32.7260    5.3610   52.4380 O.2   308  GLU308     -0.2867
     94  CB        30.6610    4.2430   54.0920 C.3   308  GLU308      0.0388
     95  CG        31.5830    3.4050   54.9570 C.3   308  GLU308      0.1160
     96  CD        31.4770    1.9180   54.6630 C.2   308  GLU308      0.3649
     97  OE1       31.6750    1.5230   53.4760 O.co2 308  GLU308     -0.2457
     98  OE2       31.2070    1.1410   55.6250 O.co2 308  GLU308     -0.2457
     99  N         35.9360    3.8750   54.0530 N.3   310  LYS310     -0.1245
    100  CA        36.4220    2.5930   54.4940 C.3   310  LYS310      0.1561
    101  C         37.7960    2.3490   53.9060 C.2   310  LYS310      0.2260
    102  O         38.0730    2.7100   52.7510 O.2   310  LYS310     -0.2867
    103  CB        35.4870    1.5000   54.0110 C.3   310  LYS310      0.0271
    104  CG        36.1490    0.1480   53.8190 C.3   310  LYS310      0.0035
    105  CD        35.2090   -0.8690   53.1790 C.3   310  LYS310      0.0206
    106  CE        34.5540   -1.7580   54.2230 C.3   310  LYS310      0.1093
    107  NZ        33.4230   -2.5530   53.6720 N.3   310  LYS310     -0.1314
@<TRIPOS>BOND
     1     4     3    2
     2    16    15    2
     3     1     2    1
     4     3     2    1
     5     3     5   am
     6    10    11    1
     7    10     9    1
     8    12    11    1
     9    28    27    2
    10    20    22   ar
    11    20    18   ar
    12    13    14    1
    13    13     7   am
    14     6     9    1
    15     6     5    1
    16     6     7    1
    17    15    14    1
    18    17    14    1
    19    17    18    1
    20    31    30    1
    21    31    25    1
    22    30    29    1
    23    22    23   ar
    24    18    19   ar
    25     7     8    2
    26    27    26    1
    27    25    26    1
    28    29    26    1
    29    23    24    1
    30    23    21   ar
    31    19    21   ar
    32    75    73   ar
    33    75    77   ar
    34    73    72   ar
    35    77    76   ar
    36    59    58    2
    37    65    64    1
    38    43    42    2
    39    62    63    1
    40    62    61    1
    41    60    61    1
    42    60    57    1
    43    48    45    1
    44    48    49    1
    45    76    74   ar
    46    72    74   ar
    47    72    71    1
    48    58    57    1
    49    58    67   am
    50    56    57    1
    51    56    46   am
    52    68    69    1
    53    68    71    1
    54    68    67    1
    55    64    63    2
    56    64    66    1
    57    45    46    1
    58    45    44    1
    59    35    34    2
    60    42    44   am
    61    42    41    1
    62    69    70    2
    63    40    41    1
    64    40    38   am
    65    37    36    1
    66    37    38    1
    67    46    47    2
    68    49    51   ar
    69    49    50   ar
    70    34    36   am
    71    34    33    1
    72    51    53   ar
    73    32    33    1
    74    38    39    2
    75    50    52   ar
    76    53    54   ar
    77    52    54   ar
    78    54    55    1
    79    81    80    2
    80    93    92    2
    81   102   101    2
    82    80    79    1
    83    78    79    1
    84   105   104    1
    85   105   106    1
    86    90    91    1
    87    97    96   ar
    88    82    79    1
    89    82    83    1
    90    84    83   ar
    91    84    86   ar
    92    92    91    1
    93   107   106    1
    94   104   103    1
    95   101   100    1
    96   103   100    1
    97    99   100    1
    98    91    94    1
    99    94    95    1
   100    83    85   ar
   101    86    88   ar
   102    96    95    1
   103    96    98   ar
   104    85    87   ar
   105    88    87   ar
   106    88    89    1
