@<TRIPOS>MOLECULE
tmp/4zgxC01.pdb
 180 176 0 0 0
SMALL
GASTEIGER

@<TRIPOS>ATOM
      1  N         32.1180  -10.8440  170.7960 N.3    83  TRP83      -0.1241
      2  CA        32.1520  -12.2410  170.3520 C.3    83  TRP83       0.1605
      3  C         31.8810  -12.3660  168.8630 C.2    83  TRP83       0.2264
      4  O         32.6040  -13.0810  168.1680 O.2    83  TRP83      -0.2867
      5  CB        31.1470  -13.0800  171.1500 C.3    83  TRP83       0.0550
      6  CG        31.4870  -13.2930  172.6050 C.ar   83  TRP83       0.0003
      7  CD1       32.1680  -12.4470  173.4380 C.ar   83  TRP83       0.0946
      8  CD2       31.0630  -14.3930  173.4150 C.ar   83  TRP83       0.0152
      9  NE1       32.2280  -12.9750  174.7030 N.ar   83  TRP83      -0.2442
     10  CE2       31.5590  -14.1710  174.7180 C.ar   83  TRP83       0.0810
     11  CE3       30.3270  -15.5620  173.1590 C.ar   83  TRP83       0.0012
     12  CZ2       31.3310  -15.0670  175.7610 C.ar   83  TRP83       0.0191
     13  CZ3       30.1140  -16.4490  174.1880 C.ar   83  TRP83       0.0001
     14  CH2       30.6160  -16.2040  175.4700 C.ar   83  TRP83       0.0015
     15  N         34.1630  -13.5830  165.1610 N.3    87  ARG87      -0.1245
     16  CA        33.6340  -14.4930  164.1460 C.3    87  ARG87       0.1563
     17  C         33.7180  -13.8590  162.7480 C.2    87  ARG87       0.2260
     18  O         34.2150  -14.5050  161.8280 O.2    87  ARG87      -0.2867
     19  CB        32.1830  -14.9230  164.4620 C.3    87  ARG87       0.0307
     20  CG        31.8800  -15.3200  165.9180 C.3    87  ARG87       0.0489
     21  CD        32.4560  -16.6660  166.3250 C.3    87  ARG87       0.2205
     22  NE        31.9320  -17.1590  167.6010 N.pl3  87  ARG87      -0.0865
     23  CZ        32.3930  -16.7940  168.7910 C.cat  87  ARG87       0.5346
     24  NH1       31.8750  -17.3110  169.8950 N.pl3  87  ARG87       0.1354
     25  NH2       33.3550  -15.8890  168.8870 N.pl3  87  ARG87       0.1354
     26  N         24.1620  -19.7070  170.1890 N.3    97  PHE97      -0.1241
     27  CA        24.2310  -18.7600  171.2980 C.3    97  PHE97       0.1605
     28  C         24.2590  -17.3110  170.8230 C.2    97  PHE97       0.2264
     29  O         23.6040  -16.4670  171.4350 O.2    97  PHE97      -0.2867
     30  CB        25.4330  -19.0870  172.1850 C.3    97  PHE97       0.0534
     31  CG        25.5780  -18.2960  173.4560 C.ar   97  PHE97      -0.0203
     32  CD1       24.9180  -18.6840  174.6150 C.ar   97  PHE97      -0.0042
     33  CD2       26.4150  -17.1880  173.5110 C.ar   97  PHE97      -0.0042
     34  CE1       25.0730  -17.9650  175.8020 C.ar   97  PHE97      -0.0003
     35  CE2       26.5610  -16.4600  174.6970 C.ar   97  PHE97      -0.0003
     36  CZ        25.8980  -16.8620  175.8360 C.ar   97  PHE97      -0.0000
     37  N         39.0800  -14.1830  178.0960 N.3   197  MET197     -0.1230
     38  CA        37.9790  -13.9970  177.1430 C.3   197  MET197      0.1702
     39  C         36.7640  -13.3230  177.7970 C.2   197  MET197      0.2592
     40  O         36.2300  -12.3630  177.2290 O.2   197  MET197     -0.2718
     41  CB        37.6220  -15.3110  176.4290 C.3   197  MET197      0.0401
     42  CG        36.5320  -15.1680  175.4100 C.3   197  MET197      0.0596
     43  SD        34.8820  -15.3010  176.1270 S.3   197  MET197     -0.1393
     44  CE        34.8090  -16.9810  176.3650 C.3   197  MET197      0.0692
     45  N         36.3450  -13.8170  178.9840 N.am  198  PHE198     -0.1976
     46  CA        35.2150  -13.2880  179.7490 C.3   198  PHE198      0.1639
     47  C         35.5420  -11.9200  180.3470 C.2   198  PHE198      0.2290
     48  O         34.7270  -11.0010  180.2330 O.2   198  PHE198     -0.2864
     49  CB        34.7590  -14.2940  180.8090 C.3   198  PHE198      0.0560
     50  CG        34.0690  -15.5120  180.2360 C.ar  198  PHE198     -0.0200
     51  CD1       32.8110  -15.4100  179.6480 C.ar  198  PHE198     -0.0042
     52  CD2       34.6690  -16.7660  180.2980 C.ar  198  PHE198     -0.0042
     53  CE1       32.1700  -16.5380  179.1170 C.ar  198  PHE198     -0.0003
     54  CE2       34.0280  -17.8930  179.7660 C.ar  198  PHE198     -0.0003
     55  CZ        32.7730  -17.7750  179.1970 C.ar  198  PHE198     -0.0000
     56  N         40.4380  -15.4860  172.1350 N.3   227  TRP227     -0.1241
     57  CA        39.5800  -16.2380  171.2350 C.3   227  TRP227      0.1605
     58  C         40.4220  -17.0820  170.2900 C.2   227  TRP227      0.2264
     59  O         40.0690  -18.2290  170.0410 O.2   227  TRP227     -0.2867
     60  CB        38.6480  -15.3060  170.4410 C.3   227  TRP227      0.0550
     61  CG        37.3400  -14.9780  171.1000 C.ar  227  TRP227      0.0003
     62  CD1       36.8470  -13.7330  171.3590 C.ar  227  TRP227      0.0946
     63  CD2       36.3230  -15.9060  171.5100 C.ar  227  TRP227      0.0152
     64  NE1       35.6000  -13.8240  171.9250 N.ar  227  TRP227     -0.2442
     65  CE2       35.2500  -15.1480  172.0280 C.ar  227  TRP227      0.0810
     66  CE3       36.2220  -17.3120  171.5130 C.ar  227  TRP227      0.0012
     67  CZ2       34.0970  -15.7470  172.5530 C.ar  227  TRP227      0.0191
     68  CZ3       35.0680  -17.9010  172.0080 C.ar  227  TRP227      0.0001
     69  CH2       34.0250  -17.1230  172.5260 C.ar  227  TRP227      0.0015
     70  N         32.1710  -25.4700  168.7760 N.3   276  MET276     -0.1230
     71  CA        33.1010  -24.5700  169.4570 C.3   276  MET276      0.1702
     72  C         32.4310  -23.9910  170.7030 C.2   276  MET276      0.2592
     73  O         33.0460  -23.9580  171.7650 O.2   276  MET276     -0.2718
     74  CB        33.5330  -23.4360  168.5000 C.3   276  MET276      0.0401
     75  CG        34.6250  -22.5130  169.0460 C.3   276  MET276      0.0596
     76  SD        36.2420  -23.2820  169.2930 S.3   276  MET276     -0.1393
     77  CE        36.6190  -23.8030  167.5780 C.3   276  MET276      0.0692
     78  N         31.1560  -23.5640  170.5710 N.am  277  GLU277     -0.1979
     79  CA        30.3440  -23.0080  171.6690 C.3   277  GLU277      0.1602
     80  C         30.0780  -24.0660  172.7400 C.2   277  GLU277      0.2287
     81  O         30.1050  -23.7600  173.9250 O.2   277  GLU277     -0.2864
     82  CB        29.0230  -22.4200  171.1390 C.3   277  GLU277      0.0415
     83  CG        29.1970  -21.1300  170.3310 C.3   277  GLU277      0.1163
     84  CD        27.9290  -20.4170  169.8840 C.2   277  GLU277      0.3649
     85  OE1       26.8340  -21.0190  169.9890 O.co2 277  GLU277     -0.2457
     86  OE2       28.0360  -19.2660  169.3950 O.co2 277  GLU277     -0.2457
     87  N         33.6720  -24.6760  174.5900 N.3   280  ALA280     -0.1231
     88  CA        34.0410  -23.5740  175.4730 C.3   280  ALA280      0.1694
     89  C         33.0160  -23.3830  176.5890 C.2   280  ALA280      0.2592
     90  O         33.3710  -23.3480  177.7730 O.2   280  ALA280     -0.2718
     91  CB        34.2310  -22.2900  174.6770 C.3   280  ALA280      0.0304
     92  N         31.7490  -23.3520  176.2200 N.am  281  GLY281     -0.1957
     93  CA        30.6770  -23.1150  177.1750 C.3   281  GLY281      0.1869
     94  C         30.3340  -24.2400  178.1280 C.2   281  GLY281      0.2309
     95  O         29.3410  -24.1370  178.8280 O.2   281  GLY281     -0.2863
     96  N         30.9210  -22.9270  183.0430 N.3   285  THR285     -0.1218
     97  CA        29.4960  -22.9960  183.3900 C.3   285  THR285      0.1862
     98  C         29.1080  -24.1490  184.2970 C.2   285  THR285      0.2287
     99  O         28.2290  -23.9780  185.1240 O.2   285  THR285     -0.2866
    100  CB        28.6400  -23.0250  182.1400 C.3   285  THR285      0.1770
    101  OG1       28.9480  -24.2280  181.4260 O.3   285  THR285     -0.2211
    102  CG2       28.8190  -21.7770  181.2710 C.3   285  THR285      0.0375
    103  N         25.0030  -18.6610  187.2400 N.3   345  VAL345     -0.1231
    104  CA        26.1570  -18.7240  186.3330 C.3   345  VAL345      0.1692
    105  C         26.3160  -17.3850  185.6090 C.2   345  VAL345      0.2593
    106  O         27.3890  -16.7990  185.6380 O.2   345  VAL345     -0.2718
    107  CB        26.0780  -19.9380  185.3730 C.3   345  VAL345      0.0266
    108  CG1       27.2490  -19.9500  184.3920 C.3   345  VAL345      0.0020
    109  CG2       26.0320  -21.2460  186.1620 C.3   345  VAL345      0.0020
    110  N         25.2440  -16.8990  185.0090 N.am  346  GLY346     -0.1942
    111  CA        25.2550  -15.5990  184.3670 C.3   346  GLY346      0.2014
    112  C         24.5090  -14.6100  185.2140 C.2   346  GLY346      0.2639
    113  O         24.0920  -14.9290  186.3390 O.2   346  GLY346     -0.2714
    114  N         24.3270  -13.4060  184.6670 N.am  347  LEU347     -0.1963
    115  CA        23.6350  -12.3540  185.3910 C.3   347  LEU347      0.1728
    116  C         22.1740  -12.2150  185.0200 C.2   347  LEU347      0.2616
    117  O         21.2850  -12.4270  185.8570 O.2   347  LEU347     -0.2715
    118  CB        24.3590  -11.0220  185.1800 C.3   347  LEU347      0.0311
    119  CG        24.6010  -10.1600  186.4110 C.3   347  LEU347      0.0022
    120  CD1       23.4330   -9.2800  186.7160 C.3   347  LEU347      0.0001
    121  CD2       24.9860  -10.9820  187.6020 C.3   347  LEU347      0.0001
    122  N         21.9280  -11.8410  183.7630 N.am  348  PHE348     -0.1960
    123  CA        20.5870  -11.5750  183.3060 C.3   348  PHE348      0.1771
    124  C         20.1700  -12.3620  182.0940 C.2   348  PHE348      0.2619
    125  O         20.9880  -12.7460  181.2460 O.2   348  PHE348     -0.2715
    126  CB        20.4030  -10.0670  183.0660 C.3   348  PHE348      0.0574
    127  CG        21.4450   -9.4300  182.1700 C.ar  348  PHE348     -0.0200
    128  CD1       21.2560   -9.3580  180.7950 C.ar  348  PHE348     -0.0042
    129  CD2       22.6070   -8.8860  182.7050 C.ar  348  PHE348     -0.0042
    130  CE1       22.2150   -8.7670  179.9680 C.ar  348  PHE348     -0.0003
    131  CE2       23.5660   -8.2960  181.8780 C.ar  348  PHE348     -0.0003
    132  CZ        23.3580   -8.2280  180.5170 C.ar  348  PHE348     -0.0000
    133  N         18.8590  -12.5900  182.0280 N.am  349  LEU349     -0.1977
    134  CA        18.2120  -13.2360  180.9090 C.3   349  LEU349      0.1596
    135  C         17.7760  -12.0670  180.0530 C.2   349  LEU349      0.2287
    136  O         17.1270  -11.1600  180.5650 O.2   349  LEU349     -0.2864
    137  CB        16.9920  -14.0470  181.3880 C.3   349  LEU349      0.0297
    138  CG        17.2360  -15.2920  182.2660 C.3   349  LEU349      0.0022
    139  CD1       15.9300  -15.8380  182.7800 C.3   349  LEU349      0.0001
    140  CD2       17.9300  -16.4050  181.4900 C.3   349  LEU349      0.0001
    141  N         18.7110  -12.6530  187.5700 N.3   374  LEU374     -0.1245
    142  CA        18.7380  -13.9750  188.2110 C.3   374  LEU374      0.1561
    143  C         19.1960  -14.0080  189.6600 C.2   374  LEU374      0.2260
    144  O         18.7360  -14.8710  190.4200 O.2   374  LEU374     -0.2867
    145  CB        19.5890  -14.9500  187.3880 C.3   374  LEU374      0.0270
    146  CG        19.0710  -15.3310  185.9990 C.3   374  LEU374      0.0019
    147  CD1       19.8630  -16.4880  185.4520 C.3   374  LEU374      0.0001
    148  CD2       17.6050  -15.7310  186.0350 C.3   374  LEU374      0.0001
    149  N         17.2430  -20.7070  185.9200 N.3   404  PRO404     -0.2116
    150  CA        18.6400  -20.3180  185.6610 C.3   404  PRO404      0.1372
    151  C         19.1250  -20.6960  184.2630 C.2   404  PRO404      0.2244
    152  O         20.0750  -20.0900  183.7800 O.2   404  PRO404     -0.2868
    153  CB        19.4210  -21.0390  186.7600 C.3   404  PRO404      0.0268
    154  CG        18.6130  -22.2130  187.0710 C.3   404  PRO404      0.0207
    155  CD        17.1800  -21.8860  186.8070 C.3   404  PRO404      0.0892
    156  N         18.6650  -22.9130  177.5530 N.3   412  CYS412     -0.1235
    157  CA        19.9810  -23.5600  177.4750 C.3   412  CYS412      0.1677
    158  C         20.0230  -24.8860  176.7050 C.2   412  CYS412      0.2270
    159  O         19.2450  -25.7960  176.9950 O.2   412  CYS412     -0.2867
    160  CB        20.5660  -23.7310  178.8740 C.3   412  CYS412      0.0956
    161  SG        22.2610  -24.3740  178.8960 S.3   412  CYS412     -0.0801
    162  N         31.3250  -11.5530  183.2610 N.3   449  PHE449     -0.1227
    163  CA        30.3540  -12.1520  182.3210 C.3   449  PHE449      0.1736
    164  C         29.6870  -13.3660  182.9840 C.2   449  PHE449      0.2595
    165  O         28.4610  -13.4210  183.1050 O.2   449  PHE449     -0.2718
    166  CB        30.9530  -12.4480  180.9320 C.3   449  PHE449      0.0547
    167  CG        29.9060  -12.5640  179.8490 C.ar  449  PHE449     -0.0202
    168  CD1       29.0440  -11.5090  179.5730 C.ar  449  PHE449     -0.0042
    169  CD2       29.8080  -13.7150  179.0760 C.ar  449  PHE449     -0.0042
    170  CE1       28.0830  -11.6180  178.5720 C.ar  449  PHE449     -0.0003
    171  CE2       28.8420  -13.8200  178.0750 C.ar  449  PHE449     -0.0003
    172  CZ        27.9820  -12.7760  177.8390 C.ar  449  PHE449     -0.0000
    173  N         30.5260  -14.2960  183.4550 N.am  450  ILE450     -0.1980
    174  CA        30.2110  -15.4580  184.2640 C.3   450  ILE450      0.1595
    175  C         30.4150  -14.9770  185.6880 C.2   450  ILE450      0.2287
    176  O         31.4680  -14.4220  186.0070 O.2   450  ILE450     -0.2864
    177  CB        31.0960  -16.7160  183.9670 C.3   450  ILE450      0.0276
    178  CG1       32.5180  -16.3520  183.4780 C.3   450  ILE450      0.0022
    179  CG2       30.4170  -17.6850  183.0150 C.3   450  ILE450      0.0022
    180  CD1       33.6230  -17.1590  184.0500 C.3   450  ILE450      0.0001
@<TRIPOS>BOND
     1    18    17    2
     2    17    16    1
     3    16    19    1
     4    16    15    1
     5    19    20    1
     6    20    21    1
     7    21    22    1
     8    77    76    1
     9    22    23    2
    10     4     3    2
    11    74    75    1
    12    74    71    1
    13    70    71    1
    14    23    25    1
    15    23    24    1
    16     3     2    1
    17    75    76    1
    18    86    84   ar
    19    71    72    1
    20    84    85   ar
    21    84    83    1
    22    59    58    2
    23    26    27    1
    24    58    57    1
    25    83    82    1
    26     2     1    1
    27     2     5    1
    28    60    61    1
    29    60    57    1
    30    78    72   am
    31    78    79    1
    32    72    73    2
    33    28    27    1
    34    28    29    2
    35    61    62   ar
    36    61    63   ar
    37    82    79    1
    38     5     6    1
    39    57    56    1
    40    27    30    1
    41    62    64   ar
    42    63    66   ar
    43    63    65   ar
    44    66    68   ar
    45    79    80    1
    46    64    65   ar
    47    68    69   ar
    48    65    67   ar
    49    30    31    1
    50    69    67   ar
    51     6     8   ar
    52     6     7   ar
    53    80    81    2
    54    11     8   ar
    55    11    13   ar
    56     8    10   ar
    57     7     9   ar
    58    31    33   ar
    59    31    32   ar
    60    33    35   ar
    61    13    14   ar
    62    87    88    1
    63    32    34   ar
    64    91    88    1
    65    35    36   ar
    66     9    10   ar
    67    10    12   ar
    68    42    43    1
    69    42    41    1
    70    14    12   ar
    71    88    89    1
    72    34    36   ar
    73    43    44    1
    74    92    89   am
    75    92    93    1
    76    41    38    1
    77    89    90    2
    78   158   159    2
    79   158   157    1
    80    38    39    1
    81    38    37    1
    82    93    94    1
    83    40    39    2
    84   157   156    1
    85   157   160    1
    86    39    45   am
    87   172   171   ar
    88   172   170   ar
    89   171   169   ar
    90    94    95    2
    91   170   168   ar
    92   160   161    1
    93    45    46    1
    94   169   167   ar
    95    53    55   ar
    96    53    51   ar
    97    55    54   ar
    98   168   167   ar
    99    51    50   ar
   100    46    47    1
   101    46    49    1
   102    54    52   ar
   103   167   166    1
   104   130   132   ar
   105   130   128   ar
   106   135   136    2
   107   135   134    1
   108    48    47    2
   109    50    52   ar
   110    50    49    1
   111   132   131   ar
   112   128   127   ar
   113   134   137    1
   114   134   133    1
   115   166   163    1
   116   125   124    2
   117   102   100    1
   118   137   138    1
   119   101   100    1
   120   140   138    1
   121   131   129   ar
   122   133   124   am
   123   124   123    1
   124   100    97    1
   125   127   129   ar
   126   127   126    1
   127   138   139    1
   128   163   164    1
   129   163   162    1
   130   164   165    2
   131   164   173   am
   132   179   177    1
   133    96    97    1
   134   126   123    1
   135   123   122    1
   136    97    98    1
   137   173   174    1
   138   178   177    1
   139   178   180    1
   140   122   116   am
   141   152   151    2
   142   177   174    1
   143   151   150    1
   144   174   175    1
   145    98    99    2
   146   111   110    1
   147   111   112    1
   148   108   107    1
   149   114   112   am
   150   114   115    1
   151   110   105   am
   152   116   115    1
   153   116   117    2
   154   118   115    1
   155   118   119    1
   156   112   113    2
   157   107   109    1
   158   107   104    1
   159   147   146    1
   160   105   106    2
   161   105   104    1
   162   150   149    1
   163   150   153    1
   164   175   176    2
   165   149   155    1
   166   146   148    1
   167   146   145    1
   168   104   103    1
   169   119   120    1
   170   119   121    1
   171   153   154    1
   172   155   154    1
   173   145   142    1
   174   141   142    1
   175   142   143    1
   176   143   144    2
