@<TRIPOS>MOLECULE
tmp/4zh1D00.pdb
 133 130 0 0 0
SMALL
GASTEIGER

@<TRIPOS>ATOM
      1  N         30.9860  -30.8500   36.9590 N.3    64  ILE64      -0.1245
      2  CA        29.8170  -31.6970   37.2510 C.3    64  ILE64       0.1561
      3  C         29.4120  -32.4080   35.9990 C.2    64  ILE64       0.2260
      4  O         28.9930  -31.7670   35.0560 O.2    64  ILE64      -0.2867
      5  CB        28.6700  -30.9040   37.8890 C.3    64  ILE64       0.0252
      6  CG1       29.1210  -30.4300   39.2870 C.3    64  ILE64       0.0019
      7  CG2       27.4320  -31.7700   38.0150 C.3    64  ILE64       0.0019
      8  CD1       28.7940  -28.9810   39.5770 C.3    64  ILE64       0.0001
      9  N         20.3910  -33.1280   39.4540 N.3    76  LEU76      -0.1231
     10  CA        20.5130  -32.0170   40.4000 C.3    76  LEU76       0.1693
     11  C         19.1580  -31.7660   41.0570 C.2    76  LEU76       0.2592
     12  O         18.1500  -31.7620   40.3850 O.2    76  LEU76      -0.2718
     13  CB        20.9480  -30.7510   39.6880 C.3    76  LEU76       0.0284
     14  CG        22.3280  -30.7700   39.0460 C.3    76  LEU76       0.0019
     15  CD1       22.4990  -29.5050   38.2220 C.3    76  LEU76       0.0001
     16  CD2       23.4220  -30.8820   40.0910 C.3    76  LEU76       0.0001
     17  N         19.1670  -31.4850   42.3510 N.am   77  ARG77      -0.1966
     18  CA        17.9870  -30.9960   43.0610 C.3    77  ARG77       0.1729
     19  C         17.5230  -29.6190   42.6120 C.2    77  ARG77       0.2616
     20  O         16.3220  -29.3630   42.5840 O.2    77  ARG77      -0.2715
     21  CB        18.2700  -30.9280   44.5610 C.3    77  ARG77       0.0348
     22  CG        17.1110  -30.4670   45.4220 C.3    77  ARG77       0.0492
     23  CD        17.4670  -30.6580   46.8970 C.3    77  ARG77       0.2205
     24  NE        17.0760  -31.9730   47.3670 N.pl3  77  ARG77      -0.0865
     25  CZ        15.8100  -32.3710   47.4940 C.cat  77  ARG77       0.5346
     26  NH1       15.5560  -33.6130   47.8940 N.pl3  77  ARG77       0.1354
     27  NH2       14.7930  -31.5400   47.2390 N.pl3  77  ARG77       0.1354
     28  N         18.4690  -28.7300   42.3130 N.am   78  TRP78      -0.1974
     29  CA        18.1740  -27.3620   41.8980 C.3    78  TRP78       0.1640
     30  C         18.6040  -27.2910   40.4730 C.2    78  TRP78       0.2290
     31  O         19.7700  -27.2480   40.1700 O.2    78  TRP78      -0.2864
     32  CB        18.9080  -26.3320   42.7840 C.3    78  TRP78       0.0576
     33  CG        18.6470  -26.5670   44.2410 C.ar   78  TRP78       0.0006
     34  CD1       19.4960  -27.1620   45.1480 C.ar   78  TRP78       0.0946
     35  CD2       17.4120  -26.3720   44.9170 C.ar   78  TRP78       0.0152
     36  NE1       18.8650  -27.3140   46.3780 N.ar   78  TRP78      -0.2442
     37  CE2       17.5860  -26.8310   46.2570 C.ar   78  TRP78       0.0810
     38  CE3       16.1820  -25.8010   44.5420 C.ar   78  TRP78       0.0012
     39  CZ2       16.5920  -26.7260   47.2080 C.ar   78  TRP78       0.0191
     40  CZ3       15.1850  -25.6980   45.4940 C.ar   78  TRP78       0.0001
     41  CH2       15.3970  -26.1550   46.8190 C.ar   78  TRP78       0.0015
     42  N         17.7570  -24.9980   38.2270 N.3    80  ALA80      -0.1231
     43  CA        17.9510  -23.6650   37.6540 C.3    80  ALA80       0.1694
     44  C         19.4100  -23.2360   37.7520 C.2    80  ALA80       0.2592
     45  O         20.0830  -23.5470   38.7450 O.2    80  ALA80      -0.2718
     46  CB        17.0990  -22.6560   38.3910 C.3    80  ALA80       0.0304
     47  N         19.8610  -22.4340   36.7870 N.am   81  LYS81      -0.1966
     48  CA        21.1580  -21.7620   36.9030 C.3    81  LYS81       0.1728
     49  C         22.2270  -22.8100   37.2040 C.2    81  LYS81       0.2616
     50  O         22.8100  -22.8360   38.2930 O.2    81  LYS81      -0.2715
     51  CB        21.1380  -20.6930   38.0130 C.3    81  LYS81       0.0311
     52  CG        20.1060  -19.5860   37.8210 C.3    81  LYS81       0.0038
     53  CD        20.5380  -18.2830   38.4810 C.3    81  LYS81       0.0206
     54  CE        19.4860  -17.1960   38.3130 C.3    81  LYS81       0.1093
     55  NZ        19.0710  -17.0350   36.8900 N.3    81  LYS81      -0.1314
     56  N         22.4190  -23.7140   36.2490 N.am   82  GLN82      -0.1963
     57  CA        23.3710  -24.7920   36.4080 C.3    82  GLN82       0.1733
     58  C         24.7870  -24.3140   36.0610 C.2    82  GLN82       0.2616
     59  O         25.0360  -23.7050   34.9990 O.2    82  GLN82      -0.2715
     60  CB        22.9510  -26.0020   35.5780 C.3    82  GLN82       0.0408
     61  CG        21.4960  -26.4070   35.7720 C.3    82  GLN82       0.0908
     62  CD        21.1970  -27.7780   35.1900 C.2    82  GLN82       0.2608
     63  OE1       22.0910  -28.4450   34.6570 O.2    82  GLN82      -0.2717
     64  NE2       19.9400  -28.2130   35.2950 N.am   82  GLN82      -0.0878
     65  N         25.7030  -24.5790   36.9900 N.am   83  LYS83      -0.1977
     66  CA        27.0770  -24.1240   36.8650 C.3    83  LYS83       0.1596
     67  C         27.8660  -25.3320   36.3740 C.2    83  LYS83       0.2287
     68  O         27.5390  -26.4960   36.6800 O.2    83  LYS83      -0.2864
     69  CB        27.6150  -23.6110   38.2120 C.3    83  LYS83       0.0298
     70  CG        27.2140  -22.1890   38.5620 C.3    83  LYS83       0.0038
     71  CD        27.8770  -21.7230   39.8580 C.3    83  LYS83       0.0206
     72  CE        29.2870  -21.2140   39.6400 C.3    83  LYS83       0.1093
     73  NZ        30.1730  -22.2050   38.9880 N.3    83  LYS83      -0.1314
     74  N         31.1110  -25.7060   37.0080 N.3    85  TYR85      -0.1227
     75  CA        32.1730  -25.9590   37.9530 C.3    85  TYR85       0.1736
     76  C         31.6930  -25.7190   39.3730 C.2    85  TYR85       0.2596
     77  O         30.9560  -24.7980   39.6550 O.2    85  TYR85      -0.2718
     78  CB        33.3810  -25.0400   37.7010 C.3    85  TYR85       0.0548
     79  CG        34.2170  -25.4380   36.5010 C.ar   85  TYR85      -0.0200
     80  CD1       35.1220  -26.4940   36.5800 C.ar   85  TYR85      -0.0009
     81  CD2       34.1130  -24.7570   35.3040 C.ar   85  TYR85      -0.0009
     82  CE1       35.8770  -26.8690   35.4920 C.ar   85  TYR85       0.0417
     83  CE2       34.8690  -25.1230   34.2050 C.ar   85  TYR85       0.0417
     84  CZ        35.7420  -26.1840   34.3020 C.ar   85  TYR85       0.1957
     85  OH        36.5090  -26.5390   33.2080 O.3    85  TYR85      -0.2866
     86  N         32.1640  -26.5500   40.2670 N.am   86  SER86      -0.1952
     87  CA        32.0240  -26.3160   41.6810 C.3    86  SER86       0.1924
     88  C         33.4130  -26.0530   42.2510 C.2    86  SER86       0.2314
     89  O         34.3590  -26.7770   41.9550 O.2    86  SER86      -0.2863
     90  CB        31.4380  -27.5560   42.3520 C.3    86  SER86       0.2116
     91  OG        31.2090  -27.3080   43.7300 O.3    86  SER86      -0.2180
     92  N         32.7870  -26.1960   48.0630 N.3    90  GLU90      -0.1231
     93  CA        31.3860  -25.9200   47.7330 C.3    90  GLU90       0.1699
     94  C         30.6080  -27.2590   47.5710 C.2    90  GLU90       0.2593
     95  O         31.1880  -28.3060   47.2630 O.2    90  GLU90      -0.2718
     96  CB        31.3900  -25.0610   46.4700 C.3    90  GLU90       0.0402
     97  CG        30.0590  -24.7840   45.8100 C.3    90  GLU90       0.1161
     98  CD        30.1730  -23.8490   44.5960 C.2    90  GLU90       0.3649
     99  OE1       31.2980  -23.5580   44.1830 O.co2  90  GLU90      -0.2457
    100  OE2       29.1370  -23.3720   44.0710 O.co2  90  GLU90      -0.2457
    101  N         29.3200  -27.2430   47.8580 N.am   91  SER91      -0.1938
    102  CA        28.5150  -28.4480   47.8240 C.3    91  SER91       0.2055
    103  C         27.5850  -28.5010   46.6290 C.2    91  SER91       0.2643
    104  O         27.2560  -27.4770   46.0150 O.2    91  SER91      -0.2714
    105  CB        27.6880  -28.5690   49.0880 C.3    91  SER91       0.2130
    106  OG        28.5210  -28.8450   50.1920 O.3    91  SER91      -0.2179
    107  N         27.2100  -29.7260   46.2750 N.am   92  VAL92      -0.1963
    108  CA        26.2750  -29.9730   45.2120 C.3    92  VAL92       0.1727
    109  C         25.2440  -30.9480   45.7650 C.2    92  VAL92       0.2616
    110  O         25.6010  -31.9150   46.4430 O.2    92  VAL92      -0.2715
    111  CB        26.9630  -30.6030   43.9890 C.3    92  VAL92       0.0290
    112  CG1       25.9680  -30.7830   42.8490 C.3    92  VAL92       0.0023
    113  CG2       28.1200  -29.7410   43.5440 C.3    92  VAL92       0.0023
    114  N         23.9750  -30.6690   45.4900 N.am   93  GLU93      -0.1977
    115  CA        22.8930  -31.4720   46.0080 C.3    93  GLU93       0.1602
    116  C         22.2150  -32.2020   44.8840 C.2    93  GLU93       0.2287
    117  O         21.7630  -31.6080   43.9110 O.2    93  GLU93      -0.2864
    118  CB        21.9110  -30.6080   46.7660 C.3    93  GLU93       0.0415
    119  CG        21.4690  -31.2340   48.0700 C.3    93  GLU93       0.1163
    120  CD        20.5620  -30.3390   48.8980 C.2    93  GLU93       0.3649
    121  OE1       20.5340  -29.0850   48.6730 O.co2  93  GLU93      -0.2457
    122  OE2       19.8650  -30.9320   49.7620 O.co2  93  GLU93      -0.2457
    123  N         23.9010  -35.0300   49.1970 N.3   110  ARG110     -0.1245
    124  CA        24.5630  -33.7430   49.3190 C.3   110  ARG110      0.1563
    125  C         26.0250  -34.0460   49.4590 C.2   110  ARG110      0.2260
    126  O         26.4100  -34.8080   50.3290 O.2   110  ARG110     -0.2867
    127  CB        24.0610  -32.9740   50.5380 C.3   110  ARG110      0.0307
    128  CG        24.7540  -31.6430   50.7460 C.3   110  ARG110      0.0489
    129  CD        23.9330  -30.7210   51.6420 C.3   110  ARG110      0.2205
    130  NE        24.4640  -29.3610   51.5880 N.pl3 110  ARG110     -0.0865
    131  CZ        24.0980  -28.4340   50.7010 C.cat 110  ARG110      0.5346
    132  NH1       24.6740  -27.2400   50.7230 N.pl3 110  ARG110      0.1354
    133  NH2       23.1630  -28.6910   49.7900 N.pl3 110  ARG110      0.1354
@<TRIPOS>BOND
     1    85    84    1
     2    83    84   ar
     3    83    81   ar
     4    84    82   ar
     5    63    62    2
     6    59    58    2
     7     4     3    2
     8    62    64   am
     9    62    61    1
    10    81    79   ar
    11    82    80   ar
    12    60    61    1
    13    60    57    1
    14     3     2    1
    15    58    57    1
    16    58    65   am
    17    56    57    1
    18    56    49   am
    19    67    68    2
    20    67    66    1
    21    79    80   ar
    22    79    78    1
    23    47    48    1
    24    47    44   am
    25    66    65    1
    26    66    69    1
    27    55    54    1
    28    48    49    1
    29    48    51    1
    30     1     2    1
    31    74    75    1
    32    49    50    2
    33     2     5    1
    34    43    44    1
    35    43    42    1
    36    43    46    1
    37    78    75    1
    38    44    45    2
    39    52    51    1
    40    52    53    1
    41     5     7    1
    42     5     6    1
    43    75    76    1
    44    69    70    1
    45    15    14    1
    46    54    53    1
    47    70    71    1
    48    73    72    1
    49    14    13    1
    50    14    16    1
    51     6     8    1
    52    76    77    2
    53    76    86   am
    54     9    10    1
    55    72    71    1
    56    13    10    1
    57    31    30    2
    58    86    87    1
    59    12    11    2
    60    10    11    1
    61    30    29    1
    62    11    17   am
    63    87    88    1
    64    87    90    1
    65    29    28    1
    66    29    32    1
    67    89    88    2
    68    28    19   am
    69    17    18    1
    70    90    91    1
    71    20    19    2
    72    19    18    1
    73    32    33    1
    74   112   111    1
    75    18    21    1
    76   113   111    1
    77   117   116    2
    78   111   108    1
    79   100    98   ar
    80    99    98   ar
    81    33    35   ar
    82    33    34   ar
    83    38    35   ar
    84    38    40   ar
    85    21    22    1
    86    98    97    1
    87   116   115    1
    88    35    37   ar
    89    34    36   ar
    90   108   109    1
    91   108   107    1
    92    22    23    1
    93   114   109   am
    94   114   115    1
    95    40    41   ar
    96   109   110    2
    97    97    96    1
    98   115   118    1
    99   104   103    2
   100    37    36   ar
   101    37    39   ar
   102   107   103   am
   103    96    93    1
   104   103   102    1
   105   118   119    1
   106    41    39   ar
   107    23    24    1
   108    27    25    1
   109    95    94    2
   110    24    25    2
   111    25    26    1
   112    94    93    1
   113    94   101   am
   114    93    92    1
   115   102   101    1
   116   102   105    1
   117   119   120    1
   118   121   120   ar
   119   120   122   ar
   120   105   106    1
   121   123   124    1
   122   124   125    1
   123   124   127    1
   124   125   126    2
   125   133   131    1
   126   127   128    1
   127   131   132    1
   128   131   130    2
   129   128   129    1
   130   130   129    1
