@<TRIPOS>MOLECULE
tmp/4zh7A00.pdb
 77 74 0 0 0
SMALL
GASTEIGER

@<TRIPOS>ATOM
      1  N        -28.5580  -19.4870   42.0140 N.3   163  CYS163     -0.1221
      2  CA       -28.7080  -18.2590   42.8450 C.3   163  CYS163      0.1808
      3  C        -28.6200  -18.6590   44.3430 C.2   163  CYS163      0.2602
      4  O        -29.2420  -19.6480   44.7950 O.2   163  CYS163     -0.2717
      5  CB       -30.0810  -17.5640   42.6460 C.3   163  CYS163      0.0970
      6  SG       -30.3650  -16.9350   40.9750 S.3   163  CYS163     -0.0800
      7  N        -27.8140  -17.8950   45.0880 N.am  164  SER164     -0.1938
      8  CA       -27.6610  -18.0610   46.5320 C.3   164  SER164      0.2055
      9  C        -27.4420  -16.6800   47.0970 C.2   164  SER164      0.2644
     10  O        -27.2960  -15.7000   46.3470 O.2   164  SER164     -0.2714
     11  CB       -26.5380  -19.0440   46.9160 C.3   164  SER164      0.2130
     12  OG       -25.2970  -18.6200   46.4380 O.3   164  SER164     -0.2179
     13  N        -27.5340  -16.5930   48.4160 N.am  165  GLY165     -0.1939
     14  CA       -27.4540  -15.3510   49.1360 C.3   165  GLY165      0.2014
     15  C        -28.7980  -14.7320   49.4230 C.2   165  GLY165      0.2639
     16  O        -29.7450  -14.8110   48.6040 O.2   165  GLY165     -0.2714
     17  N        -28.8850  -14.1040   50.6040 N.am  166  ASP166     -0.1957
     18  CA       -30.1120  -13.4210   51.0340 C.3   166  ASP166      0.1840
     19  C        -30.4890  -12.3030   50.0660 C.2   166  ASP166      0.2623
     20  O        -29.6580  -11.4800   49.7220 O.2   166  ASP166     -0.2715
     21  CB       -29.9320  -12.8390   52.4560 C.3   166  ASP166      0.1450
     22  CG       -31.2310  -12.3000   53.0210 C.2   166  ASP166      0.3671
     23  OD1      -32.2530  -12.9930   52.9220 O.co2 166  ASP166     -0.2456
     24  OD2      -31.2600  -11.1800   53.5540 O.co2 166  ASP166     -0.2456
     25  N        -31.7380  -12.2990   49.6170 N.am  167  GLY167     -0.1940
     26  CA       -32.2570  -11.3310   48.6700 C.3   167  GLY167      0.2014
     27  C        -31.9610  -11.5450   47.1840 C.2   167  GLY167      0.2638
     28  O        -32.2160  -10.6430   46.3900 O.2   167  GLY167     -0.2714
     29  N        -31.3490  -12.6710   46.7930 N.am  168  ASN168     -0.1972
     30  CA       -31.0740  -12.9060   45.3490 C.3   168  ASN168      0.1688
     31  C        -32.3670  -13.3310   44.6630 C.2   168  ASN168      0.2292
     32  O        -32.9600  -14.3870   45.0260 O.2   168  ASN168     -0.2864
     33  CB       -30.0220  -13.9920   45.1780 C.3   168  ASN168      0.1181
     34  CG       -29.4600  -14.0490   43.7560 C.2   168  ASN168      0.2629
     35  OD1      -30.0630  -13.5760   42.8420 O.2   168  ASN168     -0.2716
     36  ND2      -28.2930  -14.6130   43.6010 N.am  168  ASN168     -0.0877
     37  N        -40.8820  -21.9850   42.4280 N.3   181  GLN181     -0.1245
     38  CA       -39.4210  -21.9660   42.5160 C.3   181  GLN181      0.1566
     39  C        -38.7730  -23.2220   43.1000 C.2   181  GLN181      0.2260
     40  O        -37.6890  -23.6270   42.6480 O.2   181  GLN181     -0.2867
     41  CB       -38.9750  -20.7700   43.3570 C.3   181  GLN181      0.0367
     42  CG       -37.4920  -20.4400   43.2600 C.3   181  GLN181      0.0905
     43  CD       -37.1000  -19.2210   44.0990 C.2   181  GLN181      0.2608
     44  OE1      -37.8630  -18.2840   44.2670 O.2   181  GLN181     -0.2717
     45  NE2      -35.8870  -19.2270   44.5840 N.am  181  GLN181     -0.0878
     46  N        -34.9810  -25.8400   44.3980 N.3   205  VAL205     -0.1245
     47  CA       -34.1900  -25.3850   45.5320 C.3   205  VAL205      0.1561
     48  C        -33.4940  -26.5690   46.1800 C.2   205  VAL205      0.2260
     49  O        -34.1440  -27.5280   46.4930 O.2   205  VAL205     -0.2867
     50  CB       -35.1220  -24.7010   46.5420 C.3   205  VAL205      0.0252
     51  CG1      -34.4620  -24.4950   47.9060 C.3   205  VAL205      0.0019
     52  CG2      -35.5530  -23.3740   45.9510 C.3   205  VAL205      0.0019
     53  N        -28.1840  -22.9910   51.0180 N.3   218  SER218     -0.1202
     54  CA       -29.2890  -23.2210   50.1310 C.3   218  SER218      0.2020
     55  C        -29.1250  -22.4480   48.8210 C.2   218  SER218      0.2619
     56  O        -28.6710  -21.3080   48.8200 O.2   218  SER218     -0.2717
     57  CB       -30.5560  -22.7790   50.7850 C.3   218  SER218      0.2103
     58  OG       -30.8260  -23.5920   51.8930 O.3   218  SER218     -0.2182
     59  N        -29.4850  -23.0730   47.7020 N.am  219  TYR219     -0.1961
     60  CA       -29.4260  -22.3870   46.4320 C.3   219  TYR219      0.1771
     61  C        -30.5710  -22.8180   45.5370 C.2   219  TYR219      0.2620
     62  O        -31.1190  -23.8990   45.7350 O.2   219  TYR219     -0.2715
     63  CB       -28.0580  -22.6180   45.7750 C.3   219  TYR219      0.0574
     64  CG       -27.6850  -24.0470   45.3980 C.ar  219  TYR219     -0.0198
     65  CD1      -27.9880  -24.5330   44.1380 C.ar  219  TYR219     -0.0009
     66  CD2      -26.9650  -24.8910   46.2640 C.ar  219  TYR219     -0.0009
     67  CE1      -27.6510  -25.8100   43.7490 C.ar  219  TYR219      0.0417
     68  CE2      -26.6450  -26.1960   45.8890 C.ar  219  TYR219      0.0417
     69  CZ       -26.9830  -26.6320   44.6140 C.ar  219  TYR219      0.1957
     70  OH       -26.7030  -27.8780   44.1340 O.3   219  TYR219     -0.2866
     71  N        -30.9260  -21.9710   44.5650 N.am  220  THR220     -0.1951
     72  CA       -31.8650  -22.3490   43.5180 C.3   220  THR220      0.1897
     73  C        -31.0760  -22.6660   42.2460 C.2   220  THR220      0.2313
     74  O        -30.1850  -21.9140   41.8800 O.2   220  THR220     -0.2863
     75  CB       -32.8190  -21.2230   43.2200 C.3   220  THR220      0.1794
     76  OG1      -33.4440  -20.7510   44.4500 O.3   220  THR220     -0.2208
     77  CG2      -33.8660  -21.7060   42.1960 C.3   220  THR220      0.0378
@<TRIPOS>BOND
     1     6     5    1
     2    74    73    2
     3     1     2    1
     4    77    75    1
     5    73    72    1
     6    37    38    1
     7    38    39    1
     8    38    41    1
     9     5     2    1
    10    40    39    2
    11    35    34    2
    12     2     3    1
    13    75    72    1
    14    75    76    1
    15    42    41    1
    16    42    43    1
    17    72    71    1
    18    36    34   am
    19    67    65   ar
    20    67    69   ar
    21    34    33    1
    22    43    44    2
    23    43    45   am
    24    70    69    1
    25    65    64   ar
    26     3     4    2
    27     3     7   am
    28    46    47    1
    29    71    61   am
    30    69    68   ar
    31    31    32    2
    32    31    30    1
    33     7     8    1
    34    33    30    1
    35    30    29    1
    36    64    63    1
    37    64    66   ar
    38    47    48    1
    39    47    50    1
    40    61    62    2
    41    61    60    1
    42    63    60    1
    43    68    66   ar
    44    52    50    1
    45    48    49    2
    46    10     9    2
    47    28    27    2
    48    60    59    1
    49    12    11    1
    50     8    11    1
    51     8     9    1
    52    50    51    1
    53    29    27   am
    54     9    13   am
    55    27    26    1
    56    59    55   am
    57    13    14    1
    58    16    15    2
    59    26    25    1
    60    56    55    2
    61    55    54    1
    62    14    15    1
    63    15    17   am
    64    25    19   am
    65    20    19    2
    66    19    18    1
    67    54    57    1
    68    54    53    1
    69    17    18    1
    70    57    58    1
    71    18    21    1
    72    21    22    1
    73    23    22   ar
    74    22    24   ar
