@<TRIPOS>MOLECULE
tmp/4zh8A00.pdb
 184 182 0 0 0
SMALL
GASTEIGER

@<TRIPOS>ATOM
      1  N         14.6390   10.4740   13.4510 N.3    42  HIS42      -0.1241
      2  CA        13.1700   10.4220   13.3380 C.3    42  HIS42       0.1621
      3  C         12.4910   11.7790   13.5890 C.2    42  HIS42       0.2264
      4  O         11.3560   12.0110   13.1390 O.2    42  HIS42      -0.2867
      5  CB        12.5410    9.2900   14.1860 C.3    42  HIS42       0.0745
      6  CG        12.1980    9.6710   15.5970 C.ar   42  HIS42       0.0817
      7  ND1       12.9550    9.2800   16.6820 N.ar   42  HIS42      -0.2268
      8  CD2       11.1570   10.3780   16.1030 C.ar   42  HIS42       0.1154
      9  CE1       12.4060    9.7420   17.7910 C.ar   42  HIS42       0.1986
     10  NE2       11.3160   10.4150   17.4680 N.ar   42  HIS42      -0.2212
     11  N          9.1120   15.6210   11.5300 N.3    46  GLN46      -0.1245
     12  CA         8.1110   16.2530   12.4000 C.3    46  GLN46       0.1566
     13  C          7.8580   17.7410   12.1380 C.2    46  GLN46       0.2260
     14  O          6.9610   18.3370   12.7470 O.2    46  GLN46      -0.2867
     15  CB         8.4260   16.0020   13.8830 C.3    46  GLN46       0.0367
     16  CG         8.4510   14.5230   14.2710 C.3    46  GLN46       0.0905
     17  CD         8.2530   14.2940   15.7560 C.2    46  GLN46       0.2608
     18  OE1        7.4080   14.9290   16.3900 O.2    46  GLN46      -0.2717
     19  NE2        9.0120   13.3610   16.3150 N.am   46  GLN46      -0.0878
     20  N         12.4350    3.8380    9.5060 N.3    82  LYS82      -0.1231
     21  CA        11.2430    4.1270   10.3100 C.3    82  LYS82       0.1693
     22  C         10.5520    2.8860   10.8670 C.2    82  LYS82       0.2592
     23  O          9.7790    2.9830   11.8220 O.2    82  LYS82      -0.2718
     24  CB        10.2260    4.9710    9.5260 C.3    82  LYS82       0.0285
     25  CG         9.7690    4.3410    8.2080 C.3    82  LYS82       0.0035
     26  CD         8.3920    4.8350    7.7660 C.3    82  LYS82       0.0206
     27  CE         7.2860    4.2520    8.6530 C.3    82  LYS82       0.1093
     28  NZ         5.9300    4.6480    8.1910 N.3    82  LYS82      -0.1314
     29  N         10.8350    1.7280   10.2680 N.am   83  GLU83      -0.1966
     30  CA        10.2200    0.4490   10.6600 C.3    83  GLU83       0.1733
     31  C         10.5940    0.0220   12.0820 C.2    83  GLU83       0.2617
     32  O          9.7440   -0.4380   12.8530 O.2    83  GLU83      -0.2715
     33  CB        10.6410   -0.6640    9.6820 C.3    83  GLU83       0.0429
     34  CG        10.5270   -0.3110    8.1980 C.3    83  GLU83       0.1163
     35  CD         9.1030   -0.0670    7.7470 C.2    83  GLU83       0.3649
     36  OE1        8.1880   -0.7690    8.2380 O.co2  83  GLU83      -0.2457
     37  OE2        8.9020    0.8200    6.8860 O.co2  83  GLU83      -0.2457
     38  N         11.8730    0.1880   12.4170 N.am   84  THR84      -0.1937
     39  CA        12.4260   -0.2460   13.7000 C.3    84  THR84       0.2028
     40  C         13.1020    0.8830   14.4770 C.2    84  THR84       0.2642
     41  O         13.4100    0.7140   15.6560 O.2    84  THR84      -0.2714
     42  CB        13.5000   -1.3390   13.4870 C.3    84  THR84       0.1808
     43  OG1       14.5420   -0.8190   12.6500 O.3    84  THR84      -0.2208
     44  CG2       12.8980   -2.5910   12.8230 C.3    84  THR84       0.0379
     45  N         13.3250    2.0250   13.8180 N.am   85  TYR85      -0.1973
     46  CA        14.0590    3.1530   14.4210 C.3    85  TYR85       0.1639
     47  C         15.5460    2.8240   14.6330 C.2    85  TYR85       0.2290
     48  O         16.2120    3.4410   15.4690 O.2    85  TYR85      -0.2864
     49  CB        13.3750    3.6670   15.7080 C.3    85  TYR85       0.0560
     50  CG        12.2760    4.7040   15.4880 C.ar   85  TYR85      -0.0198
     51  CD1       11.5470    4.7460   14.2970 C.ar   85  TYR85      -0.0009
     52  CD2       11.9270    5.6050   16.4950 C.ar   85  TYR85      -0.0009
     53  CE1       10.5340    5.6840   14.0960 C.ar   85  TYR85       0.0417
     54  CE2       10.9060    6.5420   16.3070 C.ar   85  TYR85       0.0417
     55  CZ        10.2180    6.5730   15.1020 C.ar   85  TYR85       0.1957
     56  OH         9.2160    7.4970   14.8930 O.3    85  TYR85      -0.2866
     57  N          2.0660   10.6530   29.6540 N.3   135  GLU135     -0.1245
     58  CA         1.9230   10.0270   28.3270 C.3   135  GLU135      0.1567
     59  C          0.9280   10.7390   27.3940 C.2   135  GLU135      0.2260
     60  O          1.2270   10.9670   26.2160 O.2   135  GLU135     -0.2867
     61  CB         1.5870    8.5260   28.4330 C.3   135  GLU135      0.0388
     62  CG         1.3760    7.8590   27.0670 C.3   135  GLU135      0.1160
     63  CD         1.1960    6.3540   27.1340 C.2   135  GLU135      0.3649
     64  OE1        1.7560    5.7120   28.0420 O.co2 135  GLU135     -0.2457
     65  OE2        0.5090    5.8050   26.2490 O.co2 135  GLU135     -0.2457
     66  N          9.0740   -4.7220   20.4690 N.3   162  PHE162     -0.1241
     67  CA         9.7870   -4.2840   19.2700 C.3   162  PHE162      0.1605
     68  C         11.2540   -4.6750   19.4010 C.2   162  PHE162      0.2264
     69  O         11.7800   -4.7690   20.5070 O.2   162  PHE162     -0.2867
     70  CB         9.6280   -2.7690   19.0730 C.3   162  PHE162      0.0534
     71  CG         8.1900   -2.3210   18.8950 C.ar  162  PHE162     -0.0203
     72  CD1        7.6640   -2.1150   17.6180 C.ar  162  PHE162     -0.0042
     73  CD2        7.3600   -2.1250   19.9990 C.ar  162  PHE162     -0.0042
     74  CE1        6.3290   -1.7060   17.4440 C.ar  162  PHE162     -0.0003
     75  CE2        6.0250   -1.7200   19.8380 C.ar  162  PHE162     -0.0003
     76  CZ         5.5130   -1.5090   18.5580 C.ar  162  PHE162     -0.0000
     77  N         10.3060    8.4120   33.4180 N.3   179  ASP179     -0.1225
     78  CA        10.7670    8.0760   32.0660 C.3   179  ASP179      0.1805
     79  C         10.8020    9.3500   31.2080 C.2   179  ASP179      0.2598
     80  O         10.3410   10.4120   31.6400 O.2   179  ASP179     -0.2718
     81  CB         9.7700    7.0620   31.4530 C.3   179  ASP179      0.1424
     82  CG        10.2890    6.3660   30.2000 C.2   179  ASP179      0.3668
     83  OD1       11.4960    6.4770   29.8760 O.co2 179  ASP179     -0.2456
     84  OD2        9.4650    5.6890   29.5350 O.co2 179  ASP179     -0.2456
     85  N         11.3800    9.2510   30.0130 N.am  180  ALA180     -0.1966
     86  CA        11.2910   10.3290   29.0390 C.3   180  ALA180      0.1728
     87  C          9.9230   10.1520   28.3560 C.2   180  ALA180      0.2616
     88  O          9.2320    9.1430   28.5960 O.2   180  ALA180     -0.2715
     89  CB        12.4380   10.2520   28.0310 C.3   180  ALA180      0.0334
     90  N          9.5190   11.1150   27.5250 N.am  181  CYS181     -0.1954
     91  CA         8.2220   11.0390   26.8500 C.3   181  CYS181      0.1843
     92  C          8.2270   11.8260   25.5360 C.2   181  CYS181      0.2625
     93  O          9.2850   12.3260   25.1020 O.2   181  CYS181     -0.2714
     94  CB         7.1090   11.5210   27.7950 C.3   181  CYS181      0.0997
     95  SG         5.4100   10.9680   27.3770 S.3   181  CYS181     -0.0797
     96  N          7.0620   11.9150   24.8850 N.am  182  GLN182     -0.1977
     97  CA         6.9330   12.6500   23.6220 C.3   182  GLN182      0.1601
     98  C          7.4800   14.0760   23.7660 C.2   182  GLN182      0.2287
     99  O          7.2210   14.7460   24.7670 O.2   182  GLN182     -0.2864
    100  CB         5.4720   12.6710   23.1430 C.3   182  GLN182      0.0394
    101  CG         5.2920   13.1390   21.6970 C.3   182  GLN182      0.0908
    102  CD         3.8590   13.0000   21.1770 C.2   182  GLN182      0.2608
    103  OE1        3.5040   13.5840   20.1520 O.2   182  GLN182     -0.2717
    104  NE2        3.0360   12.2280   21.8790 N.am  182  GLN182     -0.0878
    105  N         12.3700   13.2960   22.6440 N.3   185  SER185     -0.1217
    106  CA        13.1350   12.6370   21.5690 C.3   185  SER185      0.1889
    107  C         14.2220   13.5480   20.9970 C.2   185  SER185      0.2288
    108  O         13.9730   14.7260   20.7360 O.2   185  SER185     -0.2866
    109  CB        12.2020   12.1960   20.4340 C.3   185  SER185      0.2089
    110  OG        11.2470   11.2420   20.8820 O.3   185  SER185     -0.2183
    111  N         17.6550   10.3200   23.2280 N.3   203  VAL203     -0.1231
    112  CA        16.2790    9.8920   23.5040 C.3   203  VAL203      0.1692
    113  C         15.6630    9.4260   22.1810 C.2   203  VAL203      0.2593
    114  O         15.6040   10.1990   21.2150 O.2   203  VAL203     -0.2718
    115  CB        15.4440   11.0430   24.1380 C.3   203  VAL203      0.0266
    116  CG1       14.0230   10.5710   24.5060 C.3   203  VAL203      0.0020
    117  CG2       16.1510   11.6050   25.3630 C.3   203  VAL203      0.0020
    118  N         15.2260    8.1640   22.1300 N.am  204  SER204     -0.1938
    119  CA        14.7290    7.5840   20.8720 C.3   204  SER204      0.2055
    120  C         13.2590    7.1440   20.8650 C.2   204  SER204      0.2643
    121  O         12.4400    7.7280   20.1440 O.2   204  SER204     -0.2714
    122  CB        15.6480    6.4470   20.3930 C.3   204  SER204      0.2130
    123  OG        15.2360    5.9520   19.1220 O.3   204  SER204     -0.2179
    124  N         12.9180    6.1250   21.6520 N.am  205  TRP205     -0.1959
    125  CA        11.5340    5.6060   21.6550 C.3   205  TRP205      0.1771
    126  C         11.1280    4.8380   22.9080 C.2   205  TRP205      0.2620
    127  O         11.9450    4.5880   23.8000 O.2   205  TRP205     -0.2715
    128  CB        11.2520    4.7590   20.4000 C.3   205  TRP205      0.0590
    129  CG        12.0710    3.4960   20.2340 C.ar  205  TRP205      0.0006
    130  CD1       13.2730    3.3780   19.5890 C.ar  205  TRP205      0.0946
    131  CD2       11.7230    2.1730   20.6790 C.ar  205  TRP205      0.0152
    132  NE1       13.7020    2.0700   19.6150 N.ar  205  TRP205     -0.2442
    133  CE2       12.7720    1.3090   20.2770 C.ar  205  TRP205      0.0810
    134  CE3       10.6350    1.6370   21.3890 C.ar  205  TRP205      0.0012
    135  CZ2       12.7660   -0.0680   20.5600 C.ar  205  TRP205      0.0191
    136  CZ3       10.6290    0.2640   21.6770 C.ar  205  TRP205      0.0001
    137  CH2       11.6920   -0.5710   21.2600 C.ar  205  TRP205      0.0015
    138  N          9.8400    4.4990   22.9750 N.am  206  GLY206     -0.1940
    139  CA         9.3020    3.7140   24.0730 C.3   206  GLY206      0.2014
    140  C          7.8760    3.3030   23.7600 C.2   206  GLY206      0.2639
    141  O          7.2040    3.9580   22.9680 O.2   206  GLY206     -0.2714
    142  N          7.4270    2.1960   24.3410 N.am  207  GLU207     -0.1963
    143  CA         6.0320    1.7760   24.1780 C.3   207  GLU207      0.1733
    144  C          5.2540    2.5920   25.2120 C.2   207  GLU207      0.2617
    145  O          5.0990    2.1790   26.3660 O.2   207  GLU207     -0.2715
    146  CB         5.8740    0.2620   24.3940 C.3   207  GLU207      0.0429
    147  CG         6.7100   -0.5860   23.4220 C.3   207  GLU207      0.1163
    148  CD         6.4830   -2.0800   23.5840 C.2   207  GLU207      0.3649
    149  OE1        5.3160   -2.5150   23.4580 O.co2 207  GLU207     -0.2457
    150  OE2        7.4750   -2.8170   23.8160 O.co2 207  GLU207     -0.2457
    151  N          4.8070    3.7740   24.7900 N.am  208  GLY208     -0.1940
    152  CA         4.1440    4.7290   25.6820 C.3   208  GLY208      0.2014
    153  C          5.1830    5.4070   26.5630 C.2   208  GLY208      0.2639
    154  O          6.3780    5.4030   26.2360 O.2   208  GLY208     -0.2714
    155  N          4.7480    5.9890   27.6780 N.am  209  CYS209     -0.1967
    156  CA         5.6830    6.6560   28.5990 C.3   209  CYS209      0.1712
    157  C          5.4920    6.1400   30.0110 C.2   209  CYS209      0.2296
    158  O          4.3670    6.1330   30.5160 O.2   209  CYS209     -0.2864
    159  CB         5.5030    8.1860   28.5970 C.3   209  CYS209      0.0983
    160  SG         5.5850    8.9750   26.9780 S.3   209  CYS209     -0.0798
    161  N         12.8020    2.8980   28.7170 N.3   216  GLY216     -0.1210
    162  CA        13.1190    3.9220   27.7180 C.3   216  GLY216      0.1956
    163  C         14.2260    3.4160   26.8090 C.2   216  GLY216      0.2612
    164  O         15.2100    2.8480   27.2800 O.2   216  GLY216     -0.2717
    165  N         14.0770    3.6020   25.5040 N.am  217  ILE217     -0.1965
    166  CA        15.0980    3.1090   24.5780 C.3   217  ILE217      0.1727
    167  C         15.8700    4.3000   23.9800 C.2   217  ILE217      0.2616
    168  O         15.2750    5.2740   23.4990 O.2   217  ILE217     -0.2715
    169  CB        14.5170    2.1560   23.4850 C.3   217  ILE217      0.0290
    170  CG1       13.4340    1.1940   24.0560 C.3   217  ILE217      0.0022
    171  CG2       15.6420    1.4110   22.7530 C.3   217  ILE217      0.0023
    172  CD1       13.8690    0.2570   25.2110 C.3   217  ILE217      0.0001
    173  N         17.1960    4.2010   24.0410 N.am  218  TYR218     -0.1974
    174  CA        18.1010    5.2690   23.6270 C.3   218  TYR218      0.1639
    175  C         19.0330    4.7990   22.5190 C.2   218  TYR218      0.2290
    176  O         19.4200    3.6360   22.4860 O.2   218  TYR218     -0.2864
    177  CB        18.9330    5.7430   24.8380 C.3   218  TYR218      0.0560
    178  CG        18.1030    6.3350   25.9790 C.ar  218  TYR218     -0.0198
    179  CD1       17.3340    5.5160   26.8140 C.ar  218  TYR218     -0.0009
    180  CD2       18.0930    7.7130   26.2220 C.ar  218  TYR218     -0.0009
    181  CE1       16.5610    6.0630   27.8570 C.ar  218  TYR218      0.0417
    182  CE2       17.3270    8.2690   27.2620 C.ar  218  TYR218      0.0417
    183  CZ        16.5570    7.4360   28.0650 C.ar  218  TYR218      0.1957
    184  OH        15.8090    7.9670   29.0950 O.3   218  TYR218     -0.2866
@<TRIPOS>BOND
     1    37    35   ar
     2    35    34    1
     3    35    36   ar
     4    26    25    1
     5    26    27    1
     6    28    27    1
     7    34    33    1
     8    25    24    1
     9    20    21    1
    10    24    21    1
    11    33    30    1
    12    29    30    1
    13    29    22   am
    14    21    22    1
    15    30    31    1
    16    22    23    2
    17    11    12    1
    18    31    38   am
    19    31    32    2
    20    13    12    1
    21    13    14    2
    22    12    15    1
    23    38    39    1
    24    43    42    1
    25    44    42    1
    26     4     3    2
    27     2     1    1
    28     2     3    1
    29     2     5    1
    30    42    39    1
    31    39    40    1
    32    45    46    1
    33    45    40   am
    34    15    16    1
    35    53    51   ar
    36    53    55   ar
    37     5     6    1
    38    16    17    1
    39    51    50   ar
    40    46    47    1
    41    46    49    1
    42    40    41    2
    43    47    48    2
    44    56    55    1
    45    55    54   ar
    46    50    49    1
    47    50    52   ar
    48     6     8   ar
    49     6     7   ar
    50    17    19   am
    51    17    18    2
    52     8    10   ar
    53    54    52   ar
    54     7     9   ar
    55    74    72   ar
    56    74    76   ar
    57    10     9   ar
    58    72    71   ar
    59    76    75   ar
    60    71    70    1
    61    71    73   ar
    62    70    67    1
    63   123   122    1
    64    67    68    1
    65    67    66    1
    66    68    69    2
    67   130   132   ar
    68   130   129   ar
    69   132   133   ar
    70    75    73   ar
    71   121   120    2
    72   103   102    2
    73   129   128    1
    74   129   131   ar
    75   133   135   ar
    76   133   131   ar
    77   122   119    1
    78   128   125    1
    79   109   110    1
    80   109   106    1
    81   135   137   ar
    82   131   134   ar
    83   108   107    2
    84   120   119    1
    85   120   124   am
    86   119   118    1
    87   107   106    1
    88   102   101    1
    89   102   104   am
    90   114   113    2
    91   137   136   ar
    92   134   136   ar
    93   106   105    1
    94   124   125    1
    95   125   126    1
    96   101   100    1
    97   118   113   am
    98   113   112    1
    99   176   175    2
   100   175   174    1
   101   171   169    1
   102   126   138   am
   103   126   127    2
   104   141   140    2
   105   138   139    1
   106   100    97    1
   107   111   112    1
   108   147   148    1
   109   147   146    1
   110   149   148   ar
   111   169   170    1
   112   169   166    1
   113   168   167    2
   114   112   115    1
   115   148   150   ar
   116    97    98    1
   117    97    96    1
   118   174   173    1
   119   174   177    1
   120   140   139    1
   121   140   142   am
   122    98    99    2
   123   167   173   am
   124   167   166    1
   125   170   172    1
   126   115   116    1
   127   115   117    1
   128   143   142    1
   129   143   146    1
   130   143   144    1
   131   166   165    1
   132   151   144   am
   133   151   152    1
   134   177   178    1
   135    96    92   am
   136    93    92    2
   137   144   145    2
   138   165   163   am
   139    92    91    1
   140   152   153    1
   141   178   180   ar
   142   178   179   ar
   143    60    59    2
   144   180   182   ar
   145   154   153    2
   146    65    63   ar
   147   153   155   am
   148   163   164    2
   149   163   162    1
   150   179   181   ar
   151    91    90    1
   152    91    94    1
   153   160    95    1
   154   160   159    1
   155    62    63    1
   156    62    61    1
   157    63    64   ar
   158   182   183   ar
   159    95    94    1
   160    59    58    1
   161    90    87   am
   162   155   156    1
   163   162   161    1
   164   181   183   ar
   165    89    86    1
   166   183   184    1
   167    58    61    1
   168    58    57    1
   169    87    88    2
   170    87    86    1
   171   159   156    1
   172   156   157    1
   173    86    85    1
   174    84    82   ar
   175    83    82   ar
   176   157   158    2
   177    85    79   am
   178    82    81    1
   179    79    80    2
   180    79    78    1
   181    81    78    1
   182    78    77    1
