@<TRIPOS>MOLECULE
tmp/4zhaA00.pdb
 181 179 0 0 0
SMALL
GASTEIGER

@<TRIPOS>ATOM
      1  N         11.8730    4.8470    9.2730 N.3    82  LYS82      -0.1231
      2  CA        10.8200    4.9570   10.2810 C.3    82  LYS82       0.1693
      3  C         10.2660    3.5870   10.6950 C.2    82  LYS82       0.2592
      4  O          9.7180    3.4290   11.7940 O.2    82  LYS82      -0.2718
      5  CB         9.6940    5.8510    9.7430 C.3    82  LYS82       0.0285
      6  CG         8.6020    6.1590   10.7510 C.3    82  LYS82       0.0035
      7  CD         7.6440    7.2350   10.2630 C.3    82  LYS82       0.0206
      8  CE         6.6300    7.5620   11.3510 C.3    82  LYS82       0.1093
      9  NZ         5.6280    8.5780   10.9280 N.3    82  LYS82      -0.1314
     10  N         10.4290    2.5980    9.8200 N.am   83  GLU83      -0.1966
     11  CA         9.8970    1.2490   10.0480 C.3    83  GLU83       0.1733
     12  C         10.5070    0.5390   11.2540 C.2    83  GLU83       0.2617
     13  O          9.8090   -0.1610   11.9910 O.2    83  GLU83      -0.2715
     14  CB        10.0950    0.3740    8.7990 C.3    83  GLU83       0.0429
     15  CG         9.7260    1.0400    7.4750 C.3    83  GLU83       0.1163
     16  CD         8.2910    1.5490    7.4160 C.2    83  GLU83       0.3649
     17  OE1        7.4020    0.9810    8.0920 O.co2  83  GLU83      -0.2457
     18  OE2        8.0480    2.5220    6.6730 O.co2  83  GLU83      -0.2457
     19  N         11.8080    0.7300   11.4490 N.am   84  THR84      -0.1937
     20  CA        12.5500    0.0410   12.5060 C.3    84  THR84       0.2028
     21  C         13.0620    0.9680   13.6040 C.2    84  THR84       0.2642
     22  O         13.2940    0.5220   14.7440 O.2    84  THR84      -0.2714
     23  CB        13.7710   -0.7070   11.9180 C.3    84  THR84       0.1808
     24  OG1       14.6600    0.2320   11.2980 O.3    84  THR84      -0.2208
     25  CG2       13.3330   -1.7320   10.8680 C.3    84  THR84       0.0379
     26  N         13.2310    2.2490   13.2610 N.am   85  TYR85      -0.1973
     27  CA        13.8130    3.2500   14.1720 C.3    85  TYR85       0.1639
     28  C         15.2900    2.9940   14.4370 C.2    85  TYR85       0.2290
     29  O         15.8770    3.5390   15.3770 O.2    85  TYR85      -0.2864
     30  CB        13.0190    3.3730   15.4760 C.3    85  TYR85       0.0560
     31  CG        12.0210    4.5060   15.4850 C.ar   85  TYR85      -0.0198
     32  CD1       10.9780    4.5620   14.5550 C.ar   85  TYR85      -0.0009
     33  CD2       12.1000    5.5100   16.4440 C.ar   85  TYR85      -0.0009
     34  CE1       10.0630    5.6030   14.5710 C.ar   85  TYR85       0.0417
     35  CE2       11.1870    6.5510   16.4720 C.ar   85  TYR85       0.0417
     36  CZ        10.1720    6.5910   15.5350 C.ar   85  TYR85       0.1957
     37  OH         9.2660    7.6230   15.5640 O.3    85  TYR85      -0.2866
     38  N          2.4740   10.7780   30.7970 N.3   135  GLU135     -0.1245
     39  CA         2.1470   10.3170   29.4430 C.3   135  GLU135      0.1567
     40  C          0.9090   11.0310   28.8850 C.2   135  GLU135      0.2260
     41  O          0.8220   11.2890   27.6800 O.2   135  GLU135     -0.2867
     42  CB         1.9350    8.8020   29.4130 C.3   135  GLU135      0.0388
     43  CG         1.8130    8.2160   28.0110 C.3   135  GLU135      0.1160
     44  CD         1.5150    6.7280   28.0210 C.2   135  GLU135      0.3649
     45  OE1        1.6350    6.1000   29.0980 O.co2 135  GLU135     -0.2457
     46  OE2        1.1580    6.1840   26.9510 O.co2 135  GLU135     -0.2457
     47  N          9.2750   -4.6410   20.4600 N.3   162  PHE162     -0.1227
     48  CA         9.9150   -4.3220   19.1830 C.3   162  PHE162      0.1736
     49  C         11.3790   -4.7840   19.2140 C.2   162  PHE162      0.2595
     50  O         11.9080   -5.0440   20.2860 O.2   162  PHE162     -0.2718
     51  CB         9.8250   -2.8120   18.8910 C.3   162  PHE162      0.0547
     52  CG         8.4180   -2.2510   18.9330 C.ar  162  PHE162     -0.0202
     53  CD1        7.8500   -1.8410   20.1370 C.ar  162  PHE162     -0.0042
     54  CD2        7.6700   -2.1160   17.7670 C.ar  162  PHE162     -0.0042
     55  CE1        6.5620   -1.3190   20.1800 C.ar  162  PHE162     -0.0003
     56  CE2        6.3790   -1.5960   17.8010 C.ar  162  PHE162     -0.0003
     57  CZ         5.8260   -1.1920   19.0120 C.ar  162  PHE162     -0.0000
     58  N         12.0240   -4.9050   18.0490 N.am  163  ILE163     -0.1980
     59  CA        13.4270   -5.3300   17.9880 C.3   163  ILE163      0.1595
     60  C         14.3710   -4.2210   18.5130 C.2   163  ILE163      0.2287
     61  O         14.3320   -3.0870   18.0240 O.2   163  ILE163     -0.2864
     62  CB        13.8580   -5.7950   16.5620 C.3   163  ILE163      0.0276
     63  CG1       13.2300   -7.1450   16.1760 C.3   163  ILE163      0.0022
     64  CG2       15.3680   -5.9730   16.4480 C.3   163  ILE163      0.0022
     65  CD1       11.8650   -7.0480   15.5340 C.3   163  ILE163      0.0001
     66  N         20.9000    0.5190   19.7170 N.3   168  MET168     -0.1245
     67  CA        20.0160    0.9790   20.7790 C.3   168  MET168      0.1570
     68  C         20.4610    0.4090   22.1190 C.2   168  MET168      0.2261
     69  O         21.1240   -0.6340   22.1740 O.2   168  MET168     -0.2867
     70  CB        18.5700    0.5220   20.5240 C.3   168  MET168      0.0387
     71  CG        17.9950    0.8730   19.1630 C.3   168  MET168      0.0595
     72  SD        16.3920    0.0670   18.8640 S.3   168  MET168     -0.1393
     73  CE        16.1170    0.5570   17.1560 C.3   168  MET168      0.0692
     74  N         10.7590    8.5630   33.7400 N.3   179  ASP179     -0.1225
     75  CA        11.1310    8.2620   32.3640 C.3   179  ASP179      0.1805
     76  C         11.1820    9.5610   31.5680 C.2   179  ASP179      0.2598
     77  O         10.7350   10.6250   32.0350 O.2   179  ASP179     -0.2718
     78  CB        10.0520    7.3570   31.7480 C.3   179  ASP179      0.1424
     79  CG        10.5530    6.5190   30.5830 C.2   179  ASP179      0.3668
     80  OD1       11.7830    6.4560   30.3510 O.co2 179  ASP179     -0.2456
     81  OD2        9.7000    5.9000   29.9030 O.co2 179  ASP179     -0.2456
     82  N         11.7480    9.4680   30.3730 N.am  180  ALA180     -0.1966
     83  CA        11.6680   10.5470   29.3970 C.3   180  ALA180      0.1728
     84  C         10.2600   10.3790   28.8100 C.2   180  ALA180      0.2616
     85  O          9.6060    9.3560   29.0550 O.2   180  ALA180     -0.2715
     86  CB        12.7180   10.3610   28.3110 C.3   180  ALA180      0.0334
     87  N          9.7880   11.3570   28.0390 N.am  181  CYS181     -0.1954
     88  CA         8.4520   11.2570   27.4320 C.3   181  CYS181      0.1843
     89  C          8.3280   12.0660   26.1350 C.2   181  CYS181      0.2625
     90  O          9.3340   12.5170   25.5700 O.2   181  CYS181     -0.2714
     91  CB         7.3560   11.6320   28.4510 C.3   181  CYS181      0.0997
     92  SG         5.6690   11.1360   27.9790 S.3   181  CYS181     -0.0797
     93  N          7.0900   12.2370   25.6730 N.am  182  GLN182     -0.1977
     94  CA         6.7790   12.9830   24.4520 C.3   182  GLN182      0.1601
     95  C          7.4030   14.3790   24.4600 C.2   182  GLN182      0.2287
     96  O          7.1800   15.1520   25.3870 O.2   182  GLN182     -0.2864
     97  CB         5.2600   13.1140   24.3040 C.3   182  GLN182      0.0394
     98  CG         4.8390   13.9710   23.1270 C.3   182  GLN182      0.0908
     99  CD         5.2210   13.3510   21.7990 C.2   182  GLN182      0.2608
    100  OE1        5.9760   13.9350   21.0240 O.2   182  GLN182     -0.2717
    101  NE2        4.7170   12.1550   21.5410 N.am  182  GLN182     -0.0878
    102  N         12.3150   13.4320   22.9480 N.3   185  SER185     -0.1217
    103  CA        13.0570   12.6550   21.9650 C.3   185  SER185      0.1889
    104  C         14.0320   13.5570   21.2020 C.2   185  SER185      0.2288
    105  O         13.7440   14.7380   20.9790 O.2   185  SER185     -0.2866
    106  CB        12.1280   11.8380   21.0440 C.3   185  SER185      0.2089
    107  OG        11.5640   12.6470   20.0450 O.3   185  SER185     -0.2183
    108  N         17.6890   10.4460   23.2100 N.3   203  VAL203     -0.1231
    109  CA        16.3200   10.0060   23.5450 C.3   203  VAL203      0.1692
    110  C         15.6620    9.5660   22.2270 C.2   203  VAL203      0.2593
    111  O         15.5260   10.3710   21.2990 O.2   203  VAL203     -0.2718
    112  CB        15.5080   11.1240   24.2320 C.3   203  VAL203      0.0266
    113  CG1       14.0650   10.6850   24.4830 C.3   203  VAL203      0.0020
    114  CG2       16.1900   11.5680   25.5230 C.3   203  VAL203      0.0020
    115  N         15.2920    8.2870   22.1320 N.am  204  SER204     -0.1938
    116  CA        14.8110    7.7520   20.8450 C.3   204  SER204      0.2055
    117  C         13.3420    7.3440   20.8830 C.2   204  SER204      0.2643
    118  O         12.5160    7.9510   20.2010 O.2   204  SER204     -0.2714
    119  CB        15.6990    6.5880   20.3840 C.3   204  SER204      0.2130
    120  OG        15.3710    6.1280   19.0760 O.3   204  SER204     -0.2179
    121  N         13.0170    6.3320   21.6840 N.am  205  TRP205     -0.1959
    122  CA        11.6350    5.8540   21.7450 C.3   205  TRP205      0.1771
    123  C         11.2570    5.1140   23.0020 C.2   205  TRP205      0.2620
    124  O         12.1090    4.7420   23.8140 O.2   205  TRP205     -0.2715
    125  CB        11.3100    5.0260   20.5050 C.3   205  TRP205      0.0590
    126  CG        12.1220    3.7550   20.3110 C.ar  205  TRP205      0.0006
    127  CD1       13.3280    3.6080   19.6300 C.ar  205  TRP205      0.0946
    128  CD2       11.7740    2.3950   20.7690 C.ar  205  TRP205      0.0152
    129  NE1       13.7440    2.2960   19.6420 N.ar  205  TRP205     -0.2442
    130  CE2       12.8500    1.5140   20.3000 C.ar  205  TRP205      0.0810
    131  CE3       10.7130    1.8440   21.4820 C.ar  205  TRP205      0.0012
    132  CZ2       12.8500    0.1410   20.5640 C.ar  205  TRP205      0.0191
    133  CZ3       10.7160    0.4590   21.7360 C.ar  205  TRP205      0.0001
    134  CH2       11.7530   -0.3680   21.2850 C.ar  205  TRP205      0.0015
    135  N          9.9540    4.9120   23.1840 N.am  206  GLY206     -0.1940
    136  CA         9.4630    4.1680   24.3310 C.3   206  GLY206      0.2014
    137  C          8.0690    3.6680   24.0430 C.2   206  GLY206      0.2639
    138  O          7.3820    4.2120   23.1940 O.2   206  GLY206     -0.2714
    139  N          7.6730    2.5990   24.7170 N.am  207  GLU207     -0.1963
    140  CA         6.3080    2.0980   24.5870 C.3   207  GLU207      0.1733
    141  C          5.5080    2.8300   25.6550 C.2   207  GLU207      0.2617
    142  O          5.2340    2.2950   26.7230 O.2   207  GLU207     -0.2715
    143  CB         6.2620    0.5780   24.7470 C.3   207  GLU207      0.0429
    144  CG         7.0460   -0.1440   23.6650 C.3   207  GLU207      0.1163
    145  CD         6.8230   -1.6440   23.6570 C.2   207  GLU207      0.3649
    146  OE1        5.6580   -2.0690   23.5360 O.co2 207  GLU207     -0.2457
    147  OE2        7.8180   -2.3960   23.7230 O.co2 207  GLU207     -0.2457
    148  N          5.1820    4.0880   25.3640 N.am  208  GLY208     -0.1940
    149  CA         4.5050    4.9660   26.3170 C.3   208  GLY208      0.2014
    150  C          5.5490    5.7430   27.0970 C.2   208  GLY208      0.2639
    151  O          6.6530    5.9910   26.5950 O.2   208  GLY208     -0.2714
    152  N          5.2070    6.1280   28.3210 N.am  209  CYS209     -0.1967
    153  CA         6.1270    6.8400   29.1970 C.3   209  CYS209      0.1712
    154  C          5.9900    6.3060   30.6140 C.2   209  CYS209      0.2296
    155  O          4.9020    6.3520   31.1960 O.2   209  CYS209     -0.2864
    156  CB         5.8560    8.3610   29.1930 C.3   209  CYS209      0.0983
    157  SG         5.8120    9.1390   27.5590 S.3   209  CYS209     -0.0798
    158  N         13.0010    3.1910   28.6950 N.3   216  GLY216     -0.1210
    159  CA        13.2800    4.1380   27.6060 C.3   216  GLY216      0.1956
    160  C         14.3690    3.5920   26.6950 C.2   216  GLY216      0.2612
    161  O         15.3720    3.0130   27.1620 O.2   216  GLY216     -0.2717
    162  N         14.1810    3.7560   25.3940 N.am  217  ILE217     -0.1965
    163  CA        15.1640    3.2720   24.4440 C.3   217  ILE217      0.1727
    164  C         15.9210    4.4560   23.8160 C.2   217  ILE217      0.2616
    165  O         15.3290    5.4010   23.2630 O.2   217  ILE217     -0.2715
    166  CB        14.5710    2.3350   23.3520 C.3   217  ILE217      0.0290
    167  CG1       13.4790    1.3840   23.9160 C.3   217  ILE217      0.0022
    168  CG2       15.6820    1.5710   22.6460 C.3   217  ILE217      0.0023
    169  CD1       13.9170    0.4310   25.0140 C.3   217  ILE217      0.0001
    170  N         17.2430    4.3620   23.9010 N.am  218  TYR218     -0.1974
    171  CA        18.1390    5.4110   23.4620 C.3   218  TYR218      0.1639
    172  C         19.0510    4.9550   22.3390 C.2   218  TYR218      0.2290
    173  O         19.4920    3.8070   22.3100 O.2   218  TYR218     -0.2864
    174  CB        18.9940    5.8570   24.6610 C.3   218  TYR218      0.0560
    175  CG        18.1870    6.4460   25.8090 C.ar  218  TYR218     -0.0198
    176  CD1       17.4150    5.6290   26.6500 C.ar  218  TYR218     -0.0009
    177  CD2       18.1850    7.8180   26.0440 C.ar  218  TYR218     -0.0009
    178  CE1       16.6610    6.1710   27.6840 C.ar  218  TYR218      0.0417
    179  CE2       17.4450    8.3700   27.0740 C.ar  218  TYR218      0.0417
    180  CZ        16.6810    7.5440   27.8920 C.ar  218  TYR218      0.1957
    181  OH        15.9400    8.0870   28.9070 O.3   218  TYR218     -0.2866
@<TRIPOS>BOND
     1    18    16   ar
     2    16    15    1
     3    16    17   ar
     4    15    14    1
     5    14    11    1
     6     1     2    1
     7     5     2    1
     8     5     6    1
     9    10    11    1
    10    10     3   am
    11    11    12    1
    12     7     6    1
    13     7     8    1
    14     2     3    1
    15     3     4    2
    16    25    23    1
    17     9     8    1
    18    12    19   am
    19    12    13    2
    20    24    23    1
    21    19    20    1
    22    23    20    1
    23    20    21    1
    24    26    21   am
    25    26    27    1
    26    21    22    2
    27    27    28    1
    28    27    30    1
    29    28    29    2
    30    32    34   ar
    31    32    31   ar
    32    34    36   ar
    33    30    31    1
    34    31    33   ar
    35    65    63    1
    36    36    37    1
    37    36    35   ar
    38    63    62    1
    39    33    35   ar
    40    64    62    1
    41    62    59    1
    42    73    72    1
    43    54    56   ar
    44    54    52   ar
    45    56    57   ar
    46    59    58    1
    47    59    60    1
    48    61    60    2
    49    58    49   am
    50    72    71    1
    51    51    52    1
    52    51    48    1
    53    52    53   ar
    54    57    55   ar
    55   120   119    1
    56    71    70    1
    57    48    49    1
    58    48    47    1
    59    49    50    2
    60   127   129   ar
    61   127   126   ar
    62   129   130   ar
    63    66    67    1
    64   107   106    1
    65    53    55   ar
    66   118   117    2
    67   130   132   ar
    68   130   128   ar
    69   126   125    1
    70   126   128   ar
    71   119   116    1
    72   125   122    1
    73    70    67    1
    74   132   134   ar
    75   128   131   ar
    76    67    68    1
    77   116   117    1
    78   116   115    1
    79   117   121   am
    80   105   104    2
    81   100    99    2
    82   106   103    1
    83   104   103    1
    84   134   133   ar
    85   111   110    2
    86   131   133   ar
    87   101    99   am
    88   121   122    1
    89   122   123    1
    90    99    98    1
    91   103   102    1
    92    68    69    2
    93   115   110   am
    94   110   109    1
    95   173   172    2
    96   172   171    1
    97   168   166    1
    98   123   135   am
    99   123   124    2
   100    98    97    1
   101   135   136    1
   102   138   137    2
   103   108   109    1
   104   165   164    2
   105   166   167    1
   106   166   163    1
   107   171   170    1
   108   171   174    1
   109   146   145   ar
   110   109   112    1
   111   145   144    1
   112   145   147   ar
   113   144   143    1
   114   164   170   am
   115   164   163    1
   116   167   169    1
   117   137   136    1
   118   137   139   am
   119   112   113    1
   120   112   114    1
   121    97    94    1
   122   163   162    1
   123    94    95    1
   124    94    93    1
   125    95    96    2
   126   140   139    1
   127   140   143    1
   128   140   141    1
   129   174   175    1
   130   148   141   am
   131   148   149    1
   132   162   160   am
   133    90    89    2
   134   141   142    2
   135    93    89   am
   136   175   177   ar
   137   175   176   ar
   138   177   179   ar
   139    89    88    1
   140   149   150    1
   141   151   150    2
   142   176   178   ar
   143   160   161    2
   144   160   159    1
   145    46    44   ar
   146   179   180   ar
   147   150   152   am
   148    88    87    1
   149    88    91    1
   150   157    92    1
   151   157   156    1
   152   159   158    1
   153    41    40    2
   154   178   180   ar
   155   180   181    1
   156    92    91    1
   157    43    44    1
   158    43    42    1
   159    44    45   ar
   160    87    84   am
   161    86    83    1
   162   152   153    1
   163    84    85    2
   164    84    83    1
   165    40    39    1
   166   156   153    1
   167   153   154    1
   168    83    82    1
   169    42    39    1
   170    39    38    1
   171    81    79   ar
   172    80    79   ar
   173    82    76   am
   174    79    78    1
   175   154   155    2
   176    76    77    2
   177    76    75    1
   178    78    75    1
   179    75    74    1
