@<TRIPOS>MOLECULE
tmp/4zhdA00.pdb
 108 105 0 0 0
SMALL
GASTEIGER

@<TRIPOS>ATOM
      1  N         36.7600   78.8580   55.5890 N.3    33  LEU33      -0.1245
      2  CA        35.6660   79.2920   56.4550 C.3    33  LEU33       0.1561
      3  C         35.4450   80.7850   56.2550 C.2    33  LEU33       0.2260
      4  O         36.3950   81.5430   56.2500 O.2    33  LEU33      -0.2867
      5  CB        36.0520   79.0030   57.9140 C.3    33  LEU33       0.0270
      6  CG        35.0910   79.3040   59.0390 C.3    33  LEU33       0.0019
      7  CD1       33.8700   78.3880   58.9760 C.3    33  LEU33       0.0001
      8  CD2       35.8210   79.1290   60.3750 C.3    33  LEU33       0.0001
      9  N         30.6460   86.7620   61.1930 N.3    37  ALA37      -0.1231
     10  CA        31.3640   86.8280   62.4690 C.3    37  ALA37       0.1694
     11  C         32.7510   86.1860   62.3880 C.2    37  ALA37       0.2591
     12  O         33.3900   85.9720   63.4070 O.2    37  ALA37      -0.2718
     13  CB        30.5560   86.1420   63.5600 C.3    37  ALA37       0.0304
     14  N         33.2050   85.8390   61.1910 N.am   38  ILE38      -0.1980
     15  CA        34.5480   85.2640   61.0360 C.3    38  ILE38       0.1595
     16  C         35.5120   86.3830   60.6700 C.2    38  ILE38       0.2287
     17  O         35.2320   87.1830   59.7660 O.2    38  ILE38      -0.2864
     18  CB        34.5780   84.2340   59.8950 C.3    38  ILE38       0.0276
     19  CG1       33.5020   83.1650   60.0870 C.3    38  ILE38       0.0022
     20  CG2       35.9630   83.6240   59.7620 C.3    38  ILE38       0.0022
     21  CD1       33.6810   82.3200   61.3120 C.3    38  ILE38       0.0001
     22  N         39.8740   72.3380   61.6210 N.3    49  TYR49      -0.1241
     23  CA        39.1490   71.3340   62.3630 C.3    49  TYR49       0.1605
     24  C         38.3610   70.4750   61.4040 C.2    49  TYR49       0.2264
     25  O         38.4100   70.6710   60.1750 O.2    49  TYR49      -0.2867
     26  CB        38.2200   71.9840   63.4120 C.3    49  TYR49       0.0534
     27  CG        37.1460   72.9140   62.8570 C.ar   49  TYR49      -0.0201
     28  CD1       37.4460   74.2330   62.5450 C.ar   49  TYR49      -0.0009
     29  CD2       35.8350   72.4810   62.6750 C.ar   49  TYR49      -0.0009
     30  CE1       36.4730   75.0930   62.0570 C.ar   49  TYR49       0.0417
     31  CE2       34.8440   73.3320   62.1730 C.ar   49  TYR49       0.0417
     32  CZ        35.1800   74.6450   61.8890 C.ar   49  TYR49       0.1957
     33  OH        34.2670   75.5170   61.3920 O.3    49  TYR49      -0.2866
     34  N         17.9340   78.2150   62.8660 N.3   103  TYR103     -0.1241
     35  CA        19.1560   77.5920   62.3720 C.3   103  TYR103      0.1605
     36  C         18.8780   76.8390   61.0640 C.2   103  TYR103      0.2264
     37  O         17.9740   76.0280   60.9920 O.2   103  TYR103     -0.2867
     38  CB        19.7420   76.6390   63.4180 C.3   103  TYR103      0.0534
     39  CG        21.2050   76.3100   63.1680 C.ar  103  TYR103     -0.0201
     40  CD1       21.5750   75.3040   62.2890 C.ar  103  TYR103     -0.0009
     41  CD2       22.2070   77.0170   63.8130 C.ar  103  TYR103     -0.0009
     42  CE1       22.9050   75.0240   62.0400 C.ar  103  TYR103      0.0417
     43  CE2       23.5320   76.7280   63.6000 C.ar  103  TYR103      0.0417
     44  CZ        23.8770   75.7410   62.7030 C.ar  103  TYR103      0.1957
     45  OH        25.1950   75.5110   62.4810 O.3   103  TYR103     -0.2866
     46  N         25.3990   78.1200   56.2520 N.3   120  PHE120     -0.1241
     47  CA        24.7010   78.0550   57.5190 C.3   120  PHE120      0.1605
     48  C         24.2100   79.4500   57.8780 C.2   120  PHE120      0.2264
     49  O         24.9290   80.4390   57.6910 O.2   120  PHE120     -0.2867
     50  CB        25.6580   77.6340   58.6290 C.3   120  PHE120      0.0534
     51  CG        26.3620   76.3340   58.3970 C.ar  120  PHE120     -0.0203
     52  CD1       25.9500   75.1880   59.0640 C.ar  120  PHE120     -0.0042
     53  CD2       27.4930   76.2710   57.5930 C.ar  120  PHE120     -0.0042
     54  CE1       26.6170   73.9830   58.8830 C.ar  120  PHE120     -0.0003
     55  CE2       28.1580   75.0780   57.4150 C.ar  120  PHE120     -0.0003
     56  CZ        27.7110   73.9280   58.0580 C.ar  120  PHE120     -0.0000
     57  N         22.0320   81.3260   61.2280 N.3   122  LYS122     -0.1245
     58  CA        21.3690   81.2250   62.5040 C.3   122  LYS122      0.1561
     59  C         20.9580   82.5710   63.0620 C.2   122  LYS122      0.2260
     60  O         21.5780   83.5830   62.7610 O.2   122  LYS122     -0.2867
     61  CB        22.2750   80.5210   63.5060 C.3   122  LYS122      0.0271
     62  CG        23.5100   81.2860   63.8990 C.3   122  LYS122      0.0035
     63  CD        24.3040   80.5890   64.9980 C.3   122  LYS122      0.0206
     64  CE        25.2930   81.5750   65.5790 C.3   122  LYS122      0.1093
     65  NZ        26.2720   80.9710   66.4880 N.3   122  LYS122     -0.1314
     66  N         20.3860   88.1970   66.8010 N.3   127  ARG127     -0.1245
     67  CA        21.3500   88.6160   65.7940 C.3   127  ARG127      0.1563
     68  C         21.4460   87.5650   64.7230 C.2   127  ARG127      0.2260
     69  O         21.4290   86.3690   65.0230 O.2   127  ARG127     -0.2867
     70  CB        22.7120   88.8660   66.4390 C.3   127  ARG127      0.0307
     71  CG        22.6750   90.0590   67.3850 C.3   127  ARG127      0.0489
     72  CD        23.8880   90.1000   68.3020 C.3   127  ARG127      0.2205
     73  NE        24.0990   88.8420   69.0120 N.pl3 127  ARG127     -0.0865
     74  CZ        24.7570   88.7420   70.1610 C.cat 127  ARG127      0.5346
     75  NH1       25.2520   89.8280   70.7440 N.pl3 127  ARG127      0.1354
     76  NH2       24.9120   87.5570   70.7310 N.pl3 127  ARG127      0.1354
     77  N         23.4420   85.6040   62.0510 N.3   129  TYR129     -0.1227
     78  CA        24.8010   85.2120   61.6470 C.3   129  TYR129      0.1736
     79  C         24.7320   84.2820   60.4440 C.2   129  TYR129      0.2595
     80  O         23.7850   83.5020   60.3030 O.2   129  TYR129     -0.2718
     81  CB        25.4960   84.4740   62.7860 C.3   129  TYR129      0.0548
     82  CG        25.7180   85.3040   64.0300 C.ar  129  TYR129     -0.0200
     83  CD1       24.8180   85.2600   65.0880 C.ar  129  TYR129     -0.0009
     84  CD2       26.8290   86.1310   64.1550 C.ar  129  TYR129     -0.0009
     85  CE1       25.0210   86.0070   66.2230 C.ar  129  TYR129      0.0417
     86  CE2       27.0270   86.8950   65.2960 C.ar  129  TYR129      0.0417
     87  CZ        26.1250   86.8180   66.3230 C.ar  129  TYR129      0.1957
     88  OH        26.2990   87.5730   67.4730 O.3   129  TYR129     -0.2866
     89  N         25.7430   84.3330   59.5880 N.am  130  PHE130     -0.1962
     90  CA        25.8720   83.3120   58.5670 C.3   130  PHE130      0.1771
     91  C         27.3360   82.9720   58.3260 C.2   130  PHE130      0.2619
     92  O         28.2320   83.7770   58.5750 O.2   130  PHE130     -0.2715
     93  CB        25.1700   83.7110   57.2590 C.3   130  PHE130      0.0574
     94  CG        25.8780   84.7970   56.4780 C.ar  130  PHE130     -0.0200
     95  CD1       25.7620   86.1160   56.8540 C.ar  130  PHE130     -0.0042
     96  CD2       26.6220   84.4890   55.3560 C.ar  130  PHE130     -0.0042
     97  CE1       26.4020   87.1140   56.1620 C.ar  130  PHE130     -0.0003
     98  CE2       27.2560   85.4860   54.6320 C.ar  130  PHE130     -0.0003
     99  CZ        27.1600   86.7970   55.0400 C.ar  130  PHE130     -0.0000
    100  N         27.5600   81.7430   57.8920 N.am  131  LYS131     -0.1977
    101  CA        28.8780   81.3040   57.5150 C.3   131  LYS131      0.1596
    102  C         28.8170   80.3590   56.3300 C.2   131  LYS131      0.2287
    103  O         27.7910   79.7620   56.0530 O.2   131  LYS131     -0.2864
    104  CB        29.6240   80.6950   58.7080 C.3   131  LYS131      0.0298
    105  CG        29.2030   79.3010   59.0840 C.3   131  LYS131      0.0038
    106  CD        30.0640   78.7340   60.2240 C.3   131  LYS131      0.0206
    107  CE        29.5660   77.3420   60.5720 C.3   131  LYS131      0.1093
    108  NZ        30.0980   76.8070   61.8470 N.3   131  LYS131     -0.1314
@<TRIPOS>BOND
     1    98    99   ar
     2    98    96   ar
     3    99    97   ar
     4    96    94   ar
     5     1     2    1
     6   103   102    2
     7    97    95   ar
     8     4     3    2
     9    46    47    1
    10     3     2    1
    11   102   101    1
    12     2     5    1
    13    94    95   ar
    14    94    93    1
    15    93    90    1
    16    55    53   ar
    17    55    56   ar
    18   101   100    1
    19   101   104    1
    20    47    48    1
    21    47    50    1
    22    53    51   ar
    23    49    48    2
    24   100    91   am
    25     5     6    1
    26    56    54   ar
    27    91    90    1
    28    91    92    2
    29    51    50    1
    30    51    52   ar
    31    90    89    1
    32   104   105    1
    33    54    52   ar
    34     7     6    1
    35     6     8    1
    36   105   106    1
    37    89    79   am
    38    20    18    1
    39    17    16    2
    40    18    19    1
    41    18    15    1
    42    19    21    1
    43    25    24    2
    44   106   107    1
    45    80    79    2
    46    79    78    1
    47   107   108    1
    48    16    15    1
    49    37    36    2
    50    15    14    1
    51    36    35    1
    52    14    11   am
    53     9    10    1
    54    57    58    1
    55    33    32    1
    56    24    23    1
    57    22    23    1
    58    78    77    1
    59    78    81    1
    60    32    30   ar
    61    32    31   ar
    62    42    40   ar
    63    42    44   ar
    64    30    28   ar
    65    31    29   ar
    66    40    39   ar
    67    23    26    1
    68    35    34    1
    69    35    38    1
    70    11    10    1
    71    11    12    2
    72    10    13    1
    73    45    44    1
    74    58    59    1
    75    58    61    1
    76    28    27   ar
    77    29    27   ar
    78    44    43   ar
    79    60    59    2
    80    81    82    1
    81    27    26    1
    82    39    38    1
    83    39    41   ar
    84    61    62    1
    85    43    41   ar
    86    62    63    1
    87    82    84   ar
    88    82    83   ar
    89    84    86   ar
    90    68    69    2
    91    68    67    1
    92    63    64    1
    93    83    85   ar
    94    86    87   ar
    95    64    65    1
    96    67    70    1
    97    67    66    1
    98    85    87   ar
    99    87    88    1
   100    70    71    1
   101    71    72    1
   102    72    73    1
   103    73    74    2
   104    74    76    1
   105    74    75    1
