@<TRIPOS>MOLECULE
tmp/4zhgF00.pdb
 197 189 0 0 0
SMALL
GASTEIGER

@<TRIPOS>ATOM
      1  N         27.4060  -66.4210   -7.7850 N.3    34  LEU34      -0.1245
      2  CA        27.7740  -67.3070   -6.6720 C.3    34  LEU34       0.1561
      3  C         29.2130  -67.0480   -6.3130 C.2    34  LEU34       0.2260
      4  O         30.0740  -66.9690   -7.2020 O.2    34  LEU34      -0.2867
      5  CB        27.7300  -68.7730   -7.0890 C.3    34  LEU34       0.0270
      6  CG        26.4180  -69.5070   -7.1700 C.3    34  LEU34       0.0019
      7  CD1       26.6430  -70.8430   -7.8730 C.3    34  LEU34       0.0001
      8  CD2       25.8510  -69.7040   -5.7690 C.3    34  LEU34       0.0001
      9  N         34.0790  -72.8950   -1.6300 N.3    38  ALA38      -0.1231
     10  CA        34.0250  -74.0800   -2.4810 C.3    38  ALA38       0.1694
     11  C         33.5140  -73.7530   -3.8910 C.2    38  ALA38       0.2591
     12  O         33.1650  -74.6530   -4.6370 O.2    38  ALA38      -0.2718
     13  CB        33.1460  -75.1500   -1.8410 C.3    38  ALA38       0.0304
     14  N         33.4450  -72.4740   -4.2450 N.am   39  ILE39      -0.1980
     15  CA        33.1290  -72.0860   -5.6230 C.3    39  ILE39       0.1595
     16  C         34.4280  -71.8480   -6.3760 C.2    39  ILE39       0.2287
     17  O         35.3250  -71.1610   -5.8840 O.2    39  ILE39      -0.2864
     18  CB        32.2580  -70.8140   -5.6690 C.3    39  ILE39       0.0276
     19  CG1       30.8790  -71.0770   -5.0600 C.3    39  ILE39       0.0022
     20  CG2       32.0860  -70.3160   -7.0960 C.3    39  ILE39       0.0022
     21  CD1       30.0350  -72.0270   -5.8820 C.3    39  ILE39       0.0001
     22  N         29.2900  -73.0990  -15.0570 N.3    47  GLN47      -0.1245
     23  CA        28.1490  -73.3110  -14.1950 C.3    47  GLN47       0.1566
     24  C         26.9000  -72.7940  -14.9010 C.2    47  GLN47       0.2260
     25  O         26.8800  -71.6730  -15.4190 O.2    47  GLN47      -0.2867
     26  CB        28.3800  -72.5660  -12.8830 C.3    47  GLN47       0.0367
     27  CG        27.1380  -72.3690  -12.0370 C.3    47  GLN47       0.0905
     28  CD        26.9090  -73.5310  -11.0910 C.2    47  GLN47       0.2608
     29  OE1       27.8320  -73.9810  -10.4130 O.2    47  GLN47      -0.2717
     30  NE2       25.6840  -74.0330  -11.0580 N.am   47  GLN47      -0.0878
     31  N         20.5720  -71.7270  -12.1300 N.3    50  TYR50      -0.1241
     32  CA        19.4240  -72.4270  -11.5890 C.3    50  TYR50       0.1605
     33  C         18.5380  -71.4330  -10.8790 C.2    50  TYR50       0.2264
     34  O         18.8970  -70.2680  -10.7450 O.2    50  TYR50      -0.2867
     35  CB        19.8550  -73.5870  -10.6580 C.3    50  TYR50       0.0534
     36  CG        20.7760  -73.2110   -9.5220 C.ar   50  TYR50      -0.0201
     37  CD1       22.1550  -73.2000   -9.6940 C.ar   50  TYR50      -0.0009
     38  CD2       20.2810  -72.9760   -8.2550 C.ar   50  TYR50      -0.0009
     39  CE1       23.0040  -72.8830   -8.6470 C.ar   50  TYR50       0.0417
     40  CE2       21.1250  -72.6770   -7.1930 C.ar   50  TYR50       0.0417
     41  CZ        22.4840  -72.6220   -7.3980 C.ar   50  TYR50       0.1957
     42  OH        23.3130  -72.2880   -6.3470 O.3    50  TYR50      -0.2866
     43  N         15.6550  -70.7790   -7.5350 N.3    52  THR52      -0.1218
     44  CA        15.2230  -71.2100   -6.2220 C.3    52  THR52       0.1862
     45  C         13.9280  -70.4790   -5.8290 C.2    52  THR52       0.2287
     46  O         13.8350  -69.2360   -5.9170 O.2    52  THR52      -0.2866
     47  CB        16.3330  -70.9430   -5.1900 C.3    52  THR52       0.1770
     48  OG1       17.5070  -71.6950   -5.5560 O.3    52  THR52      -0.2211
     49  CG2       15.8710  -71.3320   -3.7980 C.3    52  THR52       0.0375
     50  N         14.9210  -75.6790   -5.1450 N.3    66  SER66      -0.1217
     51  CA        15.8330  -75.2930   -6.1980 C.3    66  SER66       0.1889
     52  C         15.6290  -76.2250   -7.3860 C.2    66  SER66       0.2288
     53  O         15.5020  -77.4400   -7.2330 O.2    66  SER66      -0.2866
     54  CB        17.2820  -75.3210   -5.6970 C.3    66  SER66       0.2089
     55  OG        17.5290  -74.2220   -4.8250 O.3    66  SER66      -0.2183
     56  N         17.3340  -77.3480  -11.0220 N.3    68  LEU68      -0.1245
     57  CA        18.5770  -77.3480  -11.7840 C.3    68  LEU68       0.1561
     58  C         18.4060  -78.2270  -13.0140 C.2    68  LEU68       0.2260
     59  O         17.6280  -79.1680  -12.9930 O.2    68  LEU68      -0.2867
     60  CB        19.7380  -77.8820  -10.9390 C.3    68  LEU68       0.0270
     61  CG        20.1170  -77.0750   -9.6970 C.3    68  LEU68       0.0019
     62  CD1       19.3120  -77.5000   -8.4660 C.3    68  LEU68       0.0001
     63  CD2       21.6000  -77.2200   -9.4230 C.3    68  LEU68       0.0001
     64  N         16.3600  -81.3660  -12.0810 N.3    75  ASP75      -0.1239
     65  CA        16.7610  -81.8820  -10.7830 C.3    75  ASP75       0.1674
     66  C         16.2590  -80.9290   -9.7020 C.2    75  ASP75       0.2266
     67  O         16.3720  -79.7100   -9.8320 O.2    75  ASP75      -0.2867
     68  CB        18.2810  -82.0060  -10.7480 C.3    75  ASP75       0.1410
     69  CG        18.8210  -82.3560   -9.3690 C.2    75  ASP75       0.3668
     70  OD1       18.5410  -83.4540   -8.8300 O.co2  75  ASP75      -0.2456
     71  OD2       19.5470  -81.5090   -8.8250 O.co2  75  ASP75      -0.2456
     72  N         15.8850  -79.8430   -5.6050 N.3    77  TRP77      -0.1241
     73  CA        16.1670  -79.9750   -4.1880 C.3    77  TRP77       0.1605
     74  C         15.1740  -79.1900   -3.3490 C.2    77  TRP77       0.2264
     75  O         15.1260  -77.9510   -3.4160 O.2    77  TRP77      -0.2867
     76  CB        17.5910  -79.5330   -3.8670 C.3    77  TRP77       0.0550
     77  CG        17.8880  -79.6910   -2.4120 C.ar   77  TRP77       0.0003
     78  CD1       17.4520  -80.7060   -1.6020 C.ar   77  TRP77       0.0946
     79  CD2       18.6200  -78.8020   -1.5750 C.ar   77  TRP77       0.0152
     80  NE1       17.8970  -80.5120   -0.3170 N.ar   77  TRP77      -0.2442
     81  CE2       18.6090  -79.3450   -0.2740 C.ar   77  TRP77       0.0810
     82  CE3       19.3000  -77.6000   -1.8000 C.ar   77  TRP77       0.0012
     83  CZ2       19.2510  -78.7390    0.7900 C.ar   77  TRP77       0.0191
     84  CZ3       19.9240  -76.9950   -0.7440 C.ar   77  TRP77       0.0001
     85  CH2       19.9030  -77.5700    0.5410 C.ar   77  TRP77       0.0015
     86  N         13.8150  -78.2880    0.4490 N.3    79  ARG79      -0.1245
     87  CA        14.1140  -78.2930    1.8770 C.3    79  ARG79       0.1563
     88  C         13.3270  -77.1820    2.5580 C.2    79  ARG79       0.2260
     89  O         12.6900  -76.3590    1.9030 O.2    79  ARG79      -0.2867
     90  CB        15.6270  -78.1110    2.1170 C.3    79  ARG79       0.0307
     91  CG        16.1940  -76.7500    1.7350 C.3    79  ARG79       0.0489
     92  CD        16.2910  -76.5620    0.2300 C.3    79  ARG79       0.2205
     93  NE        17.1850  -75.4730   -0.1550 N.pl3  79  ARG79      -0.0865
     94  CZ        17.2740  -74.9760   -1.3920 C.cat  79  ARG79       0.5346
     95  NH1       16.4910  -75.4390   -2.3650 N.pl3  79  ARG79       0.1354
     96  NH2       18.1110  -73.9900   -1.6510 N.pl3  79  ARG79       0.1354
     97  N         18.1570  -74.8040    8.5770 N.3    92  LEU92      -0.1245
     98  CA        17.5530  -75.9180    7.8930 C.3    92  LEU92       0.1561
     99  C         16.5910  -76.6820    8.8050 C.2    92  LEU92       0.2260
    100  O         16.9690  -77.1290    9.8760 O.2    92  LEU92      -0.2867
    101  CB        18.7070  -76.7930    7.4420 C.3    92  LEU92       0.0270
    102  CG        18.6090  -77.6040    6.1920 C.3    92  LEU92       0.0019
    103  CD1       18.0990  -76.7750    5.0190 C.3    92  LEU92       0.0001
    104  CD2       19.9720  -78.2200    5.8880 C.3    92  LEU92       0.0001
    105  N         20.1230  -84.7880    8.0070 N.3    98  TYR98      -0.1241
    106  CA        21.1750  -84.7100    6.9790 C.3    98  TYR98       0.1605
    107  C         22.5090  -85.2230    7.5400 C.2    98  TYR98       0.2264
    108  O         23.1360  -84.5520    8.3460 O.2    98  TYR98      -0.2867
    109  CB        21.3570  -83.2650    6.4750 C.3    98  TYR98       0.0534
    110  CG        20.1270  -82.6250    5.8430 C.ar   98  TYR98      -0.0201
    111  CD1       19.2330  -81.8940    6.6030 C.ar   98  TYR98      -0.0009
    112  CD2       19.8740  -82.7430    4.4830 C.ar   98  TYR98      -0.0009
    113  CE1       18.1230  -81.2900    6.0320 C.ar   98  TYR98       0.0417
    114  CE2       18.7640  -82.1430    3.8990 C.ar   98  TYR98       0.0417
    115  CZ        17.8950  -81.4150    4.6790 C.ar   98  TYR98       0.1957
    116  OH        16.7790  -80.8120    4.1390 O.3    98  TYR98      -0.2866
    117  N         26.1850  -83.3640    8.4720 N.3   101  LEU101     -0.1245
    118  CA        25.9380  -81.9220    8.5840 C.3   101  LEU101      0.1561
    119  C         25.7440  -81.5460   10.0440 C.2   101  LEU101      0.2260
    120  O         24.8970  -82.1190   10.7260 O.2   101  LEU101     -0.2867
    121  CB        24.6660  -81.5670    7.8230 C.3   101  LEU101      0.0270
    122  CG        24.2800  -80.0960    7.8560 C.3   101  LEU101      0.0019
    123  CD1       25.3890  -79.2890    7.2160 C.3   101  LEU101      0.0001
    124  CD2       22.9550  -79.8990    7.1400 C.3   101  LEU101      0.0001
    125  N         24.1720  -75.1870    9.9390 N.3   104  TYR104     -0.1241
    126  CA        23.7460  -74.5710    8.7010 C.3   104  TYR104      0.1605
    127  C         23.0920  -73.2620    9.0710 C.2   104  TYR104      0.2264
    128  O         22.1800  -73.2340    9.8820 O.2   104  TYR104     -0.2867
    129  CB        22.7610  -75.4840    7.9560 C.3   104  TYR104      0.0534
    130  CG        22.6100  -75.1640    6.4810 C.ar  104  TYR104     -0.0201
    131  CD1       21.7190  -74.1880    6.0430 C.ar  104  TYR104     -0.0009
    132  CD2       23.3750  -75.8300    5.5300 C.ar  104  TYR104     -0.0009
    133  CE1       21.5900  -73.8930    4.6930 C.ar  104  TYR104      0.0417
    134  CE2       23.2630  -75.5440    4.1920 C.ar  104  TYR104      0.0417
    135  CZ        22.3820  -74.5650    3.7830 C.ar  104  TYR104      0.1957
    136  OH        22.2610  -74.2860    2.4570 O.3   104  TYR104     -0.2866
    137  N         25.3570  -67.9650    3.2100 N.3   121  PHE121     -0.1227
    138  CA        25.1410  -69.3010    3.7400 C.3   121  PHE121      0.1736
    139  C         26.4460  -69.8070    4.3550 C.2   121  PHE121      0.2595
    140  O         27.5270  -69.6520    3.7770 O.2   121  PHE121     -0.2718
    141  CB        24.7510  -70.2570    2.6230 C.3   121  PHE121      0.0547
    142  CG        23.4830  -69.9020    1.9110 C.ar  121  PHE121     -0.0202
    143  CD1       22.3000  -70.5610    2.2100 C.ar  121  PHE121     -0.0042
    144  CD2       23.4850  -68.9710    0.8850 C.ar  121  PHE121     -0.0042
    145  CE1       21.1410  -70.2820    1.5250 C.ar  121  PHE121     -0.0003
    146  CE2       22.3230  -68.6810    0.2020 C.ar  121  PHE121     -0.0003
    147  CZ        21.1520  -69.3340    0.5220 C.ar  121  PHE121     -0.0000
    148  N         26.3460  -70.4600    5.5120 N.am  122  LYS122     -0.1966
    149  CA        27.5060  -71.0760    6.1430 C.3   122  LYS122      0.1728
    150  C         27.1080  -72.4330    6.6550 C.2   122  LYS122      0.2616
    151  O         26.0410  -72.6030    7.2350 O.2   122  LYS122     -0.2715
    152  CB        28.0100  -70.2240    7.2950 C.3   122  LYS122      0.0311
    153  CG        29.1980  -70.8130    8.0400 C.3   122  LYS122      0.0038
    154  CD        29.8740  -69.7840    8.9320 C.3   122  LYS122      0.0206
    155  CE        29.1860  -69.7090   10.2860 C.3   122  LYS122      0.1093
    156  NZ        29.3340  -70.9980   11.0270 N.3   122  LYS122     -0.1314
    157  N         27.9460  -73.4160    6.4240 N.am  123  LYS123     -0.1977
    158  CA        27.6500  -74.7390    6.8990 C.3   123  LYS123      0.1596
    159  C         28.8990  -75.4440    7.3460 C.2   123  LYS123      0.2287
    160  O         29.9850  -75.2070    6.8100 O.2   123  LYS123     -0.2864
    161  CB        26.9050  -75.5100    5.8190 C.3   123  LYS123      0.0298
    162  CG        27.6640  -76.5970    5.1140 C.3   123  LYS123      0.0038
    163  CD        26.7570  -77.2350    4.0680 C.3   123  LYS123      0.0206
    164  CE        27.4180  -78.4140    3.3920 C.3   123  LYS123      0.1093
    165  NZ        26.4100  -79.3100    2.7640 N.3   123  LYS123     -0.1314
    166  N         32.1560  -74.3660    5.3180 N.3   130  TYR130     -0.1227
    167  CA        31.9230  -73.8600    3.9610 C.3   130  TYR130      0.1736
    168  C         31.0850  -72.6120    4.0550 C.2   130  TYR130      0.2595
    169  O         30.1750  -72.5230    4.8920 O.2   130  TYR130     -0.2718
    170  CB        31.1780  -74.8970    3.1200 C.3   130  TYR130      0.0548
    171  CG        31.9490  -76.1710    2.9210 C.ar  130  TYR130     -0.0200
    172  CD1       31.6950  -77.2850    3.7120 C.ar  130  TYR130     -0.0009
    173  CD2       32.9610  -76.2580    1.9730 C.ar  130  TYR130     -0.0009
    174  CE1       32.3900  -78.4590    3.5360 C.ar  130  TYR130      0.0417
    175  CE2       33.6690  -77.4340    1.7800 C.ar  130  TYR130      0.0417
    176  CZ        33.3800  -78.5300    2.5710 C.ar  130  TYR130      0.1957
    177  OH        34.0840  -79.6970    2.4500 O.3   130  TYR130     -0.2866
    178  N         31.3790  -71.6320    3.2070 N.am  131  PHE131     -0.1962
    179  CA        30.5340  -70.4680    3.1120 C.3   131  PHE131      0.1771
    180  C         30.3720  -70.0160    1.6780 C.2   131  PHE131      0.2619
    181  O         31.2410  -70.2360    0.8350 O.2   131  PHE131     -0.2715
    182  CB        31.0260  -69.3310    3.9980 C.3   131  PHE131      0.0574
    183  CG        32.2240  -68.6000    3.4690 C.ar  131  PHE131     -0.0200
    184  CD1       33.4960  -69.0980    3.6430 C.ar  131  PHE131     -0.0042
    185  CD2       32.0770  -67.3600    2.8270 C.ar  131  PHE131     -0.0042
    186  CE1       34.6000  -68.4090    3.1750 C.ar  131  PHE131     -0.0003
    187  CE2       33.1920  -66.6730    2.3600 C.ar  131  PHE131     -0.0003
    188  CZ        34.4410  -67.2010    2.5190 C.ar  131  PHE131     -0.0000
    189  N         29.2180  -69.4430    1.3990 N.am  132  LYS132     -0.1977
    190  CA        28.9710  -68.8570    0.0960 C.3   132  LYS132      0.1596
    191  C         28.0900  -67.6460    0.1920 C.2   132  LYS132      0.2287
    192  O         27.3410  -67.4740    1.1650 O.2   132  LYS132     -0.2864
    193  CB        28.3660  -69.8770   -0.8740 C.3   132  LYS132      0.0298
    194  CG        26.9470  -70.2430   -0.6100 C.3   132  LYS132      0.0038
    195  CD        26.2890  -70.9760   -1.7790 C.3   132  LYS132      0.0206
    196  CE        24.9460  -71.5250   -1.3070 C.3   132  LYS132      0.1093
    197  NZ        24.3120  -72.5010   -2.2240 N.3   132  LYS132     -0.1314
@<TRIPOS>BOND
     1    25    24    2
     2    22    23    1
     3    24    23    1
     4    23    26    1
     5    58    59    2
     6    58    57    1
     7    26    27    1
     8    31    32    1
     9    64    65    1
    10    27    28    1
    11    57    56    1
    12    57    60    1
    13    32    33    1
    14    32    35    1
    15    28    30   am
    16    28    29    2
    17    60    61    1
    18    33    34    2
    19    65    68    1
    20    65    66    1
    21    68    69    1
    22    35    36    1
    23    67    66    2
    24    61    63    1
    25    61    62    1
    26    37    36   ar
    27    37    39   ar
    28    36    38   ar
    29    69    70   ar
    30    69    71   ar
    31    39    41   ar
    32    38    40   ar
    33     7     6    1
    34     1     2    1
    35    43    44    1
    36    41    40   ar
    37    41    42    1
    38    52    53    2
    39    52    51    1
    40     4     3    2
    41     6     5    1
    42     6     8    1
    43    20    18    1
    44     5     2    1
    45     2     3    1
    46    16    17    2
    47    16    15    1
    48    44    45    1
    49    44    47    1
    50    51    54    1
    51    51    50    1
    52    46    45    2
    53    21    19    1
    54    54    55    1
    55    18    15    1
    56    18    19    1
    57    15    14    1
    58    72    73    1
    59    48    47    1
    60    47    49    1
    61    12    11    2
    62    14    11   am
    63    73    76    1
    64    73    74    1
    65    11    10    1
    66    76    77    1
    67    75    74    2
    68    10    13    1
    69    10     9    1
    70    77    78   ar
    71    77    79   ar
    72    95    94    1
    73   197   196    1
    74    82    79   ar
    75    82    84   ar
    76   195   196    1
    77   195   194    1
    78    96    94    1
    79    78    80   ar
    80    79    81   ar
    81    94    93    2
    82   193   194    1
    83   193   190    1
    84    84    85   ar
    85    80    81   ar
    86    81    83   ar
    87    93    92    1
    88   190   191    1
    89   190   189    1
    90   191   192    2
    91   146   147   ar
    92   146   144   ar
    93    92    91    1
    94    86    87    1
    95   147   145   ar
    96    85    83   ar
    97   181   180    2
    98   144   142   ar
    99   189   180   am
   100   145   143   ar
   101   180   179    1
   102    91    90    1
   103   175   173   ar
   104   175   176   ar
   105    87    90    1
   106    87    88    1
   107    89    88    2
   108   142   143   ar
   109   142   141    1
   110   173   171   ar
   111   187   188   ar
   112   187   185   ar
   113   177   176    1
   114   136   135    1
   115   188   186   ar
   116   176   174   ar
   117   141   138    1
   118   165   164    1
   119   185   183   ar
   120   171   170    1
   121   171   172   ar
   122   179   178    1
   123   179   182    1
   124   170   167    1
   125   186   184   ar
   126   178   168   am
   127   137   138    1
   128   164   163    1
   129   183   184   ar
   130   183   182    1
   131   174   172   ar
   132   138   139    1
   133   140   139    2
   134   135   134   ar
   135   135   133   ar
   136   114   112   ar
   137   114   115   ar
   138   167   168    1
   139   167   166    1
   140   168   169    2
   141   163   162    1
   142   116   115    1
   143   134   132   ar
   144   139   148   am
   145   112   110   ar
   146   115   113   ar
   147   133   131   ar
   148   103   102    1
   149   162   161    1
   150   148   149    1
   151   132   130   ar
   152   161   158    1
   153   110   109    1
   154   110   111   ar
   155   104   102    1
   156   113   111   ar
   157   131   130   ar
   158   149   150    1
   159   149   152    1
   160   102   101    1
   161   157   150   am
   162   157   158    1
   163   109   106    1
   164   130   129    1
   165   150   151    2
   166   160   159    2
   167   158   159    1
   168   106   107    1
   169   106   105    1
   170   124   122    1
   171   123   122    1
   172   152   153    1
   173   101    98    1
   174   107   108    2
   175   121   122    1
   176   121   118    1
   177    98    97    1
   178    98    99    1
   179   129   126    1
   180   153   154    1
   181   117   118    1
   182   118   119    1
   183   126   127    1
   184   126   125    1
   185    99   100    2
   186   154   155    1
   187   127   128    2
   188   119   120    2
   189   155   156    1
