@<TRIPOS>MOLECULE
tmp/4zhkA02.pdb
 85 81 0 0 0
SMALL
GASTEIGER

@<TRIPOS>ATOM
      1  N         -4.5000  116.1590    6.7080 N.3    32  ARG32      -0.1245
      2  CA        -3.6580  117.3710    6.6390 C.3    32  ARG32       0.1563
      3  C         -4.4400  118.6420    6.2500 C.2    32  ARG32       0.2260
      4  O         -4.8250  118.7910    5.0980 O.2    32  ARG32      -0.2867
      5  CB        -2.5210  117.1410    5.6340 C.3    32  ARG32       0.0307
      6  CG        -1.3670  118.1070    5.7670 C.3    32  ARG32       0.0489
      7  CD        -0.2970  117.7940    4.7310 C.3    32  ARG32       0.2205
      8  NE         0.7520  118.8290    4.6970 N.pl3  32  ARG32      -0.0865
      9  CZ         0.6550  120.0240    4.0960 C.cat  32  ARG32       0.5346
     10  NH1       -0.4480  120.3880    3.4420 N.pl3  32  ARG32       0.1354
     11  NH2        1.6870  120.8700    4.1450 N.pl3  32  ARG32       0.1354
     12  N         -4.8980  122.0370    4.7940 N.3    34  PRO34      -0.2116
     13  CA        -4.0230  122.7840    3.8550 C.3    34  PRO34       0.1372
     14  C         -3.3680  123.9850    4.5340 C.2    34  PRO34       0.2244
     15  O         -3.9870  124.6460    5.3580 O.2    34  PRO34      -0.2868
     16  CB        -4.9860  123.2410    2.7500 C.3    34  PRO34       0.0268
     17  CG        -6.1000  122.2490    2.7880 C.3    34  PRO34       0.0207
     18  CD        -6.2430  121.8100    4.2280 C.3    34  PRO34       0.0892
     19  N         -2.2710  126.7660    3.2060 N.3    36  TRP36      -0.1241
     20  CA        -2.8130  128.0240    2.6920 C.3    36  TRP36       0.1605
     21  C         -4.1620  128.4110    3.2860 C.2    36  TRP36       0.2264
     22  O         -4.6200  129.5140    3.0340 O.2    36  TRP36      -0.2867
     23  CB        -2.9320  127.9970    1.1840 C.3    36  TRP36       0.0550
     24  CG        -3.6530  126.8330    0.6030 C.ar   36  TRP36       0.0003
     25  CD1       -3.0920  125.6920    0.1310 C.ar   36  TRP36       0.0946
     26  CD2       -5.0690  126.7180    0.3670 C.ar   36  TRP36       0.0152
     27  NE1       -4.0710  124.8430   -0.3440 N.ar   36  TRP36      -0.2442
     28  CE2       -5.2890  125.4570   -0.2350 C.ar   36  TRP36       0.0810
     29  CE3       -6.1730  127.5430    0.6270 C.ar   36  TRP36       0.0012
     30  CZ2       -6.5690  125.0030   -0.5890 C.ar   36  TRP36       0.0191
     31  CZ3       -7.4490  127.0960    0.2460 C.ar   36  TRP36       0.0001
     32  CH2       -7.6290  125.8490   -0.3560 C.ar   36  TRP36       0.0015
     33  N         -8.0830  127.9870   -3.4980 N.3   452  HIS452     -0.1241
     34  CA        -6.6520  128.1950   -3.3160 C.3   452  HIS452      0.1621
     35  C         -6.4180  129.6720   -3.6970 C.2   452  HIS452      0.2264
     36  O         -7.0110  130.1500   -4.6730 O.2   452  HIS452     -0.2867
     37  CB        -5.8380  127.2750   -4.2040 C.3   452  HIS452      0.0745
     38  CG        -4.3730  127.2920   -3.8990 C.ar  452  HIS452      0.0817
     39  ND1       -3.5610  128.3610   -4.2150 N.ar  452  HIS452     -0.2268
     40  CD2       -3.5710  126.3690   -3.3230 C.ar  452  HIS452      0.1154
     41  CE1       -2.3280  128.1070   -3.8310 C.ar  452  HIS452      0.1986
     42  NE2       -2.3060  126.9030   -3.2850 N.ar  452  HIS452     -0.2212
     43  N        -10.6210  124.8400   -8.0030 N.3   460  ASP460     -0.1225
     44  CA        -9.3190  124.6200   -7.3800 C.3   460  ASP460      0.1805
     45  C         -9.3230  125.1430   -5.9840 C.2   460  ASP460      0.2598
     46  O         -8.9880  126.3090   -5.7510 O.2   460  ASP460     -0.2718
     47  CB        -8.2670  125.3320   -8.1860 C.3   460  ASP460      0.1424
     48  CG        -6.8320  125.0460   -7.7040 C.2   460  ASP460      0.3668
     49  OD1       -6.6160  124.2410   -6.7890 O.co2 460  ASP460     -0.2456
     50  OD2       -5.9070  125.6430   -8.2840 O.co2 460  ASP460     -0.2456
     51  N         -9.7040  124.2770   -5.0470 N.am  461  GLY461     -0.1942
     52  CA        -9.9020  124.6990   -3.6580 C.3   461  GLY461      0.2014
     53  C        -10.4290  123.5860   -2.7880 C.2   461  GLY461      0.2638
     54  O        -10.3130  122.3880   -3.1140 O.2   461  GLY461     -0.2714
     55  N        -11.0480  123.9760   -1.6870 N.am  462  VAL462     -0.1977
     56  CA       -11.6930  123.0130   -0.7860 C.3   462  VAL462      0.1596
     57  C        -13.1070  123.4430   -0.4450 C.2   462  VAL462      0.2287
     58  O        -13.4460  124.6120   -0.5960 O.2   462  VAL462     -0.2864
     59  CB       -10.8920  122.7890    0.5330 C.3   462  VAL462      0.0276
     60  CG1       -9.5390  122.1190    0.2400 C.3   462  VAL462      0.0022
     61  CG2      -10.7200  124.0800    1.3050 C.3   462  VAL462      0.0022
     62  N        -11.7060  118.0240   -0.9300 N.3   483  ASN483     -0.1240
     63  CA       -11.1620  118.6060   -2.1470 C.3   483  ASN483      0.1653
     64  C        -12.3290  118.9310   -3.0950 C.2   483  ASN483      0.2266
     65  O        -13.1350  118.0570   -3.4420 O.2   483  ASN483     -0.2867
     66  CB       -10.2120  117.6190   -2.8050 C.3   483  ASN483      0.1155
     67  CG        -9.4950  118.2040   -4.0060 C.2   483  ASN483      0.2627
     68  OD1      -10.0380  119.0080   -4.7630 O.2   483  ASN483     -0.2716
     69  ND2       -8.2560  117.7660   -4.2010 N.am  483  ASN483     -0.0877
     70  N        -12.3870  119.4530   -6.2570 N.3   485  LYS485     -0.1245
     71  CA       -12.3440  118.7430   -7.5590 C.3   485  LYS485      0.1561
     72  C        -13.2830  117.5550   -7.6220 C.2   485  LYS485      0.2260
     73  O        -14.0980  117.4410   -8.5260 O.2   485  LYS485     -0.2867
     74  CB       -10.9450  118.2140   -7.8590 C.3   485  LYS485      0.0271
     75  CG        -9.9520  119.2950   -8.1710 C.3   485  LYS485      0.0035
     76  CD       -10.1750  119.8600   -9.5470 C.3   485  LYS485      0.0206
     77  CE        -9.2590  121.0600   -9.7210 C.3   485  LYS485      0.1093
     78  NZ        -9.5710  121.8400  -10.9480 N.3   485  LYS485     -0.1314
     79  N         -9.8170  115.4620    2.5610 N.3   490  VAL490     -0.1245
     80  CA        -8.4710  115.9750    2.7750 C.3   490  VAL490      0.1561
     81  C         -8.1220  115.8770    4.2630 C.2   490  VAL490      0.2260
     82  O         -7.0370  115.4190    4.6280 O.2   490  VAL490     -0.2867
     83  CB        -8.4020  117.4350    2.2490 C.3   490  VAL490      0.0252
     84  CG1       -7.1460  118.1540    2.7050 C.3   490  VAL490      0.0019
     85  CG2       -8.4680  117.4340    0.7350 C.3   490  VAL490      0.0019
@<TRIPOS>BOND
     1    78    77    1
     2    77    76    1
     3    76    75    1
     4    73    72    2
     5    50    48   ar
     6    47    48    1
     7    47    44    1
     8    75    74    1
     9    43    44    1
    10    74    71    1
    11    48    49   ar
    12    72    71    1
    13    71    70    1
    14    44    45    1
    15    45    46    2
    16    45    51   am
    17    51    52    1
    18    68    67    2
    19    36    35    2
    20    39    38   ar
    21    39    41   ar
    22    37    38    1
    23    37    34    1
    24    69    67   am
    25    67    66    1
    26    38    40   ar
    27    41    42   ar
    28    35    34    1
    29    52    53    1
    30    33    34    1
    31    65    64    2
    32    40    42   ar
    33    54    53    2
    34    64    63    1
    35    66    63    1
    36    53    55   am
    37    63    62    1
    38    55    56    1
    39    56    57    1
    40    56    59    1
    41    58    57    2
    42    30    32   ar
    43    30    28   ar
    44    32    31   ar
    45    27    28   ar
    46    27    25   ar
    47    28    26   ar
    48    25    24   ar
    49    60    59    1
    50    31    29   ar
    51    26    24   ar
    52    26    29   ar
    53    59    61    1
    54    24    23    1
    55    85    83    1
    56    23    20    1
    57    83    84    1
    58    83    80    1
    59    79    80    1
    60    20    19    1
    61    20    21    1
    62    16    17    1
    63    16    13    1
    64    80    81    1
    65    17    18    1
    66    22    21    2
    67    10     9    1
    68    13    14    1
    69    13    12    1
    70     9    11    1
    71     9     8    2
    72    18    12    1
    73    81    82    2
    74    14    15    2
    75     8     7    1
    76     7     6    1
    77     4     3    2
    78     5     6    1
    79     5     2    1
    80     3     2    1
    81     2     1    1
