@<TRIPOS>MOLECULE
tmp/4zhkB01.pdb
 114 112 0 0 0
SMALL
GASTEIGER

@<TRIPOS>ATOM
      1  N        -47.8210  102.3500  -17.6650 N.3   295  TYR295     -0.1227
      2  CA       -48.0660  101.2120  -16.7610 C.3   295  TYR295      0.1736
      3  C        -48.6580  101.6240  -15.4250 C.2   295  TYR295      0.2595
      4  O        -48.7470  102.8100  -15.1410 O.2   295  TYR295     -0.2718
      5  CB       -46.8280  100.3160  -16.5890 C.3   295  TYR295      0.0548
      6  CG       -45.6600  100.9080  -15.8230 C.ar  295  TYR295     -0.0200
      7  CD1      -45.5670  100.7890  -14.4300 C.ar  295  TYR295     -0.0009
      8  CD2      -44.6020  101.5700  -16.4990 C.ar  295  TYR295     -0.0009
      9  CE1      -44.4650  101.3110  -13.7350 C.ar  295  TYR295      0.0417
     10  CE2      -43.5190  102.0780  -15.8060 C.ar  295  TYR295      0.0417
     11  CZ       -43.4660  101.9470  -14.4310 C.ar  295  TYR295      0.1957
     12  OH       -42.4320  102.4550  -13.7430 O.3   295  TYR295     -0.2866
     13  N        -49.1100  100.6290  -14.6630 N.am  296  GLU296     -0.1965
     14  CA       -49.7610  100.8250  -13.3700 C.3   296  GLU296      0.1733
     15  C        -48.7800  100.4630  -12.2660 C.2   296  GLU296      0.2616
     16  O        -48.0790   99.4670  -12.3530 O.2   296  GLU296     -0.2715
     17  CB       -51.0140   99.9150  -13.2580 C.3   296  GLU296      0.0429
     18  CG       -52.1120  100.1930  -14.2980 C.3   296  GLU296      0.1163
     19  CD       -53.1140   99.0140  -14.4930 C.2   296  GLU296      0.3649
     20  OE1      -53.5100   98.4040  -13.4850 O.co2 296  GLU296     -0.2457
     21  OE2      -53.4880   98.6830  -15.6440 O.co2 296  GLU296     -0.2457
     22  N        -48.7570  101.2730  -11.2120 N.am  297  ASP297     -0.1957
     23  CA       -47.8920  101.0510  -10.0820 C.3   297  ASP297      0.1840
     24  C        -48.6330  101.5330   -8.8390 C.2   297  ASP297      0.2622
     25  O        -48.7910  102.7480   -8.6320 O.2   297  ASP297     -0.2715
     26  CB       -46.5770  101.7910  -10.3250 C.3   297  ASP297      0.1450
     27  CG       -45.5460  101.5790   -9.2150 C.2   297  ASP297      0.3671
     28  OD1      -45.8470  100.9280   -8.2040 O.co2 297  ASP297     -0.2456
     29  OD2      -44.4150  102.0850   -9.3680 O.co2 297  ASP297     -0.2456
     30  N        -49.1350  100.5820   -8.0470 N.am  298  HIS298     -0.1973
     31  CA       -49.9430  100.8750   -6.8410 C.3   298  HIS298      0.1656
     32  C        -51.0030  101.9250   -7.1100 C.2   298  HIS298      0.2291
     33  O        -51.1160  102.8930   -6.3980 O.2   298  HIS298     -0.2864
     34  CB       -49.0630  101.3360   -5.6680 C.3   298  HIS298      0.0771
     35  CG       -48.1120  100.2850   -5.1800 C.ar  298  HIS298      0.0820
     36  ND1      -46.9330   99.9770   -5.8350 N.ar  298  HIS298     -0.2267
     37  CD2      -48.1770   99.4530   -4.1120 C.ar  298  HIS298      0.1154
     38  CE1      -46.3140   99.0050   -5.1890 C.ar  298  HIS298      0.1986
     39  NE2      -47.0430   98.6750   -4.1380 N.ar  298  HIS298     -0.2212
     40  N        -41.6710  111.8300  -17.7110 N.3   344  ARG344     -0.1245
     41  CA       -42.5120  110.8830  -16.9980 C.3   344  ARG344      0.1563
     42  C        -43.5400  111.6720  -16.1900 C.2   344  ARG344      0.2260
     43  O        -43.1840  112.5130  -15.3260 O.2   344  ARG344     -0.2867
     44  CB       -41.6700  110.0020  -16.0720 C.3   344  ARG344      0.0307
     45  CG       -42.5000  109.2020  -15.0640 C.3   344  ARG344      0.0489
     46  CD       -41.7070  108.0690  -14.4750 C.3   344  ARG344      0.2205
     47  NE       -41.3990  107.0310  -15.4440 N.pl3 344  ARG344     -0.0865
     48  CZ       -40.8100  105.8730  -15.1590 C.cat 344  ARG344      0.5346
     49  NH1      -40.4070  105.6110  -13.9360 N.pl3 344  ARG344      0.1354
     50  NH2      -40.5950  104.9690  -16.1190 N.pl3 344  ARG344      0.1354
     51  N        -39.9420  106.3190   -5.7020 N.3   365  ASN365     -0.1240
     52  CA       -38.8370  106.3560   -6.6640 C.3   365  ASN365      0.1653
     53  C        -39.1380  107.2860   -7.8600 C.2   365  ASN365      0.2266
     54  O        -38.6840  107.0010   -8.9680 O.2   365  ASN365     -0.2867
     55  CB       -38.4810  104.9240   -7.1230 C.3   365  ASN365      0.1155
     56  CG       -37.9400  104.0580   -5.9640 C.2   365  ASN365      0.2627
     57  OD1      -36.9790  104.4260   -5.2890 O.2   365  ASN365     -0.2716
     58  ND2      -38.5540  102.9090   -5.7410 N.am  365  ASN365     -0.0877
     59  N        -43.4450   93.7890  -22.4950 N.3   403  TYR403     -0.1241
     60  CA       -43.4870   94.9380  -21.5420 C.3   403  TYR403      0.1605
     61  C        -44.4190   96.0970  -21.8720 C.2   403  TYR403      0.2264
     62  O        -44.5420   97.0290  -21.0730 O.2   403  TYR403     -0.2867
     63  CB       -42.0610   95.4770  -21.3280 C.3   403  TYR403      0.0534
     64  CG       -41.1300   94.4590  -20.7330 C.ar  403  TYR403     -0.0201
     65  CD1      -40.8510   94.4570  -19.3750 C.ar  403  TYR403     -0.0009
     66  CD2      -40.5550   93.4650  -21.5330 C.ar  403  TYR403     -0.0009
     67  CE1      -40.0060   93.5120  -18.8280 C.ar  403  TYR403      0.0417
     68  CE2      -39.7150   92.5260  -20.9850 C.ar  403  TYR403      0.0417
     69  CZ       -39.4430   92.5700  -19.6350 C.ar  403  TYR403      0.1957
     70  OH       -38.6110   91.6410  -19.1060 O.3   403  TYR403     -0.2866
     71  N        -44.7190   97.5160  -16.1390 N.3   407  PRO407     -0.2102
     72  CA       -43.4620   98.0240  -15.6090 C.3   407  PRO407      0.1504
     73  C        -42.2750   97.6320  -16.5030 C.2   407  PRO407      0.2576
     74  O        -42.1930   96.5200  -16.9650 O.2   407  PRO407     -0.2718
     75  CB       -43.3610   97.3550  -14.2230 C.3   407  PRO407      0.0282
     76  CG       -44.7850   97.1070  -13.8220 C.3   407  PRO407      0.0208
     77  CD       -45.4990   96.7910  -15.1100 C.3   407  PRO407      0.0893
     78  N        -41.3870   98.5760  -16.7620 N.am  408  TYR408     -0.1963
     79  CA       -40.3080   98.3620  -17.7140 C.3   408  TYR408      0.1771
     80  C        -39.1060   99.2350  -17.3480 C.2   408  TYR408      0.2620
     81  O        -39.2050  100.1480  -16.5310 O.2   408  TYR408     -0.2715
     82  CB       -40.8230   98.6210  -19.1620 C.3   408  TYR408      0.0574
     83  CG       -40.8660  100.0820  -19.5620 C.ar  408  TYR408     -0.0198
     84  CD1      -40.0590  100.5580  -20.6020 C.ar  408  TYR408     -0.0009
     85  CD2      -41.6730  100.9920  -18.8900 C.ar  408  TYR408     -0.0009
     86  CE1      -40.0900  101.8860  -20.9830 C.ar  408  TYR408      0.0417
     87  CE2      -41.7100  102.3490  -19.2570 C.ar  408  TYR408      0.0417
     88  CZ       -40.9300  102.7860  -20.3080 C.ar  408  TYR408      0.1957
     89  OH       -40.8930  104.1000  -20.6970 O.3   408  TYR408     -0.2866
     90  N        -38.0000   98.9860  -18.0230 N.am  409  THR409     -0.1951
     91  CA       -36.7290   99.6590  -17.7510 C.3   409  THR409      0.1897
     92  C        -36.1360  100.3490  -18.9930 C.2   409  THR409      0.2313
     93  O        -35.4460  101.3470  -18.8390 O.2   409  THR409     -0.2863
     94  CB       -35.6690   98.6570  -17.1810 C.3   409  THR409      0.1794
     95  OG1      -36.1820   97.9670  -16.0350 O.3   409  THR409     -0.2208
     96  CG2      -34.4330   99.3580  -16.7210 C.3   409  THR409      0.0378
     97  N        -35.2880  104.1100  -15.4710 N.3   430  LYS430     -0.1245
     98  CA       -35.0660  104.1420  -14.0130 C.3   430  LYS430      0.1561
     99  C        -33.8000  104.9020  -13.5860 C.2   430  LYS430      0.2260
    100  O        -33.8340  105.6330  -12.6320 O.2   430  LYS430     -0.2867
    101  CB       -34.9930  102.7200  -13.4360 C.3   430  LYS430      0.0271
    102  CG       -36.2890  101.9360  -13.5980 C.3   430  LYS430      0.0035
    103  CD       -36.1580  100.4950  -13.1210 C.3   430  LYS430      0.0206
    104  CE       -36.3720  100.3400  -11.6160 C.3   430  LYS430      0.1093
    105  NZ       -36.2050   98.9280  -11.1220 N.3   430  LYS430     -0.1314
    106  N        -35.2200   91.9190  -20.2110 N.3   458  GLU458     -0.1245
    107  CA       -36.0180   92.8370  -21.0190 C.3   458  GLU458      0.1567
    108  C        -35.3190   93.2610  -22.3120 C.2   458  GLU458      0.2260
    109  O        -35.9800   93.3870  -23.3260 O.2   458  GLU458     -0.2867
    110  CB       -36.3780   94.0800  -20.1770 C.3   458  GLU458      0.0388
    111  CG       -37.2380   95.1080  -20.8850 C.3   458  GLU458      0.1160
    112  CD       -37.5400   96.3280  -20.0430 C.2   458  GLU458      0.3649
    113  OE1      -37.4030   96.2680  -18.8160 O.co2 458  GLU458     -0.2457
    114  OE2      -37.9520   97.3550  -20.6210 O.co2 458  GLU458     -0.2457
@<TRIPOS>BOND
     1   109   108    2
     2    59    60    1
     3   108   107    1
     4    61    60    1
     5    61    62    2
     6    60    63    1
     7    66    68   ar
     8    66    64   ar
     9    63    64    1
    10   107   106    1
    11   107   110    1
    12    68    69   ar
    13    86    84   ar
    14    86    88   ar
    15   111   110    1
    16   111   112    1
    17    64    65   ar
    18    89    88    1
    19   114   112   ar
    20    84    83   ar
    21    88    87   ar
    22   112   113   ar
    23    69    70    1
    24    69    67   ar
    25    83    82    1
    26    83    85   ar
    27    65    67   ar
    28    87    85   ar
    29    82    79    1
    30    92    93    2
    31    92    91    1
    32    90    91    1
    33    90    80   am
    34    91    94    1
    35    79    80    1
    36    79    78    1
    37    40    41    1
    38     1     2    1
    39    80    81    2
    40    94    96    1
    41    94    95    1
    42    41    42    1
    43    41    44    1
    44    74    73    2
    45    78    73   am
    46     2     5    1
    47     2     3    1
    48     5     6    1
    49    73    72    1
    50     8     6   ar
    51     8    10   ar
    52    42    43    2
    53    71    72    1
    54    71    77    1
    55    50    48    1
    56    44    45    1
    57     6     7   ar
    58    10    11   ar
    59    21    19   ar
    60    72    75    1
    61    97    98    1
    62    47    48    2
    63    47    46    1
    64     3     4    2
    65     3    13   am
    66    48    49    1
    67    77    76    1
    68    45    46    1
    69    13    14    1
    70    19    18    1
    71    19    20   ar
    72    11    12    1
    73    11     9   ar
    74     7     9   ar
    75    18    17    1
    76    75    76    1
    77    98    99    1
    78    98   101    1
    79   102   101    1
    80   102   103    1
    81    99   100    2
    82    14    17    1
    83    14    15    1
    84   103   104    1
    85    16    15    2
    86    15    22   am
    87   104   105    1
    88    22    23    1
    89    26    23    1
    90    26    27    1
    91    23    24    1
    92    29    27   ar
    93    27    28   ar
    94    54    53    2
    95    24    25    2
    96    24    30   am
    97    30    31    1
    98    53    52    1
    99    55    52    1
   100    55    56    1
   101    32    31    1
   102    32    33    2
   103    31    34    1
   104    52    51    1
   105    56    58   am
   106    56    57    2
   107    36    38   ar
   108    36    35   ar
   109    34    35    1
   110    38    39   ar
   111    35    37   ar
   112    39    37   ar
