@<TRIPOS>MOLECULE
tmp/4zhkB03.pdb
 221 220 0 0 0
SMALL
GASTEIGER

@<TRIPOS>ATOM
      1  N        -32.6980  111.5990  -47.7860 N.3    14  LEU14      -0.1231
      2  CA       -33.9140  111.1230  -47.1210 C.3    14  LEU14       0.1693
      3  C        -35.1730  111.5500  -47.8700 C.2    14  LEU14       0.2592
      4  O        -36.1840  110.9030  -47.7260 O.2    14  LEU14      -0.2718
      5  CB       -34.0190  111.6710  -45.6730 C.3    14  LEU14       0.0284
      6  CG       -32.9560  111.1970  -44.6810 C.3    14  LEU14       0.0019
      7  CD1      -32.9980  111.9850  -43.3860 C.3    14  LEU14       0.0001
      8  CD2      -33.0930  109.7030  -44.4190 C.3    14  LEU14       0.0001
      9  N        -35.1020  112.6480  -48.6280 N.am   15  PHE15      -0.1976
     10  CA       -36.2610  113.2570  -49.2740 C.3    15  PHE15       0.1639
     11  C        -36.1700  113.3020  -50.7990 C.2    15  PHE15       0.2290
     12  O        -36.7530  114.1650  -51.4290 O.2    15  PHE15      -0.2864
     13  CB       -36.4520  114.6540  -48.7130 C.3    15  PHE15       0.0560
     14  CG       -36.1570  114.7400  -47.2480 C.ar   15  PHE15      -0.0200
     15  CD1      -36.9670  114.0840  -46.3240 C.ar   15  PHE15      -0.0042
     16  CD2      -35.0400  115.4240  -46.7950 C.ar   15  PHE15      -0.0042
     17  CE1      -36.6840  114.1570  -44.9670 C.ar   15  PHE15      -0.0003
     18  CE2      -34.7440  115.4990  -45.4460 C.ar   15  PHE15      -0.0003
     19  CZ       -35.5610  114.8650  -44.5300 C.ar   15  PHE15      -0.0000
     20  N        -43.1890  117.0090  -45.3660 N.3    59  LEU59      -0.1231
     21  CA       -42.6610  115.6990  -45.0060 C.3    59  LEU59       0.1693
     22  C        -43.6890  114.5460  -45.0840 C.2    59  LEU59       0.2592
     23  O        -43.3050  113.4370  -45.4040 O.2    59  LEU59      -0.2718
     24  CB       -42.0540  115.7290  -43.6000 C.3    59  LEU59       0.0284
     25  CG       -41.4480  114.4200  -43.0750 C.3    59  LEU59       0.0019
     26  CD1      -40.3050  113.9410  -43.9500 C.3    59  LEU59       0.0001
     27  CD2      -40.9700  114.6260  -41.6450 C.3    59  LEU59       0.0001
     28  N        -44.9680  114.8090  -44.8310 N.am   60  PHE60      -0.1976
     29  CA       -45.9820  113.7760  -44.7490 C.3    60  PHE60       0.1639
     30  C        -46.8510  113.6790  -46.0280 C.2    60  PHE60       0.2290
     31  O        -47.9440  113.0930  -45.9680 O.2    60  PHE60      -0.2864
     32  CB       -46.8530  113.9660  -43.4980 C.3    60  PHE60       0.0560
     33  CG       -46.0630  114.0550  -42.2380 C.ar   60  PHE60      -0.0200
     34  CD1      -45.1520  113.0720  -41.9100 C.ar   60  PHE60      -0.0042
     35  CD2      -46.2060  115.1400  -41.3870 C.ar   60  PHE60      -0.0042
     36  CE1      -44.4050  113.1520  -40.7540 C.ar   60  PHE60      -0.0003
     37  CE2      -45.4400  115.2430  -40.2350 C.ar   60  PHE60      -0.0003
     38  CZ       -44.5420  114.2530  -39.9210 C.ar   60  PHE60      -0.0000
     39  N        -47.2680  106.1260  -43.2500 N.3   116  VAL116     -0.1245
     40  CA       -46.8270  106.2710  -41.8720 C.3   116  VAL116      0.1561
     41  C        -46.5000  104.9700  -41.1430 C.2   116  VAL116      0.2260
     42  O        -45.4580  104.8640  -40.4960 O.2   116  VAL116     -0.2867
     43  CB       -47.8620  107.0430  -41.0290 C.3   116  VAL116      0.0252
     44  CG1      -47.2800  107.3370  -39.6490 C.3   116  VAL116      0.0019
     45  CG2      -48.2650  108.3460  -41.7110 C.3   116  VAL116      0.0019
     46  N        -52.0720  111.8710  -31.9920 N.3   218  HIS218     -0.1241
     47  CA       -51.1360  111.0450  -32.7330 C.3   218  HIS218      0.1621
     48  C        -50.9970  109.6290  -32.1780 C.2   218  HIS218      0.2264
     49  O        -50.7000  108.7030  -32.9360 O.2   218  HIS218     -0.2867
     50  CB       -49.7790  111.7440  -32.7610 C.3   218  HIS218      0.0745
     51  CG       -48.8320  111.1510  -33.7400 C.ar  218  HIS218      0.0817
     52  ND1      -48.8650  111.4670  -35.0800 N.ar  218  HIS218     -0.2268
     53  CD2      -47.8460  110.2330  -33.5950 C.ar  218  HIS218      0.1154
     54  CE1      -47.9420  110.7750  -35.7200 C.ar  218  HIS218      0.1986
     55  NE2      -47.3330  109.9990  -34.8410 N.ar  218  HIS218     -0.2212
     56  N        -46.2940  113.6040  -29.9270 N.3   289  PHE289     -0.1227
     57  CA       -46.5290  112.6090  -30.9930 C.3   289  PHE289      0.1736
     58  C        -46.5770  111.1760  -30.4300 C.2   289  PHE289      0.2595
     59  O        -47.5870  110.4590  -30.5620 O.2   289  PHE289     -0.2718
     60  CB       -45.5490  112.8620  -32.1620 C.3   289  PHE289      0.0547
     61  CG       -45.6390  114.2620  -32.6270 C.ar  289  PHE289     -0.0202
     62  CD1      -46.7640  114.6830  -33.3340 C.ar  289  PHE289     -0.0042
     63  CD2      -44.7160  115.2240  -32.1990 C.ar  289  PHE289     -0.0042
     64  CE1      -46.9480  116.0230  -33.6590 C.ar  289  PHE289     -0.0003
     65  CE2      -44.8830  116.5720  -32.5270 C.ar  289  PHE289     -0.0003
     66  CZ       -46.0090  116.9740  -33.2490 C.ar  289  PHE289     -0.0000
     67  N        -45.5340  110.7870  -29.7260 N.am  290  HIS290     -0.1975
     68  CA       -45.3750  109.4030  -29.3150 C.3   290  HIS290      0.1656
     69  C        -45.3250  109.1760  -27.8220 C.2   290  HIS290      0.2291
     70  O        -44.4100  109.6580  -27.1350 O.2   290  HIS290     -0.2864
     71  CB       -44.1020  108.8610  -29.9170 C.3   290  HIS290      0.0771
     72  CG       -44.0690  108.9680  -31.3930 C.ar  290  HIS290      0.0820
     73  ND1      -43.1700  109.7740  -32.0480 N.ar  290  HIS290     -0.2267
     74  CD2      -44.8610  108.4320  -32.3510 C.ar  290  HIS290      0.1154
     75  CE1      -43.3930  109.7180  -33.3480 C.ar  290  HIS290      0.1986
     76  NE2      -44.3970  108.9000  -33.5590 N.ar  290  HIS290     -0.2212
     77  N        -42.5610  117.8900  -26.7110 N.3   308  TRP308     -0.1241
     78  CA       -41.9350  119.0510  -27.3300 C.3   308  TRP308      0.1605
     79  C        -42.4360  120.2830  -26.5650 C.2   308  TRP308      0.2264
     80  O        -43.6420  120.5730  -26.5440 O.2   308  TRP308     -0.2867
     81  CB       -42.2840  119.1270  -28.8230 C.3   308  TRP308      0.0550
     82  CG       -41.7310  118.0500  -29.6500 C.ar  308  TRP308      0.0003
     83  CD1      -42.2500  116.7940  -29.8230 C.ar  308  TRP308      0.0946
     84  CD2      -40.5010  118.0800  -30.3990 C.ar  308  TRP308      0.0152
     85  NE1      -41.4270  116.0520  -30.6350 N.ar  308  TRP308     -0.2442
     86  CE2      -40.3460  116.8190  -30.9950 C.ar  308  TRP308      0.0810
     87  CE3      -39.5030  119.0530  -30.6130 C.ar  308  TRP308      0.0012
     88  CZ2      -39.2650  116.5190  -31.8230 C.ar  308  TRP308      0.0191
     89  CZ3      -38.4350  118.7470  -31.4240 C.ar  308  TRP308      0.0001
     90  CH2      -38.3290  117.4890  -32.0240 C.ar  308  TRP308      0.0015
     91  N        -45.2030  121.5280  -33.9390 N.3   314  VAL314     -0.1231
     92  CA       -43.8750  121.0800  -34.3830 C.3   314  VAL314      0.1692
     93  C        -43.8550  120.7910  -35.8920 C.2   314  VAL314      0.2592
     94  O        -42.8360  120.9620  -36.5600 O.2   314  VAL314     -0.2718
     95  CB       -43.3900  119.8530  -33.5570 C.3   314  VAL314      0.0266
     96  CG1      -42.1280  119.2350  -34.1440 C.3   314  VAL314      0.0020
     97  CG2      -43.1550  120.2450  -32.1030 C.3   314  VAL314      0.0020
     98  N        -44.9820  120.3640  -36.4350 N.am  315  TYR315     -0.1976
     99  CA       -45.0510  120.0650  -37.8760 C.3   315  TYR315      0.1639
    100  C        -44.7940  121.2830  -38.7860 C.2   315  TYR315      0.2290
    101  O        -44.4480  121.0970  -39.9490 O.2   315  TYR315     -0.2864
    102  CB       -46.3750  119.3740  -38.2320 C.3   315  TYR315      0.0560
    103  CG       -46.5090  117.9080  -37.8150 C.ar  315  TYR315     -0.0198
    104  CD1      -45.5250  117.2400  -37.0660 C.ar  315  TYR315     -0.0009
    105  CD2      -47.6540  117.2020  -38.1430 C.ar  315  TYR315     -0.0009
    106  CE1      -45.6740  115.9070  -36.7110 C.ar  315  TYR315      0.0417
    107  CE2      -47.8200  115.8860  -37.7740 C.ar  315  TYR315      0.0417
    108  CZ       -46.8380  115.2470  -37.0550 C.ar  315  TYR315      0.1957
    109  OH       -47.0220  113.9510  -36.7010 O.3   315  TYR315     -0.2866
    110  N        -41.4140  121.0820  -40.5310 N.3   318  LEU318     -0.1245
    111  CA       -41.1340  119.8540  -41.3070 C.3   318  LEU318      0.1561
    112  C        -41.5590  119.9250  -42.7980 C.2   318  LEU318      0.2260
    113  O        -41.7930  118.8860  -43.4180 O.2   318  LEU318     -0.2867
    114  CB       -41.7820  118.6410  -40.6130 C.3   318  LEU318      0.0270
    115  CG       -41.4160  118.3980  -39.1550 C.3   318  LEU318      0.0019
    116  CD1      -42.1500  117.1800  -38.5830 C.3   318  LEU318      0.0001
    117  CD2      -39.9080  118.2260  -38.9870 C.3   318  LEU318      0.0001
    118  N        -36.2570  121.1200  -44.6060 N.3   323  LEU323     -0.1245
    119  CA       -35.4400  119.9330  -44.3470 C.3   323  LEU323      0.1561
    120  C        -34.3690  119.6990  -45.4080 C.2   323  LEU323      0.2260
    121  O        -33.4340  118.9110  -45.1860 O.2   323  LEU323     -0.2867
    122  CB       -36.3070  118.6860  -44.2170 C.3   323  LEU323      0.0270
    123  CG       -37.3120  118.6610  -43.0640 C.3   323  LEU323      0.0019
    124  CD1      -38.3230  117.5450  -43.2100 C.3   323  LEU323      0.0001
    125  CD2      -36.6110  118.5240  -41.7330 C.3   323  LEU323      0.0001
    126  N        -36.6870  110.4330  -30.0790 N.3   394  GLU394     -0.1231
    127  CA       -37.9800  110.3030  -30.7350 C.3   394  GLU394      0.1699
    128  C        -38.1430  108.9060  -31.3400 C.2   394  GLU394      0.2592
    129  O        -37.2700  108.0510  -31.1850 O.2   394  GLU394     -0.2718
    130  CB       -38.1390  111.4000  -31.7980 C.3   394  GLU394      0.0402
    131  CG       -38.9590  112.5670  -31.3040 C.3   394  GLU394      0.1161
    132  CD       -40.4340  112.2750  -31.1400 C.2   394  GLU394      0.3649
    133  OE1      -41.1590  113.2120  -30.7070 O.co2 394  GLU394     -0.2457
    134  OE2      -40.8690  111.1310  -31.4520 O.co2 394  GLU394     -0.2457
    135  N        -39.2830  108.6870  -31.9890 N.am  395  PHE395     -0.1976
    136  CA       -39.6720  107.3860  -32.5370 C.3   395  PHE395      0.1639
    137  C        -39.3550  106.2770  -31.5310 C.2   395  PHE395      0.2290
    138  O        -38.6250  105.3260  -31.8560 O.2   395  PHE395     -0.2864
    139  CB       -38.9860  107.1310  -33.8940 C.3   395  PHE395      0.0560
    140  CG       -39.3910  108.0950  -34.9800 C.ar  395  PHE395     -0.0200
    141  CD1      -40.3550  107.7460  -35.9350 C.ar  395  PHE395     -0.0042
    142  CD2      -38.8060  109.3510  -35.0570 C.ar  395  PHE395     -0.0042
    143  CE1      -40.7280  108.6450  -36.9470 C.ar  395  PHE395     -0.0003
    144  CE2      -39.1930  110.2620  -36.0410 C.ar  395  PHE395     -0.0003
    145  CZ       -40.1470  109.9080  -37.0000 C.ar  395  PHE395     -0.0000
    146  N        -34.9130  106.9380  -32.0320 N.3   414  LEU414     -0.1245
    147  CA       -34.1560  107.6250  -33.0630 C.3   414  LEU414      0.1561
    148  C        -33.8040  109.0190  -32.5510 C.2   414  LEU414      0.2260
    149  O        -34.6660  109.7720  -32.0840 O.2   414  LEU414     -0.2867
    150  CB       -34.9810  107.7330  -34.3230 C.3   414  LEU414      0.0270
    151  CG       -34.3890  108.4920  -35.4900 C.3   414  LEU414      0.0019
    152  CD1      -33.1450  107.7900  -36.0250 C.3   414  LEU414      0.0001
    153  CD2      -35.4500  108.6190  -36.5680 C.3   414  LEU414      0.0001
    154  N        -32.8750  112.7700  -33.0720 N.3   416  LEU416     -0.1245
    155  CA       -32.9080  113.8810  -34.0230 C.3   416  LEU416      0.1561
    156  C        -31.9890  115.0170  -33.5540 C.2   416  LEU416      0.2260
    157  O        -31.9670  115.3460  -32.3840 O.2   416  LEU416     -0.2867
    158  CB       -34.3360  114.4360  -34.1460 C.3   416  LEU416      0.0270
    159  CG       -35.4460  113.3870  -34.3200 C.3   416  LEU416      0.0019
    160  CD1      -36.7820  114.0920  -34.4130 C.3   416  LEU416      0.0001
    161  CD2      -35.2140  112.5450  -35.5690 C.3   416  LEU416      0.0001
    162  N        -33.8730  118.2610  -35.9100 N.3   419  PHE419     -0.1227
    163  CA       -34.8230  117.5200  -36.7820 C.3   419  PHE419      0.1736
    164  C        -34.2010  116.4820  -37.7400 C.2   419  PHE419      0.2595
    165  O        -34.9240  115.6720  -38.3260 O.2   419  PHE419     -0.2718
    166  CB       -35.8360  118.4250  -37.5150 C.3   419  PHE419      0.0547
    167  CG       -36.6920  119.2720  -36.5910 C.ar  419  PHE419     -0.0202
    168  CD1      -37.6220  118.6930  -35.7440 C.ar  419  PHE419     -0.0042
    169  CD2      -36.5770  120.6600  -36.5900 C.ar  419  PHE419     -0.0042
    170  CE1      -38.4010  119.4590  -34.9030 C.ar  419  PHE419     -0.0003
    171  CE2      -37.3710  121.4340  -35.7840 C.ar  419  PHE419     -0.0003
    172  CZ       -38.2840  120.8400  -34.9310 C.ar  419  PHE419     -0.0000
    173  N        -32.8720  116.4730  -37.8560 N.am  420  VAL420     -0.1966
    174  CA       -32.1790  115.5530  -38.7420 C.3   420  VAL420      0.1712
    175  C        -31.8550  114.2900  -37.9700 C.2   420  VAL420      0.2458
    176  O        -31.1890  114.3690  -36.9360 O.2   420  VAL420     -0.2730
    177  CB       -30.8770  116.1610  -39.3010 C.3   420  VAL420      0.0289
    178  CG1      -30.0290  115.1150  -40.0370 C.3   420  VAL420      0.0023
    179  CG2      -31.2290  117.3360  -40.1950 C.3   420  VAL420      0.0023
    180  N        -32.2830  113.1220  -38.4880 N.am  421  PRO421     -0.2727
    181  CA       -32.0290  111.8890  -37.7840 C.3   421  PRO421      0.1402
    182  C        -30.5940  111.4490  -37.9440 C.2   421  PRO421      0.2269
    183  O        -30.2090  111.1260  -39.0520 O.2   421  PRO421     -0.2865
    184  CB       -32.9970  110.8730  -38.4630 C.3   421  PRO421      0.0296
    185  CG       -33.1820  111.4040  -39.8220 C.3   421  PRO421      0.0237
    186  CD       -33.1040  112.9070  -39.6920 C.3   421  PRO421      0.0939
    187  N        -36.4630  108.4120  -46.2610 N.3   501  VAL501     -0.1231
    188  CA       -36.9460  108.3730  -44.8970 C.3   501  VAL501      0.1692
    189  C        -38.0980  107.3540  -44.7760 C.2   501  VAL501      0.2593
    190  O        -38.9740  107.2900  -45.6420 O.2   501  VAL501     -0.2718
    191  CB       -37.4050  109.7920  -44.4240 C.3   501  VAL501      0.0266
    192  CG1      -38.6050  110.3270  -45.2200 C.3   501  VAL501      0.0020
    193  CG2      -37.7480  109.7910  -42.9420 C.3   501  VAL501      0.0020
    194  N        -38.0700  106.5600  -43.7040 N.am  502  THR502     -0.1939
    195  CA       -39.2320  105.7860  -43.2470 C.3   502  THR502      0.2028
    196  C        -39.6500  106.1630  -41.8310 C.2   502  THR502      0.2642
    197  O        -38.8160  106.5090  -40.9900 O.2   502  THR502     -0.2714
    198  CB       -38.9910  104.2740  -43.3220 C.3   502  THR502      0.1808
    199  OG1      -37.8290  103.9070  -42.5780 O.3   502  THR502     -0.2208
    200  CG2      -38.8340  103.8560  -44.7750 C.3   502  THR502      0.0379
    201  N        -40.9510  106.1110  -41.5840 N.am  503  PHE503     -0.1959
    202  CA       -41.5170  106.5170  -40.2950 C.3   503  PHE503      0.1771
    203  C        -41.6400  105.3870  -39.2750 C.2   503  PHE503      0.2619
    204  O        -40.9170  105.3820  -38.2720 O.2   503  PHE503     -0.2715
    205  CB       -42.8470  107.2560  -40.5060 C.3   503  PHE503      0.0574
    206  CG       -42.7080  108.5000  -41.3360 C.ar  503  PHE503     -0.0200
    207  CD1      -41.7370  109.4610  -41.0430 C.ar  503  PHE503     -0.0042
    208  CD2      -43.5150  108.7010  -42.4390 C.ar  503  PHE503     -0.0042
    209  CE1      -41.5930  110.5880  -41.8490 C.ar  503  PHE503     -0.0003
    210  CE2      -43.3990  109.8360  -43.2170 C.ar  503  PHE503     -0.0003
    211  CZ       -42.4380  110.7840  -42.9360 C.ar  503  PHE503     -0.0000
    212  N        -42.5450  104.4400  -39.5260 N.am  504  HIS504     -0.1973
    213  CA       -42.7930  103.3690  -38.5830 C.3   504  HIS504      0.1656
    214  C        -42.9490  102.0220  -39.2560 C.2   504  HIS504      0.2291
    215  O        -43.0260  101.9080  -40.4700 O.2   504  HIS504     -0.2864
    216  CB       -44.0470  103.6550  -37.7790 C.3   504  HIS504      0.0771
    217  CG       -44.0180  104.9380  -37.0240 C.ar  504  HIS504      0.0820
    218  ND1      -43.2880  105.1150  -35.8630 N.ar  504  HIS504     -0.2267
    219  CD2      -44.6720  106.1010  -37.2420 C.ar  504  HIS504      0.1154
    220  CE1      -43.5020  106.3330  -35.3980 C.ar  504  HIS504      0.1986
    221  NE2      -44.3500  106.9430  -36.2070 N.ar  504  HIS504     -0.2212
@<TRIPOS>BOND
     1    12    11    2
     2    11    10    1
     3    10    13    1
     4    10     9    1
     5    13    14    1
     6     9     3   am
     7     3     4    2
     8     3     2    1
     9     1     2    1
    10    14    16   ar
    11    14    15   ar
    12     2     5    1
    13    16    18   ar
    14    15    17   ar
    15   187   188    1
    16    30    31    2
    17    30    29    1
    18     5     6    1
    19   190   189    2
    20    18    19   ar
    21   120   121    2
    22   120   119    1
    23    23    22    2
    24    20    21    1
    25   192   191    1
    26    22    21    1
    27    22    28   am
    28    21    24    1
    29    17    19   ar
    30   188   189    1
    31   188   191    1
    32    28    29    1
    33   189   194   am
    34   200   198    1
    35    29    32    1
    36     6     8    1
    37     6     7    1
    38   118   119    1
    39   191   193    1
    40   119   122    1
    41   122   123    1
    42    26    25    1
    43   194   195    1
    44    24    25    1
    45    32    33    1
    46   113   112    2
    47   198   195    1
    48   198   199    1
    49    39    40    1
    50   195   196    1
    51   210   211   ar
    52   210   208   ar
    53   124   123    1
    54    25    27    1
    55   123   125    1
    56   211   209   ar
    57   112   111    1
    58   208   206   ar
    59    33    34   ar
    60    33    35   ar
    61    34    36   ar
    62    40    41    1
    63    40    43    1
    64   209   207   ar
    65   196   201   am
    66   196   197    2
    67    45    43    1
    68   201   202    1
    69    35    37   ar
    70   206   207   ar
    71   206   205    1
    72   111   114    1
    73   111   110    1
    74    41    42    2
    75    43    44    1
    76    36    38   ar
    77   114   115    1
    78   205   202    1
    79   215   214    2
    80   202   203    1
    81    37    38   ar
    82   179   177    1
    83   178   177    1
    84   101   100    2
    85   185   186    1
    86   185   184    1
    87   186   180    1
    88   212   203   am
    89   212   213    1
    90   177   174    1
    91   203   204    2
    92   214   213    1
    93   115   117    1
    94   115   116    1
    95   183   182    2
    96   100    99    1
    97   174   175    1
    98   174   173    1
    99   213   216    1
   100   180   175   am
   101   180   181    1
   102   184   181    1
   103   165   164    2
   104   102    99    1
   105   102   103    1
   106   105   103   ar
   107   105   107   ar
   108   175   176    2
   109   182   181    1
   110    99    98    1
   111   173   164   am
   112   103   104   ar
   113   216   217    1
   114   107   108   ar
   115   164   163    1
   116   166   163    1
   117   166   167    1
   118   219   217   ar
   119   219   221   ar
   120   104   106   ar
   121   108   106   ar
   122   108   109    1
   123   217   218   ar
   124   145   143   ar
   125   145   144   ar
   126   143   141   ar
   127   163   162    1
   128   167   169   ar
   129   167   168   ar
   130   169   171   ar
   131   153   151    1
   132    94    93    2
   133    98    93   am
   134   221   220   ar
   135   144   142   ar
   136   152   151    1
   137   141   140   ar
   138    93    92    1
   139   218   220   ar
   140   171   172   ar
   141   168   170   ar
   142    54    52   ar
   143    54    55   ar
   144   161   159    1
   145   151   150    1
   146    52    51   ar
   147   142   140   ar
   148   140   139    1
   149   172   170   ar
   150    55    53   ar
   151   160   159    1
   152    92    91    1
   153    92    95    1
   154   150   147    1
   155   159   158    1
   156   158   155    1
   157    96    95    1
   158   155   156    1
   159   155   154    1
   160   139   136    1
   161    51    53   ar
   162    51    50    1
   163    64    62   ar
   164    64    66   ar
   165    76    75   ar
   166    76    74   ar
   167    95    97    1
   168   156   157    2
   169    75    73   ar
   170    62    61   ar
   171    66    65   ar
   172   147   148    1
   173   147   146    1
   174    49    48    2
   175    50    47    1
   176    47    48    1
   177    47    46    1
   178    61    63   ar
   179    61    60    1
   180   148   149    2
   181   136   135    1
   182   136   137    1
   183    65    63   ar
   184    74    72   ar
   185    60    57    1
   186    73    72   ar
   187    90    88   ar
   188    90    89   ar
   189   135   128   am
   190   138   137    2
   191    88    86   ar
   192   130   131    1
   193   130   127    1
   194   134   132   ar
   195    89    87   ar
   196    72    71    1
   197   128   129    2
   198   128   127    1
   199   131   132    1
   200   132   133   ar
   201    86    85   ar
   202    86    84   ar
   203    57    58    1
   204    57    56    1
   205   127   126    1
   206    85    83   ar
   207    87    84   ar
   208    59    58    2
   209    58    67   am
   210    84    82   ar
   211    71    68    1
   212    83    82   ar
   213    67    68    1
   214    82    81    1
   215    68    69    1
   216    81    78    1
   217    69    70    2
   218    78    77    1
   219    78    79    1
   220    79    80    2
