@<TRIPOS>MOLECULE
tmp/4zhmB01.pdb
 126 127 0 0 0
SMALL
GASTEIGER

@<TRIPOS>ATOM
      1  N         -6.6640  -41.1810  -25.2060 N.3   192  ASP192     -0.1225
      2  CA        -5.3700  -40.6510  -24.7890 C.3   192  ASP192      0.1805
      3  C         -5.5040  -39.2950  -24.0880 C.2   192  ASP192      0.2598
      4  O         -6.5720  -38.6730  -24.1140 O.2   192  ASP192     -0.2718
      5  CB        -4.4950  -40.4660  -26.0440 C.3   192  ASP192      0.1424
      6  CG        -3.0090  -40.5650  -25.7640 C.2   192  ASP192      0.3668
      7  OD1       -2.5880  -40.7180  -24.5910 O.co2 192  ASP192     -0.2456
      8  OD2       -2.2470  -40.4830  -26.7520 O.co2 192  ASP192     -0.2456
      9  N         -4.4220  -38.8370  -23.4660 N.am  193  SER193     -0.1938
     10  CA        -4.3060  -37.4370  -23.0620 C.3   193  SER193      0.2055
     11  C         -3.8890  -36.6320  -24.2890 C.2   193  SER193      0.2643
     12  O         -3.3820  -37.1920  -25.2560 O.2   193  SER193     -0.2714
     13  CB        -3.2860  -37.2600  -21.9300 C.3   193  SER193      0.2130
     14  OG        -2.0750  -37.9620  -22.1880 O.3   193  SER193     -0.2179
     15  N         -4.1120  -35.3280  -24.2530 N.am  194  CYS194     -0.1953
     16  CA        -3.8140  -34.4700  -25.3930 C.3   194  CYS194      0.1843
     17  C         -3.4220  -33.0980  -24.8900 C.2   194  CYS194      0.2625
     18  O         -3.2980  -32.8810  -23.6750 O.2   194  CYS194     -0.2714
     19  CB        -5.0240  -34.3830  -26.3320 C.3   194  CYS194      0.0997
     20  SG        -4.6390  -33.8540  -28.0320 S.3   194  CYS194     -0.0797
     21  N         -3.2200  -32.1660  -25.8190 N.am  195  GLN195     -0.1977
     22  CA        -2.7710  -30.8200  -25.4580 C.3   195  GLN195      0.1601
     23  C         -3.6850  -30.2020  -24.4150 C.2   195  GLN195      0.2287
     24  O         -4.8880  -30.2040  -24.5860 O.2   195  GLN195     -0.2864
     25  CB        -2.7060  -29.9280  -26.6920 C.3   195  GLN195      0.0394
     26  CG        -2.2840  -28.4870  -26.4120 C.3   195  GLN195      0.0908
     27  CD        -1.9890  -27.7270  -27.6880 C.2   195  GLN195      0.2608
     28  OE1       -2.4780  -28.0860  -28.7480 O.2   195  GLN195     -0.2717
     29  NE2       -1.2120  -26.6600  -27.5880 N.am  195  GLN195     -0.0878
     30  N         -1.5670  -31.5630  -19.8840 N.3   198  SER198     -0.1217
     31  CA        -0.2670  -31.5970  -19.2480 C.3   198  SER198      0.1889
     32  C         -0.2900  -31.1120  -17.7820 C.2   198  SER198      0.2288
     33  O         -1.0680  -30.2310  -17.4010 O.2   198  SER198     -0.2866
     34  CB         0.7460  -30.8140  -20.0820 C.3   198  SER198      0.2089
     35  OG         0.6280  -29.4190  -19.8450 O.3   198  SER198     -0.2183
     36  N          1.2640  -36.0200  -16.5390 N.3   216  VAL216     -0.1231
     37  CA         1.1750  -35.8920  -18.0030 C.3   216  VAL216      0.1692
     38  C          2.3120  -34.9890  -18.5240 C.2   216  VAL216      0.2593
     39  O          2.3960  -33.8170  -18.1500 O.2   216  VAL216     -0.2718
     40  CB        -0.1730  -35.2810  -18.4450 C.3   216  VAL216      0.0266
     41  CG1       -0.2420  -35.2230  -19.9620 C.3   216  VAL216      0.0020
     42  CG2       -1.3710  -36.0650  -17.9160 C.3   216  VAL216      0.0020
     43  N          3.1670  -35.5160  -19.4000 N.am  217  SER217     -0.1938
     44  CA         4.3500  -34.7650  -19.8530 C.3   217  SER217      0.2055
     45  C          4.4280  -34.5070  -21.3600 C.2   217  SER217      0.2643
     46  O          4.4970  -33.3590  -21.7620 O.2   217  SER217     -0.2714
     47  CB         5.6450  -35.4250  -19.3720 C.3   217  SER217      0.2130
     48  OG         6.7720  -34.6550  -19.7820 O.3   217  SER217     -0.2179
     49  N          4.4890  -35.5560  -22.1740 N.am  218  TRP218     -0.1959
     50  CA         4.6140  -35.3950  -23.6290 C.3   218  TRP218      0.1771
     51  C          4.1540  -36.6070  -24.4310 C.2   218  TRP218      0.2620
     52  O          3.9500  -37.6960  -23.8900 O.2   218  TRP218     -0.2715
     53  CB         6.0590  -35.0290  -24.0040 C.3   218  TRP218      0.0590
     54  CG         7.0730  -36.0700  -23.6170 C.ar  218  TRP218      0.0006
     55  CD1        7.6430  -36.2330  -22.4010 C.ar  218  TRP218      0.0946
     56  CD2        7.6280  -37.0910  -24.4660 C.ar  218  TRP218      0.0152
     57  NE1        8.5380  -37.2940  -22.4340 N.ar  218  TRP218     -0.2442
     58  CE2        8.5360  -37.8360  -23.6880 C.ar  218  TRP218      0.0810
     59  CE3        7.4460  -37.4390  -25.8080 C.ar  218  TRP218      0.0012
     60  CZ2        9.2630  -38.9180  -24.2100 C.ar  218  TRP218      0.0191
     61  CZ3        8.1560  -38.5120  -26.3230 C.ar  218  TRP218      0.0001
     62  CH2        9.0550  -39.2390  -25.5260 C.ar  218  TRP218      0.0015
     63  N          3.9640  -36.3900  -25.7310 N.am  219  GLY219     -0.1940
     64  CA         3.6290  -37.4490  -26.6630 C.3   219  GLY219      0.2014
     65  C          3.3890  -36.9140  -28.0680 C.2   219  GLY219      0.2639
     66  O          2.9910  -35.7610  -28.2460 O.2   219  GLY219     -0.2714
     67  N          3.5930  -37.7450  -29.0690 N.am  220  ARG220     -0.1963
     68  CA         3.3440  -37.3290  -30.4310 C.3   220  ARG220      0.1729
     69  C          2.0120  -37.7890  -30.8740 C.2   220  ARG220      0.2617
     70  O          1.5620  -38.8210  -30.4860 O.2   220  ARG220     -0.2715
     71  CB         4.3650  -37.9120  -31.3760 C.3   220  ARG220      0.0348
     72  CG         4.0930  -37.5810  -32.8310 C.3   220  ARG220      0.0492
     73  CD         5.1290  -38.1320  -33.8000 C.3   220  ARG220      0.2205
     74  NE         6.3550  -38.5090  -33.1320 N.pl3 220  ARG220     -0.0865
     75  CZ         7.2680  -39.3110  -33.6320 C.cat 220  ARG220      0.5346
     76  NH1        7.1310  -39.7990  -34.8590 N.pl3 220  ARG220      0.1354
     77  NH2        8.3130  -39.6070  -32.9050 N.pl3 220  ARG220      0.1354
     78  N          1.1820  -36.6560  -31.5340 N.am  221  GLY221     -0.1940
     79  CA        -0.2270  -36.3300  -31.6660 C.3   221  GLY221      0.2014
     80  C         -0.9770  -36.6980  -30.3890 C.2   221  GLY221      0.2639
     81  O         -0.4010  -36.5990  -29.3510 O.2   221  GLY221     -0.2714
     82  N         -2.2280  -37.1450  -30.4920 N.am  222  CYS222     -0.1967
     83  CA        -2.9080  -37.7050  -29.3810 C.3   222  CYS222      0.1712
     84  C         -3.6390  -38.8920  -29.9530 C.2   222  CYS222      0.2296
     85  O         -4.2340  -38.7740  -30.9840 O.2   222  CYS222     -0.2864
     86  CB        -3.8650  -36.6740  -28.8490 C.3   222  CYS222      0.0983
     87  SG        -3.0670  -35.1080  -28.6570 S.3   222  CYS222     -0.0798
     88  N          2.3350  -44.2910  -30.7100 N.3   227  LYS227     -0.1231
     89  CA         2.8980  -43.1660  -29.9940 C.3   227  LYS227      0.1678
     90  C          2.1550  -42.9700  -28.6810 C.2   227  LYS227      0.2434
     91  O          1.1670  -42.3220  -28.6540 O.2   227  LYS227     -0.2733
     92  CB         2.8070  -41.9350  -30.8610 C.3   227  LYS227      0.0284
     93  CG         3.4510  -42.0840  -32.2200 C.3   227  LYS227      0.0035
     94  CD         4.9490  -42.1070  -32.1100 C.3   227  LYS227      0.0206
     95  CE         5.6260  -42.5690  -33.3810 C.3   227  LYS227      0.1093
     96  NZ         6.9940  -43.0410  -33.0720 N.3   227  LYS227     -0.1314
     97  N          2.6340  -43.5760  -27.6120 N.am  228  PRO228     -0.2718
     98  CA         1.9540  -43.5130  -26.3190 C.3   228  PRO228      0.1535
     99  C          2.0500  -42.1530  -25.6560 C.2   228  PRO228      0.2599
    100  O          2.8610  -41.3190  -26.0720 O.2   228  PRO228     -0.2715
    101  CB         2.7220  -44.5310  -25.4680 C.3   228  PRO228      0.0310
    102  CG         3.4110  -45.4260  -26.4320 C.3   228  PRO228      0.0237
    103  CD         3.7330  -44.5590  -27.6040 C.3   228  PRO228      0.0939
    104  N          1.2460  -41.9420  -24.6130 N.am  229  GLY229     -0.1941
    105  CA         1.4510  -40.7990  -23.7330 C.3   229  GLY229      0.2014
    106  C          2.6710  -41.0780  -22.8760 C.2   229  GLY229      0.2639
    107  O          2.9020  -42.2190  -22.4910 O.2   229  GLY229     -0.2714
    108  N          3.4650  -40.0430  -22.5950 N.am  230  VAL230     -0.1963
    109  CA         4.6250  -40.1760  -21.7400 C.3   230  VAL230      0.1727
    110  C          4.4400  -39.3140  -20.5030 C.2   230  VAL230      0.2616
    111  O          4.0140  -38.1550  -20.5900 O.2   230  VAL230     -0.2715
    112  CB         5.9240  -39.7550  -22.4480 C.3   230  VAL230      0.0290
    113  CG1        7.1130  -40.1540  -21.5960 C.3   230  VAL230      0.0023
    114  CG2        5.9900  -40.3840  -23.8400 C.3   230  VAL230      0.0023
    115  N          4.7960  -39.8850  -19.3650 N.am  231  TYR231     -0.1974
    116  CA         4.4670  -39.3410  -18.0760 C.3   231  TYR231      0.1639
    117  C          5.7020  -39.3170  -17.2010 C.2   231  TYR231      0.2290
    118  O          6.5400  -40.2340  -17.2770 O.2   231  TYR231     -0.2864
    119  CB         3.3900  -40.2190  -17.4230 C.3   231  TYR231      0.0560
    120  CG         2.0960  -40.2490  -18.1970 C.ar  231  TYR231     -0.0198
    121  CD1        1.9140  -41.1190  -19.2780 C.ar  231  TYR231     -0.0009
    122  CD2        1.0560  -39.3950  -17.8670 C.ar  231  TYR231     -0.0009
    123  CE1        0.7330  -41.1310  -19.9930 C.ar  231  TYR231      0.0417
    124  CE2       -0.1250  -39.4010  -18.5740 C.ar  231  TYR231      0.0417
    125  CZ        -0.2780  -40.2630  -19.6380 C.ar  231  TYR231      0.1957
    126  OH        -1.4580  -40.2390  -20.3210 O.3   231  TYR231     -0.2866
@<TRIPOS>BOND
     1    76    75    1
     2    73    74    1
     3    73    72    1
     4    75    74    2
     5    75    77    1
     6    95    96    1
     7    95    94    1
     8    72    71    1
     9    93    94    1
    10    93    92    1
    11    79    78    1
    12    79    80    1
    13    78    69   am
    14    71    68    1
    15    85    84    2
    16    69    70    2
    17    69    68    1
    18    92    89    1
    19    88    89    1
    20    82    80   am
    21    82    83    1
    22    68    67    1
    23    80    81    2
    24    89    90    1
    25    84    83    1
    26    83    86    1
    27    67    65   am
    28    86    87    1
    29    28    27    2
    30    90    91    2
    31    90    97   am
    32    87    20    1
    33    66    65    2
    34    65    64    1
    35    20    19    1
    36    27    29   am
    37    27    26    1
    38    97   103    1
    39    97    98    1
    40   103   102    1
    41     8     6   ar
    42    25    26    1
    43    25    22    1
    44    64    63    1
    45   102   101    1
    46    19    16    1
    47    61    59   ar
    48    61    62   ar
    49    98    99    1
    50    98   101    1
    51   100    99    2
    52     5     6    1
    53     5     2    1
    54    21    22    1
    55    21    17   am
    56    59    56   ar
    57     6     7   ar
    58    63    51   am
    59    99   104   am
    60    62    60   ar
    61    22    23    1
    62    16    17    1
    63    16    15    1
    64    12    11    2
    65     1     2    1
    66    17    18    2
    67     2     3    1
    68   104   105    1
    69    24    23    2
    70    56    58   ar
    71    56    54   ar
    72    51    52    2
    73    51    50    1
    74    11    15   am
    75    11    10    1
    76    60    58   ar
    77     4     3    2
    78     3     9   am
    79    53    50    1
    80    53    54    1
    81   114   112    1
    82   105   106    1
    83    58    57   ar
    84    50    49    1
    85    54    55   ar
    86     9    10    1
    87    10    13    1
    88   106   108   am
    89   106   107    2
    90   108   109    1
    91   112   109    1
    92   112   113    1
    93    57    55   ar
    94    14    13    1
    95    49    45   am
    96    46    45    2
    97   109   110    1
    98    45    44    1
    99   111   110    2
   100   110   115   am
   101   126   125    1
   102    34    35    1
   103    34    31    1
   104   123   125   ar
   105   123   121   ar
   106    41    40    1
   107    30    31    1
   108    44    43    1
   109    44    47    1
   110    48    47    1
   111   125   124   ar
   112    43    38   am
   113   115   116    1
   114   121   120   ar
   115    31    32    1
   116   124   122   ar
   117    38    39    2
   118    38    37    1
   119    40    37    1
   120    40    42    1
   121   120   122   ar
   122   120   119    1
   123   116   119    1
   124   116   117    1
   125    37    36    1
   126    32    33    2
   127   118   117    2
