@<TRIPOS>MOLECULE
tmp/4zhmB00.pdb
 212 211 0 0 0
SMALL
GASTEIGER

@<TRIPOS>ATOM
      1  N         -3.3550  -18.8730  -15.2860 N.3    20  ARG20      -0.1245
      2  CA        -2.4680  -17.7330  -15.2130 C.3    20  ARG20       0.1563
      3  C         -3.1370  -16.3940  -15.5470 C.2    20  ARG20       0.2260
      4  O         -3.8500  -16.2960  -16.5140 O.2    20  ARG20      -0.2867
      5  CB        -1.2620  -17.9590  -16.0910 C.3    20  ARG20       0.0307
      6  CG        -0.3760  -16.7600  -16.1680 C.3    20  ARG20       0.0489
      7  CD         1.0280  -17.1050  -16.4760 C.3    20  ARG20       0.2205
      8  NE         1.3210  -16.7890  -17.8400 N.pl3  20  ARG20      -0.0865
      9  CZ         1.4120  -17.6980  -18.7770 C.cat  20  ARG20       0.5346
     10  NH1        1.6960  -17.3610  -20.0140 N.pl3  20  ARG20       0.1354
     11  NH2        1.2250  -18.9590  -18.4680 N.pl3  20  ARG20       0.1354
     12  N         -6.3650  -20.7680  -18.7250 N.3    29  TYR29      -0.1227
     13  CA        -5.9250  -22.0590  -18.2160 C.3    29  TYR29       0.1736
     14  C         -4.5180  -22.4030  -18.6550 C.2    29  TYR29       0.2595
     15  O         -4.1400  -22.1430  -19.7870 O.2    29  TYR29      -0.2718
     16  CB        -6.8690  -23.1310  -18.6980 C.3    29  TYR29       0.0548
     17  CG        -6.6630  -24.4700  -18.0470 C.ar   29  TYR29      -0.0200
     18  CD1       -6.8900  -24.6440  -16.6830 C.ar   29  TYR29      -0.0009
     19  CD2       -6.2760  -25.5700  -18.7910 C.ar   29  TYR29      -0.0009
     20  CE1       -6.7260  -25.8730  -16.0850 C.ar   29  TYR29       0.0417
     21  CE2       -6.1170  -26.8160  -18.2000 C.ar   29  TYR29       0.0417
     22  CZ        -6.3470  -26.9580  -16.8400 C.ar   29  TYR29       0.1957
     23  OH        -6.2050  -28.1870  -16.2300 O.3    29  TYR29      -0.2866
     24  N         -3.7590  -22.9980  -17.7410 N.am   30  VAL30      -0.1966
     25  CA        -2.3550  -23.3140  -17.9490 C.3    30  VAL30       0.1727
     26  C         -2.1700  -24.8320  -18.0250 C.2    30  VAL30       0.2616
     27  O         -1.7300  -25.3610  -19.0420 O.2    30  VAL30      -0.2715
     28  CB        -1.4960  -22.7570  -16.7860 C.3    30  VAL30       0.0290
     29  CG1       -0.0530  -23.2290  -16.8780 C.3    30  VAL30       0.0023
     30  CG2       -1.5560  -21.2380  -16.7540 C.3    30  VAL30       0.0023
     31  N         -2.4810  -25.5210  -16.9280 N.am   31  CYS31      -0.1968
     32  CA        -2.1450  -26.9320  -16.7830 C.3    31  CYS31       0.1712
     33  C         -2.9810  -27.5800  -15.6950 C.2    31  CYS31       0.2296
     34  O         -3.5330  -26.9070  -14.8480 O.2    31  CYS31      -0.2864
     35  CB        -0.6770  -27.0720  -16.3750 C.3    31  CYS31       0.0983
     36  SG         0.5120  -27.0460  -17.7330 S.3    31  CYS31      -0.0798
     37  N          7.2710  -27.7260  -17.2300 N.3    46  HIS46      -0.1226
     38  CA         7.0810  -27.0960  -18.5470 C.3    46  HIS46       0.1752
     39  C          5.9260  -26.0760  -18.5330 C.2    46  HIS46       0.2596
     40  O          5.9000  -25.1530  -19.3440 O.2    46  HIS46      -0.2718
     41  CB         6.8650  -28.1430  -19.6540 C.3    46  HIS46       0.0759
     42  CG         5.5090  -28.7930  -19.6350 C.ar   46  HIS46       0.0818
     43  ND1        5.3310  -30.1340  -19.3900 N.ar   46  HIS46      -0.2268
     44  CD2        4.2720  -28.2870  -19.8560 C.ar   46  HIS46       0.1154
     45  CE1        4.0440  -30.4300  -19.4530 C.ar   46  HIS46       0.1986
     46  NE2        3.3770  -29.3210  -19.7250 N.ar   46  HIS46      -0.2212
     47  N          4.9760  -26.2440  -17.6410 N.am   47  CYS47      -0.1970
     48  CA         3.8400  -25.3580  -17.5130 C.3    47  CYS47       0.1712
     49  C          4.1770  -23.9620  -17.0930 C.2    47  CYS47       0.2296
     50  O          3.4330  -23.0650  -17.3560 O.2    47  CYS47      -0.2864
     51  CB         2.8850  -25.8600  -16.4720 C.3    47  CYS47       0.0983
     52  SG         2.2130  -27.4510  -16.8240 S.3    47  CYS47      -0.0798
     53  N          8.2100  -20.7030  -18.7270 N.3    50  ASP50      -0.1225
     54  CA         8.1400  -19.4820  -19.5040 C.3    50  ASP50       0.1805
     55  C          7.7800  -18.1950  -18.7520 C.2    50  ASP50       0.2597
     56  O          8.0560  -17.1160  -19.2180 O.2    50  ASP50      -0.2718
     57  CB         7.2700  -19.6750  -20.7130 C.3    50  ASP50       0.1424
     58  CG         7.7900  -20.7600  -21.6250 C.2    50  ASP50       0.3668
     59  OD1        9.0000  -20.9190  -21.7360 O.co2  50  ASP50      -0.2456
     60  OD2        6.9910  -21.4670  -22.2450 O.co2  50  ASP50      -0.2456
     61  N          7.0530  -18.3460  -17.6520 N.am   51  TYR51      -0.1976
     62  CA         6.6730  -17.2760  -16.7560 C.3    51  TYR51       0.1639
     63  C          6.7440  -17.7270  -15.2830 C.2    51  TYR51       0.2290
     64  O          5.7330  -17.9430  -14.6530 O.2    51  TYR51      -0.2864
     65  CB         5.2620  -16.8270  -17.0710 C.3    51  TYR51       0.0560
     66  CG         5.0370  -16.1910  -18.4210 C.ar   51  TYR51      -0.0198
     67  CD1        5.3840  -14.8690  -18.6520 C.ar   51  TYR51      -0.0009
     68  CD2        4.4350  -16.8870  -19.4640 C.ar   51  TYR51      -0.0009
     69  CE1        5.1630  -14.2670  -19.8830 C.ar   51  TYR51       0.0417
     70  CE2        4.2180  -16.2810  -20.6970 C.ar   51  TYR51       0.0417
     71  CZ         4.5870  -14.9620  -20.8860 C.ar   51  TYR51       0.1957
     72  OH         4.3810  -14.3170  -22.0790 O.3    51  TYR51      -0.2866
     73  N         14.0260  -29.1690  -21.9050 N.3    89  ALA89      -0.1231
     74  CA        13.2050  -29.5280  -23.0170 C.3    89  ALA89       0.1694
     75  C         14.0930  -29.9680  -24.1710 C.2    89  ALA89       0.2592
     76  O         14.9400  -29.2460  -24.6040 O.2    89  ALA89      -0.2718
     77  CB        12.3200  -28.3670  -23.4110 C.3    89  ALA89       0.0304
     78  N         13.8920  -31.1860  -24.6240 N.am   90  ASP90      -0.1960
     79  CA        14.6360  -31.7800  -25.7120 C.3    90  ASP90       0.1840
     80  C         13.9130  -31.4490  -26.9590 C.2    90  ASP90       0.2623
     81  O         12.9730  -30.7130  -26.9350 O.2    90  ASP90      -0.2715
     82  CB        14.6870  -33.2810  -25.5720 C.3    90  ASP90       0.1450
     83  CG        16.0830  -33.8580  -25.7900 C.2    90  ASP90       0.3671
     84  OD1       16.7850  -33.4260  -26.7150 O.co2  90  ASP90      -0.2456
     85  OD2       16.4730  -34.7770  -25.0350 O.co2  90  ASP90      -0.2456
     86  N         14.3770  -31.9720  -28.0740 N.am   91  THR91      -0.1937
     87  CA        13.6870  -31.7380  -29.3280 C.3    91  THR91       0.2028
     88  C         12.2830  -32.3520  -29.4050 C.2    91  THR91       0.2642
     89  O         11.3930  -31.7390  -29.9610 O.2    91  THR91      -0.2714
     90  CB        14.5650  -31.9850  -30.5660 C.3    91  THR91       0.1808
     91  OG1       15.3620  -33.1560  -30.3940 O.3    91  THR91      -0.2208
     92  CG2       15.4700  -30.8060  -30.7770 C.3    91  THR91       0.0379
     93  N         12.1230  -33.5550  -28.8600 N.am   92  LEU92      -0.1963
     94  CA        10.8430  -34.2430  -28.6850 C.3    92  LEU92       0.1728
     95  C         10.2500  -34.1540  -27.2820 C.2    92  LEU92       0.2616
     96  O          9.1230  -33.8150  -27.1030 O.2    92  LEU92      -0.2715
     97  CB        11.0860  -35.7240  -28.8760 C.3    92  LEU92       0.0311
     98  CG        10.5600  -36.5300  -30.0290 C.3    92  LEU92       0.0022
     99  CD1       11.6320  -36.4780  -31.0950 C.3    92  LEU92       0.0001
    100  CD2       10.4220  -37.9510  -29.5440 C.3    92  LEU92       0.0001
    101  N         11.0750  -34.4500  -26.3010 N.am   93  ALA93      -0.1963
    102  CA        10.6900  -34.7560  -24.9380 C.3    93  ALA93       0.1728
    103  C         11.0940  -33.6990  -23.9010 C.2    93  ALA93       0.2616
    104  O         11.9340  -32.8590  -24.1580 O.2    93  ALA93      -0.2715
    105  CB        11.3030  -36.0620  -24.5430 C.3    93  ALA93       0.0334
    106  N         10.4690  -33.7650  -22.7370 N.am   94  TYR94      -0.1974
    107  CA        10.8770  -33.0230  -21.5780 C.3    94  TYR94       0.1639
    108  C         11.5050  -33.9710  -20.6060 C.2    94  TYR94       0.2290
    109  O         11.1340  -35.0970  -20.5490 O.2    94  TYR94      -0.2864
    110  CB         9.7110  -32.3760  -20.8530 C.3    94  TYR94       0.0560
    111  CG         8.8780  -31.3770  -21.5730 C.ar   94  TYR94      -0.0198
    112  CD1        9.3280  -30.1110  -21.8090 C.ar   94  TYR94      -0.0009
    113  CD2        7.6070  -31.6740  -21.9210 C.ar   94  TYR94      -0.0009
    114  CE1        8.5510  -29.1990  -22.4350 C.ar   94  TYR94       0.0417
    115  CE2        6.8220  -30.7730  -22.5430 C.ar   94  TYR94       0.0417
    116  CZ         7.2980  -29.5270  -22.7910 C.ar   94  TYR94       0.1957
    117  OH         6.5040  -28.6330  -23.3840 O.3    94  TYR94      -0.2866
    118  N        -10.9130  -25.9570  -26.0740 N.3   150  TYR150     -0.1241
    119  CA       -10.8230  -26.9380  -25.0010 C.3   150  TYR150      0.1605
    120  C        -12.2040  -27.2270  -24.4410 C.2   150  TYR150      0.2264
    121  O        -13.0740  -26.3580  -24.4540 O.2   150  TYR150     -0.2867
    122  CB        -9.8920  -26.4240  -23.9140 C.3   150  TYR150      0.0534
    123  CG        -8.4990  -26.2890  -24.4530 C.ar  150  TYR150     -0.0201
    124  CD1       -8.1390  -25.1950  -25.2340 C.ar  150  TYR150     -0.0009
    125  CD2       -7.5620  -27.2910  -24.2580 C.ar  150  TYR150     -0.0009
    126  CE1       -6.8610  -25.0830  -25.7660 C.ar  150  TYR150      0.0417
    127  CE2       -6.2870  -27.1900  -24.7830 C.ar  150  TYR150      0.0417
    128  CZ        -5.9400  -26.0910  -25.5360 C.ar  150  TYR150      0.1957
    129  OH        -4.6570  -26.0130  -26.0530 O.3   150  TYR150     -0.2866
    130  N          8.9910  -44.6930  -29.3270 N.3   173  TYR173     -0.1241
    131  CA         9.7950  -43.5040  -29.0840 C.3   173  TYR173      0.1605
    132  C         11.3160  -43.6450  -29.1750 C.2   173  TYR173      0.2264
    133  O         12.0340  -42.6820  -29.1060 O.2   173  TYR173     -0.2867
    134  CB         9.3670  -42.8070  -27.8040 C.3   173  TYR173      0.0534
    135  CG         8.0230  -42.1380  -27.9100 C.ar  173  TYR173     -0.0201
    136  CD1        7.7180  -41.3350  -28.9700 C.ar  173  TYR173     -0.0009
    137  CD2        7.0460  -42.3500  -26.9620 C.ar  173  TYR173     -0.0009
    138  CE1        6.4890  -40.7500  -29.0690 C.ar  173  TYR173      0.0417
    139  CE2        5.8220  -41.7460  -27.0560 C.ar  173  TYR173      0.0417
    140  CZ         5.5520  -40.9540  -28.1130 C.ar  173  TYR173      0.1957
    141  OH         4.3520  -40.3550  -28.2160 O.3   173  TYR173     -0.2866
    142  N         -4.1120  -35.3280  -24.2530 N.3   194  CYS194     -0.1221
    143  CA        -3.8140  -34.4700  -25.3930 C.3   194  CYS194      0.1808
    144  C         -3.4220  -33.0980  -24.8900 C.2   194  CYS194      0.2601
    145  O         -3.2980  -32.8810  -23.6750 O.2   194  CYS194     -0.2717
    146  CB        -5.0240  -34.3830  -26.3320 C.3   194  CYS194      0.0970
    147  SG        -4.6390  -33.8540  -28.0320 S.3   194  CYS194     -0.0800
    148  N         -3.2200  -32.1660  -25.8190 N.am  195  GLN195     -0.1965
    149  CA        -2.7710  -30.8200  -25.4580 C.3   195  GLN195      0.1733
    150  C         -3.6850  -30.2020  -24.4150 C.2   195  GLN195      0.2616
    151  O         -4.8880  -30.2040  -24.5860 O.2   195  GLN195     -0.2715
    152  CB        -2.7060  -29.9280  -26.6920 C.3   195  GLN195      0.0408
    153  CG        -2.2840  -28.4870  -26.4120 C.3   195  GLN195      0.0908
    154  CD        -1.9890  -27.7270  -27.6880 C.2   195  GLN195      0.2608
    155  OE1       -2.4780  -28.0860  -28.7480 O.2   195  GLN195     -0.2717
    156  NE2       -1.2120  -26.6600  -27.5880 N.am  195  GLN195     -0.0878
    157  N         -3.1070  -29.6930  -23.3290 N.am  196  GLY196     -0.1955
    158  CA        -3.8910  -29.1100  -22.2420 C.3   196  GLY196      0.1869
    159  C         -4.1760  -30.0490  -21.0800 C.2   196  GLY196      0.2309
    160  O         -4.6540  -29.6010  -20.0410 O.2   196  GLY196     -0.2863
    161  N         -1.5670  -31.5630  -19.8840 N.3   198  SER198     -0.1217
    162  CA        -0.2670  -31.5970  -19.2480 C.3   198  SER198      0.1889
    163  C         -0.2900  -31.1120  -17.7820 C.2   198  SER198      0.2288
    164  O         -1.0680  -30.2310  -17.4010 O.2   198  SER198     -0.2866
    165  CB         0.7460  -30.8140  -20.0820 C.3   198  SER198      0.2089
    166  OG         0.6280  -29.4190  -19.8450 O.3   198  SER198     -0.2183
    167  N          1.2640  -36.0200  -16.5390 N.3   216  VAL216     -0.1231
    168  CA         1.1750  -35.8920  -18.0030 C.3   216  VAL216      0.1692
    169  C          2.3120  -34.9890  -18.5240 C.2   216  VAL216      0.2593
    170  O          2.3960  -33.8170  -18.1500 O.2   216  VAL216     -0.2718
    171  CB        -0.1730  -35.2810  -18.4450 C.3   216  VAL216      0.0266
    172  CG1       -0.2420  -35.2230  -19.9620 C.3   216  VAL216      0.0020
    173  CG2       -1.3710  -36.0650  -17.9160 C.3   216  VAL216      0.0020
    174  N          3.1670  -35.5160  -19.4000 N.am  217  SER217     -0.1938
    175  CA         4.3500  -34.7650  -19.8530 C.3   217  SER217      0.2055
    176  C          4.4280  -34.5070  -21.3600 C.2   217  SER217      0.2643
    177  O          4.4970  -33.3590  -21.7620 O.2   217  SER217     -0.2714
    178  CB         5.6450  -35.4250  -19.3720 C.3   217  SER217      0.2130
    179  OG         6.7720  -34.6550  -19.7820 O.3   217  SER217     -0.2179
    180  N          4.4890  -35.5560  -22.1740 N.am  218  TRP218     -0.1959
    181  CA         4.6140  -35.3950  -23.6290 C.3   218  TRP218      0.1771
    182  C          4.1540  -36.6070  -24.4310 C.2   218  TRP218      0.2620
    183  O          3.9500  -37.6960  -23.8900 O.2   218  TRP218     -0.2715
    184  CB         6.0590  -35.0290  -24.0040 C.3   218  TRP218      0.0590
    185  CG         7.0730  -36.0700  -23.6170 C.ar  218  TRP218      0.0006
    186  CD1        7.6430  -36.2330  -22.4010 C.ar  218  TRP218      0.0946
    187  CD2        7.6280  -37.0910  -24.4660 C.ar  218  TRP218      0.0152
    188  NE1        8.5380  -37.2940  -22.4340 N.ar  218  TRP218     -0.2442
    189  CE2        8.5360  -37.8360  -23.6880 C.ar  218  TRP218      0.0810
    190  CE3        7.4460  -37.4390  -25.8080 C.ar  218  TRP218      0.0012
    191  CZ2        9.2630  -38.9180  -24.2100 C.ar  218  TRP218      0.0191
    192  CZ3        8.1560  -38.5120  -26.3230 C.ar  218  TRP218      0.0001
    193  CH2        9.0550  -39.2390  -25.5260 C.ar  218  TRP218      0.0015
    194  N          3.9640  -36.3900  -25.7310 N.am  219  GLY219     -0.1940
    195  CA         3.6290  -37.4490  -26.6630 C.3   219  GLY219      0.2014
    196  C          3.3890  -36.9140  -28.0680 C.2   219  GLY219      0.2639
    197  O          2.9910  -35.7610  -28.2460 O.2   219  GLY219     -0.2714
    198  N          3.5930  -37.7450  -29.0690 N.am  220  ARG220     -0.1963
    199  CA         3.3440  -37.3290  -30.4310 C.3   220  ARG220      0.1729
    200  C          2.0120  -37.7890  -30.8740 C.2   220  ARG220      0.2616
    201  O          1.5620  -38.8210  -30.4860 O.2   220  ARG220     -0.2715
    202  CB         4.3650  -37.9120  -31.3760 C.3   220  ARG220      0.0348
    203  CG         4.0930  -37.5810  -32.8310 C.3   220  ARG220      0.0492
    204  CD         5.1290  -38.1320  -33.8000 C.3   220  ARG220      0.2205
    205  NE         6.3550  -38.5090  -33.1320 N.pl3 220  ARG220     -0.0865
    206  CZ         7.2680  -39.3110  -33.6320 C.cat 220  ARG220      0.5346
    207  NH1        7.1310  -39.7990  -34.8590 N.pl3 220  ARG220      0.1354
    208  NH2        8.3130  -39.6070  -32.9050 N.pl3 220  ARG220      0.1354
    209  N          1.1820  -36.6560  -31.5340 N.am  221  GLY221     -0.1955
    210  CA        -0.2270  -36.3300  -31.6660 C.3   221  GLY221      0.1869
    211  C         -0.9770  -36.6980  -30.3890 C.2   221  GLY221      0.2309
    212  O         -0.4010  -36.5990  -29.3510 O.2   221  GLY221     -0.2863
@<TRIPOS>BOND
     1   207   206    1
     2   204   205    1
     3   204   203    1
     4   206   205    2
     5   206   208    1
     6   203   202    1
     7   210   209    1
     8   210   211    1
     9   209   200   am
    10   202   199    1
    11    99    98    1
    12   200   201    2
    13   200   199    1
    14    92    90    1
    15    90    91    1
    16    90    87    1
    17   199   198    1
    18   211   212    2
    19    98   100    1
    20    98    97    1
    21    89    88    2
    22    88    87    1
    23    88    93   am
    24    87    86    1
    25   130   131    1
    26   132   133    2
    27   132   131    1
    28   131   134    1
    29   198   196   am
    30   138   136   ar
    31   138   140   ar
    32   136   135   ar
    33    97    94    1
    34    93    94    1
    35   155   154    2
    36    94    95    1
    37   197   196    2
    38   141   140    1
    39   140   139   ar
    40    86    80   am
    41   196   195    1
    42   147   146    1
    43   135   134    1
    44   135   137   ar
    45   154   156   am
    46   154   153    1
    47    95    96    2
    48    95   101   am
    49   139   137   ar
    50    80    81    2
    51    80    79    1
    52    84    83   ar
    53   152   153    1
    54   152   149    1
    55   195   194    1
    56   146   143    1
    57   192   190   ar
    58   192   193   ar
    59   101   102    1
    60   118   119    1
    61   129   128    1
    62   148   149    1
    63   148   144   am
    64   190   187   ar
    65    83    82    1
    66    83    85   ar
    67   126   128   ar
    68   126   124   ar
    69   194   182   am
    70    79    82    1
    71    79    78    1
    72   128   127   ar
    73   193   191   ar
    74   149   150    1
    75   143   144    1
    76   143   142    1
    77   124   123   ar
    78   119   120    1
    79   119   122    1
    80   102   105    1
    81   102   103    1
    82   144   145    2
    83   127   125   ar
    84    78    75   am
    85    76    75    2
    86   151   150    2
    87   187   189   ar
    88   187   185   ar
    89   121   120    2
    90   123   125   ar
    91   123   122    1
    92   182   183    2
    93   182   181    1
    94   150   157   am
    95   191   189   ar
    96    75    74    1
    97   104   103    2
    98   184   181    1
    99   184   185    1
   100   103   106   am
   101   189   188   ar
   102   181   180    1
   103   185   186   ar
   104    77    74    1
   105   117   116    1
   106   157   158    1
   107    74    73    1
   108   116   115   ar
   109   116   114   ar
   110   106   107    1
   111   115   113   ar
   112   114   112   ar
   113   188   186   ar
   114    60    58   ar
   115   158   159    1
   116   180   176   am
   117    72    71    1
   118   113   111   ar
   119   112   111   ar
   120   177   176    2
   121    59    58   ar
   122    58    57    1
   123   107   110    1
   124   107   108    1
   125   111   110    1
   126   176   175    1
   127   159   160    2
   128    71    70   ar
   129    71    69   ar
   130    57    54    1
   131    70    68   ar
   132   108   109    2
   133   165   166    1
   134   165   162    1
   135    10     9    1
   136   172   171    1
   137   161   162    1
   138    69    67   ar
   139    44    46   ar
   140    44    42   ar
   141   175   174    1
   142   175   178    1
   143    15    14    2
   144   179   178    1
   145    46    45   ar
   146    41    42    1
   147    41    38    1
   148    42    43   ar
   149    54    55    1
   150    54    53    1
   151    68    66   ar
   152    45    43   ar
   153   174   169   am
   154    40    39    2
   155   162   163    1
   156    56    55    2
   157    27    26    2
   158    19    21   ar
   159    19    17   ar
   160     9    11    1
   161     9     8    2
   162    55    61   am
   163    12    13    1
   164    16    13    1
   165    16    17    1
   166    14    13    1
   167    14    24   am
   168    67    66   ar
   169    38    39    1
   170    38    37    1
   171    39    47   am
   172   169   170    2
   173   169   168    1
   174   171   168    1
   175   171   173    1
   176    66    65    1
   177    21    22   ar
   178    17    18   ar
   179    26    25    1
   180    26    31   am
   181   168   167    1
   182    25    24    1
   183    25    28    1
   184     8     7    1
   185   163   164    2
   186    36    52    1
   187    36    35    1
   188    61    62    1
   189    47    48    1
   190    48    49    1
   191    48    51    1
   192    50    49    2
   193    65    62    1
   194    31    32    1
   195    29    28    1
   196    22    23    1
   197    22    20   ar
   198    52    51    1
   199    28    30    1
   200    32    35    1
   201    32    33    1
   202    62    63    1
   203    18    20   ar
   204     4     3    2
   205     7     6    1
   206     6     5    1
   207     5     2    1
   208    33    34    2
   209     3     2    1
   210     1     2    1
   211    63    64    2
