@<TRIPOS>MOLECULE
tmp/4zhqC00.pdb
 73 68 0 0 0
SMALL
GASTEIGER

@<TRIPOS>ATOM
      1  N         -5.6640   27.3510    5.7270 N.3   247  ALA247     -0.1231
      2  CA        -5.9080   27.1880    7.1390 C.3   247  ALA247      0.1694
      3  C         -5.9200   28.5640    7.9120 C.2   247  ALA247      0.2591
      4  O         -6.7030   28.7750    8.8700 O.2   247  ALA247     -0.2718
      5  CB        -4.8460   26.2360    7.6730 C.3   247  ALA247      0.0304
      6  N         -5.0650   29.4900    7.4710 N.am  248  LEU248     -0.1980
      7  CA        -4.8300   30.7530    8.1710 C.3   248  LEU248      0.1596
      8  C         -5.5820   31.9120    7.5840 C.2   248  LEU248      0.2287
      9  O         -5.3800   33.0600    7.9700 O.2   248  LEU248     -0.2864
     10  CB        -3.3560   31.0700    8.1300 C.3   248  LEU248      0.0297
     11  CG        -2.5300   30.0790    8.9320 C.3   248  LEU248      0.0022
     12  CD1       -1.0720   30.1960    8.5580 C.3   248  LEU248      0.0001
     13  CD2       -2.7060   30.4510   10.3850 C.3   248  LEU248      0.0001
     14  N          3.1920   32.6110   10.9820 N.3   325  PRO325     -0.2116
     15  CA         2.6240   33.2300   12.1560 C.3   325  PRO325      0.1372
     16  C          3.6050   33.8850   13.0690 C.2   325  PRO325      0.2244
     17  O          3.4130   35.0070   13.4910 O.2   325  PRO325     -0.2868
     18  CB         1.9450   32.0420   12.8190 C.3   325  PRO325      0.0268
     19  CG         1.3670   31.3250   11.6480 C.3   325  PRO325      0.0207
     20  CD         2.4490   31.3720   10.6360 C.3   325  PRO325      0.0892
     21  N          4.5350   37.3540   11.8330 N.3   328  VAL328     -0.1231
     22  CA         3.4370   38.3140   12.0010 C.3   328  VAL328      0.1692
     23  C          3.3070   38.7110   13.4690 C.2   328  VAL328      0.2592
     24  O          3.2390   39.9100   13.8100 O.2   328  VAL328     -0.2718
     25  CB         2.1310   37.7080   11.5750 C.3   328  VAL328      0.0266
     26  CG1        0.9850   38.6630   11.8110 C.3   328  VAL328      0.0020
     27  CG2        2.2090   37.3380   10.1220 C.3   328  VAL328      0.0020
     28  N          3.3210   37.7210   14.3610 N.am  329  ASN329     -0.1974
     29  CA         3.2510   38.0510   15.7960 C.3   329  ASN329      0.1688
     30  C          4.4050   38.9490   16.2450 C.2   329  ASN329      0.2292
     31  O          4.1770   39.9770   16.8630 O.2   329  ASN329     -0.2864
     32  CB         3.1540   36.7740   16.6500 C.3   329  ASN329      0.1181
     33  CG         1.8330   36.0250   16.4460 C.2   329  ASN329      0.2629
     34  OD1        0.8330   36.5980   16.0000 O.2   329  ASN329     -0.2716
     35  ND2        1.8290   34.7320   16.7580 N.am  329  ASN329     -0.0877
     36  N          4.0990   42.5530   14.8450 N.3   332  ILE332     -0.1245
     37  CA         3.0770   43.3110   15.5570 C.3   332  ILE332      0.1561
     38  C          3.5570   43.7670   16.9200 C.2   332  ILE332      0.2260
     39  O          3.3180   44.9080   17.3150 O.2   332  ILE332     -0.2867
     40  CB         1.7620   42.5380   15.6810 C.3   332  ILE332      0.0252
     41  CG1        1.1600   42.3540   14.3040 C.3   332  ILE332      0.0019
     42  CG2        0.7760   43.3140   16.5470 C.3   332  ILE332      0.0019
     43  CD1       -0.0130   41.3960   14.2460 C.3   332  ILE332      0.0001
     44  N         -6.5110   44.4610   19.9710 N.3   350  GLY350     -0.1210
     45  CA        -5.9170   43.3720   19.2290 C.3   350  GLY350      0.1956
     46  C         -6.1010   43.5840   17.7320 C.2   350  GLY350      0.2611
     47  O         -7.1800   43.9670   17.3270 O.2   350  GLY350     -0.2717
     48  N         -5.0700   43.3370   16.9190 N.am  351  PHE351     -0.1976
     49  CA        -5.2380   43.3200   15.4660 C.3   351  PHE351      0.1639
     50  C         -5.7400   41.9770   14.9820 C.2   351  PHE351      0.2290
     51  O         -5.3020   40.9630   15.4360 O.2   351  PHE351     -0.2864
     52  CB        -3.9330   43.5620   14.6860 C.3   351  PHE351      0.0560
     53  CG        -3.2410   44.8480   14.9940 C.ar  351  PHE351     -0.0200
     54  CD1       -3.8280   45.8400   15.7900 C.ar  351  PHE351     -0.0042
     55  CD2       -1.9900   45.1010   14.4330 C.ar  351  PHE351     -0.0042
     56  CE1       -3.1600   47.0280   16.0400 C.ar  351  PHE351     -0.0003
     57  CE2       -1.3360   46.2970   14.6730 C.ar  351  PHE351     -0.0003
     58  CZ        -1.9230   47.2490   15.4820 C.ar  351  PHE351     -0.0000
     59  N         -5.9540   39.2570   11.9560 N.3   353  VAL353     -0.1245
     60  CA        -5.0270   38.8770   10.9240 C.3   353  VAL353      0.1561
     61  C         -5.4760   37.7070   10.0630 C.2   353  VAL353      0.2260
     62  O         -5.9200   36.7040   10.5540 O.2   353  VAL353     -0.2867
     63  CB        -3.6940   38.4770   11.5740 C.3   353  VAL353      0.0252
     64  CG1       -2.7420   37.9320   10.5360 C.3   353  VAL353      0.0019
     65  CG2       -3.0830   39.6680   12.2590 C.3   353  VAL353      0.0019
     66  N         -4.0080   35.3350    6.5730 N.3   355  ILE355     -0.1245
     67  CA        -2.9160   35.0240    5.7360 C.3   355  ILE355      0.1561
     68  C         -3.3620   34.0860    4.6440 C.2   355  ILE355      0.2260
     69  O         -3.9260   33.0420    4.9430 O.2   355  ILE355     -0.2867
     70  CB        -1.8350   34.2970    6.5620 C.3   355  ILE355      0.0252
     71  CG1       -1.3280   35.1970    7.6890 C.3   355  ILE355      0.0019
     72  CG2       -0.6760   33.9270    5.6510 C.3   355  ILE355      0.0019
     73  CD1       -0.1780   34.6320    8.4630 C.3   355  ILE355      0.0001
@<TRIPOS>BOND
     1    68    69    2
     2    68    67    1
     3    72    70    1
     4     1     2    1
     5    67    70    1
     6    67    66    1
     7    70    71    1
     8     2     5    1
     9     2     3    1
    10     6     3   am
    11     6     7    1
    12     8     9    2
    13     8     7    1
    14    71    73    1
    15     3     4    2
    16    10     7    1
    17    10    11    1
    18    12    11    1
    19    11    13    1
    20    61    62    2
    21    61    60    1
    22    27    25    1
    23    64    63    1
    24    20    14    1
    25    20    19    1
    26    60    63    1
    27    60    59    1
    28    14    15    1
    29    63    65    1
    30    25    26    1
    31    25    22    1
    32    19    18    1
    33    21    22    1
    34    22    23    1
    35    15    18    1
    36    15    16    1
    37    16    17    2
    38    23    24    2
    39    23    28   am
    40    43    41    1
    41    41    40    1
    42    28    29    1
    43    55    57   ar
    44    55    53   ar
    45    57    58   ar
    46    52    53    1
    47    52    49    1
    48    36    37    1
    49    50    51    2
    50    50    49    1
    51    53    54   ar
    52    49    48    1
    53    58    56   ar
    54    37    40    1
    55    37    38    1
    56    40    42    1
    57    54    56   ar
    58    29    30    1
    59    29    32    1
    60    34    33    2
    61    30    31    2
    62    33    32    1
    63    33    35   am
    64    48    46   am
    65    38    39    2
    66    47    46    2
    67    46    45    1
    68    45    44    1
