@<TRIPOS>MOLECULE
tmp/4zhtA01.pdb
 148 146 0 0 0
SMALL
GASTEIGER

@<TRIPOS>ATOM
      1  N          9.3560   67.1170   68.5020 N.3    45  ASP45      -0.1225
      2  CA        10.7350   67.2510   68.0620 C.3    45  ASP45       0.1805
      3  C         11.1030   66.3830   66.8320 C.2    45  ASP45       0.2598
      4  O         11.7780   66.8600   65.9060 O.2    45  ASP45      -0.2718
      5  CB        11.6680   66.9010   69.2100 C.3    45  ASP45       0.1424
      6  CG        13.1050   67.2760   68.9390 C.2    45  ASP45       0.3668
      7  OD1       13.8250   66.5700   68.2150 O.co2  45  ASP45      -0.2456
      8  OD2       13.5580   68.2560   69.5290 O.co2  45  ASP45      -0.2456
      9  N         10.6770   65.1210   66.8080 N.am   46  ASP46      -0.1960
     10  CA        10.9600   64.2620   65.6430 C.3    46  ASP46       0.1840
     11  C         10.5000   64.8560   64.3330 C.2    46  ASP46       0.2622
     12  O         11.1170   64.6120   63.3250 O.2    46  ASP46      -0.2715
     13  CB        10.3030   62.8840   65.7800 C.3    46  ASP46       0.1450
     14  CG        10.9690   62.0100   66.8220 C.2    46  ASP46       0.3671
     15  OD1       12.1180   62.2820   67.2510 O.co2  46  ASP46      -0.2456
     16  OD2       10.2960   61.0510   67.2290 O.co2  46  ASP46      -0.2456
     17  N          9.3930   65.5870   64.3590 N.am   47  TYR47      -0.1960
     18  CA         8.8440   66.2300   63.1830 C.3    47  TYR47       0.1771
     19  C          9.3910   67.6500   62.9000 C.2    47  TYR47       0.2620
     20  O          9.0020   68.2690   61.9060 O.2    47  TYR47      -0.2715
     21  CB         7.2980   66.1780   63.2340 C.3    47  TYR47       0.0574
     22  CG         6.7430   64.7730   62.9650 C.ar   47  TYR47      -0.0198
     23  CD1        6.9220   64.1650   61.7440 C.ar   47  TYR47      -0.0009
     24  CD2        6.0560   64.0590   63.9410 C.ar   47  TYR47      -0.0009
     25  CE1        6.4370   62.8860   61.4930 C.ar   47  TYR47       0.0417
     26  CE2        5.5770   62.7870   63.7100 C.ar   47  TYR47       0.0417
     27  CZ         5.7720   62.1980   62.4790 C.ar   47  TYR47       0.1957
     28  OH         5.3090   60.9230   62.2100 O.3    47  TYR47      -0.2866
     29  N         10.3020   68.1450   63.7350 N.am   48  GLY48      -0.1954
     30  CA        11.0360   69.4020   63.5060 C.3    48  GLY48       0.1869
     31  C         10.5460   70.6160   64.2810 C.2    48  GLY48       0.2309
     32  O         10.8320   71.7440   63.9220 O.2    48  GLY48      -0.2863
     33  N         21.1140   74.3330   52.3750 N.3   190  TRP190     -0.1241
     34  CA        20.4760   73.0270   52.5880 C.3   190  TRP190      0.1605
     35  C         21.1700   71.8450   51.9400 C.2   190  TRP190      0.2264
     36  O         20.9410   70.7160   52.3710 O.2   190  TRP190     -0.2867
     37  CB        19.0120   73.0790   52.1270 C.3   190  TRP190      0.0550
     38  CG        18.1700   73.9230   53.0230 C.ar  190  TRP190      0.0003
     39  CD1       17.7250   75.1930   52.7870 C.ar  190  TRP190      0.0946
     40  CD2       17.6950   73.5660   54.3190 C.ar  190  TRP190      0.0152
     41  NE1       17.0040   75.6500   53.8650 N.ar  190  TRP190     -0.2442
     42  CE2       16.9650   74.6630   54.8150 C.ar  190  TRP190      0.0810
     43  CE3       17.8170   72.4240   55.1140 C.ar  190  TRP190      0.0012
     44  CZ2       16.3680   74.6520   56.0860 C.ar  190  TRP190      0.0191
     45  CZ3       17.2330   72.4240   56.3710 C.ar  190  TRP190      0.0001
     46  CH2       16.5190   73.5310   56.8420 C.ar  190  TRP190      0.0015
     47  N         13.0650   63.3280   56.2070 N.3   236  PHE236     -0.1228
     48  CA        12.5630   62.2100   56.9880 C.3   236  PHE236      0.1721
     49  C         11.0950   61.9260   56.6220 C.2   236  PHE236      0.2437
     50  O         10.3860   62.8350   56.2520 O.2   236  PHE236     -0.2733
     51  CB        12.7410   62.4880   58.5060 C.3   236  PHE236      0.0547
     52  CG        14.1760   62.4230   58.9650 C.ar  236  PHE236     -0.0202
     53  CD1       14.8340   61.2130   59.0490 C.ar  236  PHE236     -0.0042
     54  CD2       14.8680   63.5530   59.3220 C.ar  236  PHE236     -0.0042
     55  CE1       16.1580   61.1440   59.4940 C.ar  236  PHE236     -0.0003
     56  CE2       16.1860   63.4950   59.7590 C.ar  236  PHE236     -0.0003
     57  CZ        16.8320   62.2900   59.8460 C.ar  236  PHE236     -0.0000
     58  N         10.6250   60.6860   56.7960 N.am  237  PRO237     -0.2729
     59  CA         9.2280   60.4610   56.5600 C.3   237  PRO237      0.1401
     60  C          8.2680   61.2450   57.4550 C.2   237  PRO237      0.2269
     61  O          8.5540   61.5000   58.6090 O.2   237  PRO237     -0.2865
     62  CB         9.0590   58.9930   56.9090 C.3   237  PRO237      0.0296
     63  CG        10.3630   58.5360   57.4510 C.3   237  PRO237      0.0237
     64  CD        11.1000   59.7430   57.8150 C.3   237  PRO237      0.0939
     65  N          7.0130   55.0770   60.6310 N.3   243  SER243     -0.1202
     66  CA         8.0360   56.1140   60.4680 C.3   243  SER243      0.2020
     67  C          9.3880   55.7710   61.0430 C.2   243  SER243      0.2618
     68  O         10.4120   56.0660   60.4170 O.2   243  SER243     -0.2717
     69  CB         7.5850   57.4440   61.0410 C.3   243  SER243      0.2103
     70  OG         7.1840   57.3180   62.3830 O.3   243  SER243     -0.2182
     71  N          9.4090   55.1390   62.2130 N.am  244  LYS244     -0.1979
     72  CA        10.6780   54.8080   62.8720 C.3   244  LYS244      0.1596
     73  C         11.4210   53.7100   62.1610 C.2   244  LYS244      0.2287
     74  O         12.6560   53.7160   62.1720 O.2   244  LYS244     -0.2864
     75  CB        10.4840   54.4180   64.3200 C.3   244  LYS244      0.0298
     76  CG        10.0180   55.5480   65.2120 C.3   244  LYS244      0.0038
     77  CD        11.1430   56.5100   65.5290 C.3   244  LYS244      0.0206
     78  CE        10.6070   57.8080   66.1260 C.3   244  LYS244      0.1093
     79  NZ        11.6760   58.5160   66.8710 N.3   244  LYS244     -0.1314
     80  N         13.0620   55.5400   59.2580 N.3   246  VAL246     -0.1245
     81  CA        14.2340   56.2330   59.8070 C.3   246  VAL246      0.1561
     82  C         15.3740   55.2540   60.0760 C.2   246  VAL246      0.2260
     83  O         16.5340   55.5650   59.8130 O.2   246  VAL246     -0.2867
     84  CB        13.9040   57.0100   61.0930 C.3   246  VAL246      0.0252
     85  CG1       15.1570   57.6400   61.7190 C.3   246  VAL246      0.0019
     86  CG2       12.8910   58.1200   60.8160 C.3   246  VAL246      0.0019
     87  N         19.3160   55.2190   58.8420 N.3   249  ARG249     -0.1245
     88  CA        20.3940   55.0730   59.8130 C.3   249  ARG249      0.1563
     89  C         21.3500   53.9470   59.4090 C.2   249  ARG249      0.2260
     90  O         22.5500   54.1850   59.3230 O.2   249  ARG249     -0.2867
     91  CB        19.8390   54.8540   61.2090 C.3   249  ARG249      0.0307
     92  CG        20.9120   54.7100   62.2700 C.3   249  ARG249      0.0489
     93  CD        20.3990   54.9700   63.6830 C.3   249  ARG249      0.2205
     94  NE        19.2030   54.1870   63.9790 N.pl3 249  ARG249     -0.0865
     95  CZ        17.9570   54.6640   64.1000 C.cat 249  ARG249      0.5346
     96  NH1       17.6740   55.9640   63.9830 N.pl3 249  ARG249      0.1354
     97  NH2       16.9670   53.8070   64.3690 N.pl3 249  ARG249      0.1354
     98  N         22.7620   59.3560   57.1940 N.3   254  GLU254     -0.1245
     99  CA        22.9020   60.5030   58.0940 C.3   254  GLU254      0.1567
    100  C         24.3260   61.0400   58.1470 C.2   254  GLU254      0.2260
    101  O         24.5060   62.2080   58.4300 O.2   254  GLU254     -0.2867
    102  CB        22.4010   60.1780   59.4950 C.3   254  GLU254      0.0388
    103  CG        20.9440   59.7370   59.5090 C.3   254  GLU254      0.1160
    104  CD        20.2320   60.0160   60.8220 C.2   254  GLU254      0.3649
    105  OE1       20.3700   61.1560   61.3480 O.co2 254  GLU254     -0.2457
    106  OE2       19.4880   59.1110   61.2950 O.co2 254  GLU254     -0.2457
    107  N         22.0560   64.8680   52.7340 N.3   260  ARG260     -0.1231
    108  CA        21.7010   65.7450   53.8660 C.3   260  ARG260      0.1694
    109  C         20.3470   65.3090   54.3810 C.2   260  ARG260      0.2592
    110  O         19.3550   65.4130   53.6560 O.2   260  ARG260     -0.2718
    111  CB        21.6440   67.2020   53.4230 C.3   260  ARG260      0.0321
    112  CG        22.9520   67.7390   52.8780 C.3   260  ARG260      0.0489
    113  CD        24.0200   67.8230   53.9330 C.3   260  ARG260      0.2205
    114  NE        25.2180   68.4490   53.3780 N.pl3 260  ARG260     -0.0865
    115  CZ        26.1340   67.8380   52.6310 C.cat 260  ARG260      0.5346
    116  NH1       26.0260   66.5550   52.3020 N.pl3 260  ARG260      0.1354
    117  NH2       27.1760   68.5300   52.1980 N.pl3 260  ARG260      0.1354
    118  N         20.3150   64.8050   55.6130 N.am  261  ALA261     -0.1966
    119  CA        19.0780   64.3380   56.2580 C.3   261  ALA261      0.1728
    120  C         18.4440   65.4580   57.0750 C.2   261  ALA261      0.2616
    121  O         19.0770   65.9810   57.9820 O.2   261  ALA261     -0.2715
    122  CB        19.3800   63.1630   57.1680 C.3   261  ALA261      0.0334
    123  N         17.2010   65.8150   56.7580 N.am  262  VAL262     -0.1963
    124  CA        16.5240   66.9340   57.4120 C.3   262  VAL262      0.1727
    125  C         15.0800   66.5720   57.7270 C.2   262  VAL262      0.2616
    126  O         14.4950   65.7250   57.0700 O.2   262  VAL262     -0.2715
    127  CB        16.5610   68.2200   56.5470 C.3   262  VAL262      0.0290
    128  CG1       17.9840   68.6040   56.2090 C.3   262  VAL262      0.0023
    129  CG2       15.7940   68.0490   55.2480 C.3   262  VAL262      0.0023
    130  N         14.5020   67.2230   58.7290 N.am  263  LYS263     -0.1963
    131  CA        13.1090   66.9810   59.1120 C.3   263  LYS263      0.1728
    132  C         12.2020   67.9200   58.3510 C.2   263  LYS263      0.2616
    133  O         11.2410   67.4930   57.7530 O.2   263  LYS263     -0.2715
    134  CB        12.9020   67.1910   60.6110 C.3   263  LYS263      0.0311
    135  CG        13.6910   66.2290   61.4580 C.3   263  LYS263      0.0038
    136  CD        13.6590   66.5800   62.9390 C.3   263  LYS263      0.0206
    137  CE        14.2710   65.4590   63.7680 C.3   263  LYS263      0.1093
    138  NZ        14.4670   65.8580   65.1890 N.3   263  LYS263     -0.1314
    139  N         12.5060   69.2050   58.3820 N.am  264  HIS264     -0.1973
    140  CA        11.6570   70.1770   57.7250 C.3   264  HIS264      0.1656
    141  C         12.4460   71.3620   57.2150 C.2   264  HIS264      0.2291
    142  O         13.2200   71.9600   57.9570 O.2   264  HIS264     -0.2864
    143  CB        10.5830   70.6580   58.6870 C.3   264  HIS264      0.0771
    144  CG         9.6770   71.6990   58.1080 C.ar  264  HIS264      0.0820
    145  ND1        8.7800   71.4230   57.1050 N.ar  264  HIS264     -0.2267
    146  CD2        9.5270   73.0110   58.3830 C.ar  264  HIS264      0.1154
    147  CE1        8.1040   72.5150   56.7940 C.ar  264  HIS264      0.1986
    148  NE2        8.5370   73.4970   57.5570 N.ar  264  HIS264     -0.2212
@<TRIPOS>BOND
     1    35    36    2
     2    35    34    1
     3    37    34    1
     4    37    38    1
     5   117   115    1
     6   116   115    1
     7    33    34    1
     8   115   114    2
     9   107   108    1
    10    39    38   ar
    11    39    41   ar
    12   112   111    1
    13   112   113    1
    14    38    40   ar
    15   114   113    1
    16   111   108    1
    17   110   109    2
    18    41    42   ar
    19   108   109    1
    20    40    42   ar
    21    40    43   ar
    22   109   118   am
    23    42    44   ar
    24    43    45   ar
    25   129   127    1
    26   118   119    1
    27    44    46   ar
    28    47    48    1
    29   128   127    1
    30    50    49    2
    31   119   120    1
    32   119   122    1
    33    45    46   ar
    34   127   124    1
    35    59    58    1
    36    59    62    1
    37    59    60    1
    38    49    58   am
    39    49    48    1
    40   123   120   am
    41   123   124    1
    42   147   145   ar
    43   147   148   ar
    44    58    64    1
    45    62    63    1
    46    48    51    1
    47   126   125    2
    48   120   121    2
    49   145   144   ar
    50    98    99    1
    51   141   140    1
    52   141   142    2
    53   124   125    1
    54    63    64    1
    55    60    61    2
    56   148   146   ar
    57   140   139    1
    58   140   143    1
    59   125   130   am
    60   133   132    2
    61    99   100    1
    62    99   102    1
    63   144   146   ar
    64   144   143    1
    65   100   101    2
    66   132   139   am
    67   132   131    1
    68    51    52    1
    69   130   131    1
    70    87    88    1
    71    52    53   ar
    72    52    54   ar
    73    53    55   ar
    74   131   134    1
    75    80    81    1
    76    54    56   ar
    77    90    89    2
    78    89    88    1
    79    55    57   ar
    80   102   103    1
    81   103   104    1
    82    56    57   ar
    83    81    82    1
    84    81    84    1
    85    88    91    1
    86    83    82    2
    87    68    67    2
    88    66    65    1
    89    66    69    1
    90    66    67    1
    91   134   135    1
    92    86    84    1
    93   104   106   ar
    94   104   105   ar
    95    69    70    1
    96    67    71   am
    97    84    85    1
    98    91    92    1
    99   135   136    1
   100    25    23   ar
   101    25    27   ar
   102    23    22   ar
   103    20    19    2
   104    73    74    2
   105    73    72    1
   106    28    27    1
   107    71    72    1
   108    92    93    1
   109    27    26   ar
   110    72    75    1
   111    19    18    1
   112    19    29   am
   113   136   137    1
   114    22    21    1
   115    22    24   ar
   116    18    21    1
   117    18    17    1
   118    12    11    2
   119    30    29    1
   120    30    31    1
   121    93    94    1
   122    26    24   ar
   123   137   138    1
   124    32    31    2
   125    94    95    2
   126    96    95    1
   127    95    97    1
   128    75    76    1
   129    11    17   am
   130    11    10    1
   131    76    77    1
   132    77    78    1
   133    10    13    1
   134    10     9    1
   135    13    14    1
   136     4     3    2
   137    78    79    1
   138     9     3   am
   139    14    16   ar
   140    14    15   ar
   141     3     2    1
   142     2     1    1
   143     2     5    1
   144     7     6   ar
   145     6     5    1
   146     6     8   ar
