@<TRIPOS>MOLECULE
tmp/4zhtC02.pdb
 106 102 0 0 0
SMALL
GASTEIGER

@<TRIPOS>ATOM
      1  N         14.6130   38.0140    6.5080 N.3    14  ARG14      -0.1245
      2  CA        15.7280   38.8710    6.9150 C.3    14  ARG14       0.1563
      3  C         16.0890   38.6900    8.4060 C.2    14  ARG14       0.2260
      4  O         17.2260   38.9810    8.8200 O.2    14  ARG14      -0.2867
      5  CB        15.3710   40.3390    6.7090 C.3    14  ARG14       0.0307
      6  CG        14.7300   40.9120    7.9570 C.3    14  ARG14       0.0489
      7  CD        14.4810   42.3710    7.8800 C.3    14  ARG14       0.2205
      8  NE        13.5140   42.7470    8.8820 N.pl3  14  ARG14      -0.0865
      9  CZ        12.6770   43.7570    8.7570 C.cat  14  ARG14       0.5346
     10  NH1       12.7210   44.5600    7.7010 N.pl3  14  ARG14       0.1354
     11  NH2       11.7900   43.9790    9.7130 N.pl3  14  ARG14       0.1354
     12  N         18.4260   35.9990    8.3120 N.3    17  TYR17      -0.1227
     13  CA        19.5120   36.2440    7.3740 C.3    17  TYR17       0.1736
     14  C         20.5620   37.1610    7.9580 C.2    17  TYR17       0.2596
     15  O         21.7390   37.0200    7.6270 O.2    17  TYR17      -0.2718
     16  CB        19.0090   36.7750    6.0130 C.3    17  TYR17       0.0548
     17  CG        20.1200   36.8410    4.9780 C.ar   17  TYR17      -0.0200
     18  CD1       20.8520   35.6980    4.6580 C.ar   17  TYR17      -0.0009
     19  CD2       20.4640   38.0270    4.3520 C.ar   17  TYR17      -0.0009
     20  CE1       21.9000   35.7310    3.7550 C.ar   17  TYR17       0.0417
     21  CE2       21.5060   38.0760    3.4250 C.ar   17  TYR17       0.0417
     22  CZ        22.2380   36.9300    3.1400 C.ar   17  TYR17       0.1957
     23  OH        23.2780   36.9460    2.2270 O.3    17  TYR17      -0.2866
     24  N         20.1750   38.0630    8.8570 N.am   18  SER18      -0.1952
     25  CA        21.1540   38.9170    9.5310 C.3    18  SER18       0.1924
     26  C         22.1180   38.1240   10.4140 C.2    18  SER18       0.2314
     27  O         23.2560   38.5610   10.6420 O.2    18  SER18      -0.2863
     28  CB        20.4730   40.0160   10.3450 C.3    18  SER18       0.2116
     29  OG        19.8260   39.5200   11.5110 O.3    18  SER18      -0.2180
     30  N         23.9080   35.0530    7.6340 N.3    21  ALA21      -0.1245
     31  CA        24.8410   35.4810    6.5930 C.3    21  ALA21       0.1562
     32  C         26.3040   35.4070    7.0530 C.2    21  ALA21       0.2260
     33  O         27.1450   34.9080    6.3040 O.2    21  ALA21      -0.2867
     34  CB        24.4830   36.8600    6.0420 C.3    21  ALA21       0.0290
     35  N         29.1240   33.3060    5.1150 N.3    24  PHE24      -0.1241
     36  CA        30.4000   33.8850    4.6930 C.3    24  PHE24       0.1605
     37  C         31.5990   33.1160    5.2360 C.2    24  PHE24       0.2264
     38  O         32.5640   32.8820    4.5180 O.2    24  PHE24      -0.2867
     39  CB        30.5050   35.3380    5.1330 C.3    24  PHE24       0.0534
     40  CG        29.7470   36.2950    4.2580 C.ar   24  PHE24      -0.0203
     41  CD1       30.1110   36.4750    2.9180 C.ar   24  PHE24      -0.0042
     42  CD2       28.7050   37.0560    4.7720 C.ar   24  PHE24      -0.0042
     43  CE1       29.4310   37.3660    2.1070 C.ar   24  PHE24      -0.0003
     44  CE2       28.0090   37.9440    3.9590 C.ar   24  PHE24      -0.0003
     45  CZ        28.3780   38.1020    2.6260 C.ar   24  PHE24      -0.0000
     46  N         20.4400   38.2840   -0.5440 N.3    54  ILE54      -0.1245
     47  CA        21.2250   37.0700   -0.6540 C.3    54  ILE54       0.1561
     48  C         21.9730   37.1060   -1.9920 C.2    54  ILE54       0.2260
     49  O         23.1690   36.8300   -2.0300 O.2    54  ILE54      -0.2867
     50  CB        20.3410   35.8050   -0.4970 C.3    54  ILE54       0.0252
     51  CG1       19.6310   35.8260    0.8670 C.3    54  ILE54       0.0019
     52  CG2       21.1730   34.5460   -0.5860 C.3    54  ILE54       0.0019
     53  CD1       18.3410   35.0240    0.9100 C.3    54  ILE54       0.0001
     54  N         24.9430   39.5330   -1.8280 N.3    57  ASP57      -0.1239
     55  CA        26.0800   39.0100   -1.0580 C.3    57  ASP57       0.1674
     56  C         26.8420   37.9530   -1.8400 C.2    57  ASP57       0.2266
     57  O         27.7990   37.3730   -1.3250 O.2    57  ASP57      -0.2867
     58  CB        25.5980   38.4540    0.3040 C.3    57  ASP57       0.1410
     59  CG        25.1930   39.5520    1.3110 C.2    57  ASP57       0.3668
     60  OD1       25.4810   40.7410    1.0830 O.co2  57  ASP57      -0.2456
     61  OD2       24.5550   39.2290    2.3180 O.co2  57  ASP57      -0.2456
     62  N         29.2800   41.3810   12.8250 N.3   177  LYS177     -0.1245
     63  CA        29.0950   42.5640   11.9870 C.3   177  LYS177      0.1561
     64  C         28.9860   43.8800   12.7490 C.2   177  LYS177      0.2260
     65  O         29.5030   44.8920   12.2780 O.2   177  LYS177     -0.2867
     66  CB        27.8700   42.3960   11.0910 C.3   177  LYS177      0.0271
     67  CG        28.1400   41.5550    9.8480 C.3   177  LYS177      0.0035
     68  CD        27.6610   42.2560    8.5830 C.3   177  LYS177      0.0206
     69  CE        28.7710   42.4400    7.5560 C.3   177  LYS177      0.1093
     70  NZ        28.7160   41.3200    6.5670 N.3   177  LYS177     -0.1314
     71  N         12.3780   47.0880    4.1340 N.3   265  HIS265     -0.1241
     72  CA        13.6530   46.5730    4.5860 C.3   265  HIS265      0.1621
     73  C         14.8050   47.4650    4.2240 C.2   265  HIS265      0.2264
     74  O         14.9080   47.9060    3.0620 O.2   265  HIS265     -0.2867
     75  CB        13.8960   45.2110    3.9730 C.3   265  HIS265      0.0745
     76  CG        15.2140   44.6100    4.3550 C.ar  265  HIS265      0.0817
     77  ND1       15.4920   44.1750    5.6270 N.ar  265  HIS265     -0.2268
     78  CD2       16.3280   44.3820    3.6340 C.ar  265  HIS265      0.1154
     79  CE1       16.7190   43.6980    5.6770 C.ar  265  HIS265      0.1986
     80  NE2       17.2600   43.8270    4.4820 N.ar  265  HIS265     -0.2212
     81  N         18.9140   47.4720    4.1360 N.3   267  PRO267     -0.2102
     82  CA        20.0010   46.4920    4.1360 C.3   267  PRO267      0.1504
     83  C         20.7920   46.5200    5.4420 C.2   267  PRO267      0.2576
     84  O         21.1070   47.6000    5.9590 O.2   267  PRO267     -0.2718
     85  CB        20.8660   46.9090    2.9370 C.3   267  PRO267      0.0282
     86  CG        19.9820   47.7330    2.0610 C.3   267  PRO267      0.0208
     87  CD        18.7870   48.1780    2.8510 C.3   267  PRO267      0.0893
     88  N         21.0780   45.3310    5.9660 N.am  268  PHE268     -0.1963
     89  CA        21.5770   45.1460    7.3230 C.3   268  PHE268      0.1771
     90  C         22.7510   46.0470    7.6550 C.2   268  PHE268      0.2619
     91  O         22.7280   46.7160    8.6810 O.2   268  PHE268     -0.2715
     92  CB        21.9320   43.6900    7.5640 C.3   268  PHE268      0.0574
     93  CG        22.3880   43.3860    8.9610 C.ar  268  PHE268     -0.0200
     94  CD1       21.6120   43.7310   10.0610 C.ar  268  PHE268     -0.0042
     95  CD2       23.5800   42.7080    9.1820 C.ar  268  PHE268     -0.0042
     96  CE1       22.0260   43.4360   11.3560 C.ar  268  PHE268     -0.0003
     97  CE2       23.9960   42.3980   10.4650 C.ar  268  PHE268     -0.0003
     98  CZ        23.2230   42.7670   11.5520 C.ar  268  PHE268     -0.0000
     99  N         23.7330   46.1170    6.7670 N.am  269  ASP269     -0.1971
    100  CA        24.8880   47.0130    6.9700 C.3   269  ASP269      0.1709
    101  C         24.4950   48.4720    7.0810 C.2   269  ASP269      0.2293
    102  O         25.1160   49.2040    7.8450 O.2   269  ASP269     -0.2864
    103  CB        25.9360   46.8660    5.8620 C.3   269  ASP269      0.1436
    104  CG        26.8520   45.6690    6.0700 C.2   269  ASP269      0.3671
    105  OD1       26.5390   44.7720    6.8800 O.co2 269  ASP269     -0.2456
    106  OD2       27.8810   45.5910    5.3670 O.co2 269  ASP269     -0.2456
@<TRIPOS>BOND
     1    49    48    2
     2    48    47    1
     3    56    57    2
     4    56    55    1
     5    54    55    1
     6    55    58    1
     7    47    46    1
     8    47    50    1
     9    52    50    1
    10    50    51    1
    11    58    59    1
    12    51    53    1
    13    60    59   ar
    14    59    61   ar
    15    86    87    1
    16    86    85    1
    17    43    45   ar
    18    43    41   ar
    19    23    22    1
    20    45    44   ar
    21    87    81    1
    22    41    40   ar
    23    85    82    1
    24    74    73    2
    25    22    21   ar
    26    22    20   ar
    27    21    19   ar
    28    78    76   ar
    29    78    80   ar
    30    20    18   ar
    31    44    42   ar
    32    75    76    1
    33    75    72    1
    34    71    72    1
    35    81    82    1
    36    82    83    1
    37    73    72    1
    38    40    42   ar
    39    40    39    1
    40    19    17   ar
    41    76    77   ar
    42    80    79   ar
    43    38    37    2
    44    18    17   ar
    45    36    35    1
    46    36    39    1
    47    36    37    1
    48    17    16    1
    49   106   104   ar
    50    83    84    2
    51    83    88   am
    52    77    79   ar
    53   103   104    1
    54   103   100    1
    55    88    89    1
    56    16    13    1
    57    34    31    1
    58   104   105   ar
    59    33    32    2
    60     1     2    1
    61    70    69    1
    62    31    32    1
    63    31    30    1
    64     5     2    1
    65     5     6    1
    66    99   100    1
    67    99    90   am
    68     2     3    1
    69   100   101    1
    70   101   102    2
    71    89    92    1
    72    89    90    1
    73    13    14    1
    74    13    12    1
    75    69    68    1
    76    92    93    1
    77    15    14    2
    78    90    91    2
    79    10     9    1
    80     7     6    1
    81     7     8    1
    82    14    24   am
    83     3     4    2
    84    68    67    1
    85     9     8    2
    86     9    11    1
    87    24    25    1
    88    93    95   ar
    89    93    94   ar
    90    95    97   ar
    91    25    28    1
    92    25    26    1
    93    67    66    1
    94    94    96   ar
    95    28    29    1
    96    26    27    2
    97    97    98   ar
    98    66    63    1
    99    96    98   ar
   100    63    64    1
   101    63    62    1
   102    65    64    2
