@<TRIPOS>MOLECULE
tmp/4zhtA00.pdb
 161 152 0 0 0
SMALL
GASTEIGER

@<TRIPOS>ATOM
      1  N          2.9390   70.2460   59.1220 N.3    13  ARG13      -0.1231
      2  CA         3.3980   71.0900   58.0290 C.3    13  ARG13       0.1694
      3  C          2.6280   70.8070   56.7280 C.2    13  ARG13       0.2591
      4  O          2.5600   71.6690   55.8150 O.2    13  ARG13      -0.2718
      5  CB         4.8710   70.8550   57.7610 C.3    13  ARG13       0.0321
      6  CG         5.0550   69.7500   56.7290 C.3    13  ARG13       0.0489
      7  CD         6.4720   69.5290   56.3210 C.3    13  ARG13       0.2205
      8  NE         6.6060   68.2180   55.7200 N.pl3  13  ARG13      -0.0865
      9  CZ         7.7270   67.5160   55.7210 C.cat  13  ARG13       0.5346
     10  NH1        8.8370   68.0200   56.2510 N.pl3  13  ARG13       0.1354
     11  NH2        7.7470   66.3190   55.1820 N.pl3  13  ARG13       0.1354
     12  N          2.1160   69.5790   56.5940 N.am   14  ALA14      -0.1980
     13  CA         1.4190   69.1630   55.3720 C.3    14  ALA14       0.1597
     14  C          0.1210   69.8960   55.1680 C.2    14  ALA14       0.2287
     15  O         -0.3070   70.0530   54.0420 O.2    14  ALA14      -0.2864
     16  CB         1.1700   67.6620   55.3710 C.3    14  ALA14       0.0319
     17  N          1.1920   74.3260   54.9880 N.3    17  SER17      -0.1202
     18  CA         1.5780   74.9300   53.7100 C.3    17  SER17       0.2020
     19  C          0.3720   75.4490   52.9100 C.2    17  SER17       0.2618
     20  O          0.5050   76.3850   52.1280 O.2    17  SER17      -0.2717
     21  CB         2.4200   73.9790   52.8610 C.3    17  SER17       0.2103
     22  OG         1.6500   72.9030   52.3470 O.3    17  SER17      -0.2182
     23  N         -0.7860   74.8360   53.1180 N.am   18  LYS18      -0.1979
     24  CA        -1.9870   75.1690   52.3850 C.3    18  LYS18       0.1596
     25  C         -2.9790   75.9290   53.2120 C.2    18  LYS18       0.2287
     26  O         -3.9060   76.5050   52.6600 O.2    18  LYS18      -0.2864
     27  CB        -2.6230   73.8880   51.8340 C.3    18  LYS18       0.0298
     28  CG        -1.7550   73.2150   50.7710 C.3    18  LYS18       0.0038
     29  CD        -2.1200   71.7600   50.5850 C.3    18  LYS18       0.0206
     30  CE        -1.2740   71.0290   49.5590 C.3    18  LYS18       0.1093
     31  NZ         0.1750   71.0560   49.8670 N.3    18  LYS18      -0.1314
     32  N         -6.4560   65.0450   54.2460 N.3   102  ASP102     -0.1225
     33  CA        -6.7760   63.6070   54.2750 C.3   102  ASP102      0.1805
     34  C         -6.1320   62.8030   55.3980 C.2   102  ASP102      0.2597
     35  O         -6.2110   61.6050   55.4300 O.2   102  ASP102     -0.2718
     36  CB        -6.3910   63.0060   52.8970 C.3   102  ASP102      0.1424
     37  CG        -4.8870   63.2080   52.5200 C.2   102  ASP102      0.3668
     38  OD1       -4.0730   63.6140   53.3730 O.co2 102  ASP102     -0.2456
     39  OD2       -4.5040   62.9600   51.3590 O.co2 102  ASP102     -0.2456
     40  N         -5.4900   63.4690   56.3270 N.am  103  ARG103     -0.1979
     41  CA        -4.8010   62.7960   57.4190 C.3   103  ARG103      0.1597
     42  C         -5.7330   62.4860   58.6080 C.2   103  ARG103      0.2287
     43  O         -6.7640   63.1420   58.8000 O.2   103  ARG103     -0.2864
     44  CB        -3.6270   63.6410   57.8670 C.3   103  ARG103      0.0334
     45  CG        -2.5120   63.6000   56.8590 C.3   103  ARG103      0.0492
     46  CD        -1.4250   64.6000   57.1490 C.3   103  ARG103      0.2205
     47  NE        -0.3500   64.3850   56.2030 N.pl3 103  ARG103     -0.0865
     48  CZ         0.8820   63.9550   56.4770 C.cat 103  ARG103      0.5346
     49  NH1        1.2880   63.7240   57.7300 N.pl3 103  ARG103      0.1354
     50  NH2        1.7470   63.7940   55.4550 N.pl3 103  ARG103      0.1354
     51  N         11.8910   62.4960   49.0890 N.3   204  LEU204     -0.1245
     52  CA        10.8580   62.5700   50.1100 C.3   204  LEU204      0.1561
     53  C          9.8990   61.4170   49.9030 C.2   204  LEU204      0.2260
     54  O          9.0570   61.4310   48.9840 O.2   204  LEU204     -0.2867
     55  CB        10.1560   63.9170   50.0060 C.3   204  LEU204      0.0270
     56  CG         8.9650   64.2960   50.8710 C.3   204  LEU204      0.0019
     57  CD1        9.2460   64.1660   52.3630 C.3   204  LEU204      0.0001
     58  CD2        8.5670   65.7330   50.5470 C.3   204  LEU204      0.0001
     59  N          7.3140   58.5620   51.9230 N.3   206  HIS206     -0.1241
     60  CA         6.5270   58.2690   53.0810 C.3   206  HIS206      0.1621
     61  C          6.1060   56.8270   53.0930 C.2   206  HIS206      0.2264
     62  O          5.8560   56.2550   52.0470 O.2   206  HIS206     -0.2867
     63  CB         5.2560   59.1130   53.0860 C.3   206  HIS206      0.0745
     64  CG         5.5100   60.5730   52.9940 C.ar  206  HIS206      0.0817
     65  ND1        6.4310   61.2100   53.7940 N.ar  206  HIS206     -0.2268
     66  CD2        4.9910   61.5200   52.1850 C.ar  206  HIS206      0.1154
     67  CE1        6.4760   62.4910   53.4830 C.ar  206  HIS206      0.1986
     68  NE2        5.6030   62.7040   52.5140 N.ar  206  HIS206     -0.2212
     69  N         14.5030   64.1070   53.0920 N.3   235  LEU235     -0.1245
     70  CA        13.5640   64.5080   54.1250 C.3   235  LEU235      0.1561
     71  C         13.1180   63.2640   54.8850 C.2   235  LEU235      0.2260
     72  O         12.7890   62.2760   54.2760 O.2   235  LEU235     -0.2867
     73  CB        12.3250   65.1470   53.5090 C.3   235  LEU235      0.0270
     74  CG        12.3240   66.6140   53.1260 C.3   235  LEU235      0.0019
     75  CD1       12.3200   67.4550   54.3840 C.3   235  LEU235      0.0001
     76  CD2       13.4790   66.9720   52.2130 C.3   235  LEU235      0.0001
     77  N          7.0960   61.5090   56.9170 N.3   238  ASN238     -0.1240
     78  CA         6.0580   62.3310   57.5040 C.3   238  ASN238      0.1653
     79  C          4.6720   61.6810   57.3760 C.2   238  ASN238      0.2266
     80  O          3.6740   62.3820   57.1480 O.2   238  ASN238     -0.2867
     81  CB         6.0270   63.6800   56.8080 C.3   238  ASN238      0.1155
     82  CG         5.1470   64.6690   57.5160 C.2   238  ASN238      0.2627
     83  OD1        5.1120   64.6990   58.7420 O.2   238  ASN238     -0.2716
     84  ND2        4.4670   65.5150   56.7540 N.am  238  ASN238     -0.0877
     85  N         12.5060   69.2050   58.3820 N.3   264  HIS264     -0.1226
     86  CA        11.6570   70.1770   57.7250 C.3   264  HIS264      0.1752
     87  C         12.4460   71.3620   57.2150 C.2   264  HIS264      0.2595
     88  O         13.2200   71.9600   57.9570 O.2   264  HIS264     -0.2718
     89  CB        10.5830   70.6580   58.6870 C.3   264  HIS264      0.0759
     90  CG         9.6770   71.6990   58.1080 C.ar  264  HIS264      0.0818
     91  ND1        8.7800   71.4230   57.1050 N.ar  264  HIS264     -0.2268
     92  CD2        9.5270   73.0110   58.3830 C.ar  264  HIS264      0.1154
     93  CE1        8.1040   72.5150   56.7940 C.ar  264  HIS264      0.1986
     94  NE2        8.5370   73.4970   57.5570 N.ar  264  HIS264     -0.2212
     95  N         12.2080   71.7020   55.9580 N.am  265  VAL265     -0.1980
     96  CA        12.6920   72.9260   55.3160 C.3   265  VAL265      0.1595
     97  C         11.5310   73.9030   55.2760 C.2   265  VAL265      0.2287
     98  O         10.4550   73.5730   54.7420 O.2   265  VAL265     -0.2864
     99  CB        13.1250   72.6670   53.8450 C.3   265  VAL265      0.0276
    100  CG1       13.6660   73.9440   53.2250 C.3   265  VAL265      0.0022
    101  CG2       14.1640   71.5670   53.7790 C.3   265  VAL265      0.0022
    102  N          8.7720   76.3250   54.1930 N.3   267  PHE267     -0.1241
    103  CA         8.0300   76.2200   52.9470 C.3   267  PHE267      0.1605
    104  C          8.5580   77.1430   51.8440 C.2   267  PHE267      0.2264
    105  O          8.7820   76.6950   50.7300 O.2   267  PHE267     -0.2867
    106  CB         6.5350   76.4500   53.1930 C.3   267  PHE267      0.0534
    107  CG         5.6750   76.2930   51.9600 C.ar  267  PHE267     -0.0203
    108  CD1        5.7330   75.1300   51.1960 C.ar  267  PHE267     -0.0042
    109  CD2        4.7840   77.2960   51.5690 C.ar  267  PHE267     -0.0042
    110  CE1        4.9440   74.9810   50.0590 C.ar  267  PHE267     -0.0003
    111  CE2        3.9780   77.1450   50.4490 C.ar  267  PHE267     -0.0003
    112  CZ         4.0520   75.9900   49.6940 C.ar  267  PHE267     -0.0000
    113  N         11.7440   75.7860   50.7620 N.3   270  PHE270     -0.1241
    114  CA        11.5220   74.5080   50.1310 C.3   270  PHE270      0.1605
    115  C         11.0740   74.6550   48.6750 C.2   270  PHE270      0.2264
    116  O         11.4450   73.8410   47.8220 O.2   270  PHE270     -0.2867
    117  CB        10.4990   73.7060   50.9360 C.3   270  PHE270      0.0534
    118  CG        10.3630   72.2790   50.4900 C.ar  270  PHE270     -0.0203
    119  CD1       11.4150   71.3870   50.6580 C.ar  270  PHE270     -0.0042
    120  CD2        9.1930   71.8280   49.8930 C.ar  270  PHE270     -0.0042
    121  CE1       11.2980   70.0650   50.2530 C.ar  270  PHE270     -0.0003
    122  CE2        9.0710   70.5170   49.4870 C.ar  270  PHE270     -0.0003
    123  CZ        10.1220   69.6330   49.6690 C.ar  270  PHE270     -0.0000
    124  N          5.7160   62.1180   47.6610 N.3   283  SER283     -0.1202
    125  CA         5.0920   63.2980   48.1860 C.3   283  SER283      0.2020
    126  C          3.9630   63.7440   47.2790 C.2   283  SER283      0.2619
    127  O          3.9910   63.5290   46.0630 O.2   283  SER283     -0.2717
    128  CB         6.1320   64.4170   48.3150 C.3   283  SER283      0.2103
    129  OG         5.6190   65.5080   49.0740 O.3   283  SER283     -0.2182
    130  N          2.9770   64.4080   47.8570 N.am  284  SER284     -0.1937
    131  CA         1.9650   65.1100   47.0710 C.3   284  SER284      0.2055
    132  C          2.5640   66.3130   46.3140 C.2   284  SER284      0.2643
    133  O          2.0140   66.7280   45.3080 O.2   284  SER284     -0.2714
    134  CB         0.8280   65.6080   47.9640 C.3   284  SER284      0.2130
    135  OG         1.2330   66.7540   48.6820 O.3   284  SER284     -0.2179
    136  N          3.6370   66.8850   46.8590 N.am  285  CYS285     -0.1967
    137  CA         4.3480   67.9720   46.2240 C.3   285  CYS285      0.1712
    138  C          4.7970   67.5550   44.8270 C.2   285  CYS285      0.2296
    139  O          4.6680   68.3220   43.8620 O.2   285  CYS285     -0.2864
    140  CB         5.5520   68.3920   47.0760 C.3   285  CYS285      0.0983
    141  SG         6.5790   69.6450   46.2770 S.3   285  CYS285     -0.0798
    142  N          2.5350   70.0820   43.0890 N.3   289  GLU289     -0.1245
    143  CA         3.1410   71.4050   43.2110 C.3   289  GLU289      0.1567
    144  C          4.2470   71.6420   42.1940 C.2   289  GLU289      0.2260
    145  O          4.1270   72.5600   41.3740 O.2   289  GLU289     -0.2867
    146  CB         3.6450   71.6180   44.6370 C.3   289  GLU289      0.0388
    147  CG         2.5100   71.6610   45.6610 C.3   289  GLU289      0.1160
    148  CD         2.9980   71.7590   47.1080 C.2   289  GLU289      0.3649
    149  OE1        4.1560   72.2050   47.3420 O.co2 289  GLU289     -0.2457
    150  OE2        2.2110   71.3780   48.0080 O.co2 289  GLU289     -0.2457
    151  N          1.2280   55.0830   46.5300 N.3   303  ARG303     -0.1245
    152  CA         0.7610   56.3740   46.9990 C.3   303  ARG303      0.1563
    153  C          0.8530   57.3500   45.8410 C.2   303  ARG303      0.2260
    154  O          1.9150   57.4770   45.1920 O.2   303  ARG303     -0.2867
    155  CB         1.6150   56.8500   48.1610 C.3   303  ARG303      0.0307
    156  CG         1.0530   58.0640   48.8850 C.3   303  ARG303      0.0489
    157  CD         2.0070   58.5210   49.9750 C.3   303  ARG303      0.2205
    158  NE         1.3430   59.3940   50.9420 N.pl3 303  ARG303     -0.0865
    159  CZ         1.4730   60.7230   51.0580 C.cat 303  ARG303      0.5346
    160  NH1        2.2620   61.4350   50.2670 N.pl3 303  ARG303      0.1354
    161  NH2        0.8020   61.3460   52.0140 N.pl3 303  ARG303      0.1354
@<TRIPOS>BOND
     1   145   144    2
     2   144   143    1
     3   142   143    1
     4   143   146    1
     5   139   138    2
     6   146   147    1
     7   138   137    1
     8   154   153    2
     9   133   132    2
    10   147   148    1
    11   153   152    1
    12   127   126    2
    13   137   136    1
    14   137   140    1
    15   141   140    1
    16   132   136   am
    17   132   131    1
    18   151   152    1
    19   152   155    1
    20   131   130    1
    21   131   134    1
    22   148   149   ar
    23   148   150   ar
    24   126   130   am
    25   126   125    1
    26   124   125    1
    27   116   115    2
    28   134   135    1
    29   155   156    1
    30   125   128    1
    31   128   129    1
    32   115   114    1
    33   156   157    1
    34    54    53    2
    35    51    52    1
    36   122   123   ar
    37   122   120   ar
    38    30    31    1
    39    30    29    1
    40   123   121   ar
    41   112   110   ar
    42   112   111   ar
    43   120   118   ar
    44    53    52    1
    45   157   158    1
    46    55    52    1
    47    55    56    1
    48   110   108   ar
    49   114   113    1
    50   114   117    1
    51   121   119   ar
    52   160   159    1
    53   111   109   ar
    54   118   119   ar
    55   118   117    1
    56    58    56    1
    57    29    28    1
    58   105   104    2
    59    28    27    1
    60    56    57    1
    61   158   159    2
    62   159   161    1
    63   108   107   ar
    64    39    37   ar
    65   109   107   ar
    66    27    24    1
    67   104   103    1
    68    59    60    1
    69   107   106    1
    70    62    61    2
    71    20    19    2
    72    66    68   ar
    73    66    64   ar
    74    76    74    1
    75    22    21    1
    76    24    23    1
    77    24    25    1
    78    68    67   ar
    79    37    36    1
    80    37    38   ar
    81    26    25    2
    82    21    18    1
    83    36    33    1
    84    19    23   am
    85    19    18    1
    86   103   106    1
    87   103   102    1
    88    64    63    1
    89    64    65   ar
    90    60    63    1
    91    60    61    1
    92    69    70    1
    93    74    73    1
    94    74    75    1
    95   100    99    1
    96    67    65   ar
    97    73    70    1
    98    18    17    1
    99   101    99    1
   100    99    96    1
   101    15    14    2
   102    70    71    1
   103    32    33    1
   104    33    34    1
   105    72    71    2
   106    98    97    2
   107    14    13    1
   108    11     9    1
   109    97    96    1
   110    96    95    1
   111    16    13    1
   112    13    12    1
   113    34    35    2
   114    34    40   am
   115    50    48    1
   116     8     9    2
   117     8     7    1
   118     9    10    1
   119     4     3    2
   120    95    87   am
   121    47    48    2
   122    47    46    1
   123     7     6    1
   124    40    41    1
   125    48    49    1
   126    12     3   am
   127     3     2    1
   128     6     5    1
   129    84    82   am
   130    93    91   ar
   131    93    94   ar
   132    81    78    1
   133    81    82    1
   134    45    46    1
   135    45    44    1
   136    77    78    1
   137    91    90   ar
   138    80    79    2
   139    87    86    1
   140    87    88    2
   141    79    78    1
   142    41    44    1
   143    41    42    1
   144    82    83    2
   145    94    92   ar
   146    86    85    1
   147    86    89    1
   148     5     2    1
   149     2     1    1
   150    90    92   ar
   151    90    89    1
   152    42    43    2
