@<TRIPOS>MOLECULE
tmp/4zhxA00.pdb
 154 144 0 0 0
SMALL
GASTEIGER

@<TRIPOS>ATOM
      1  N        130.9780  -23.5670    5.9990 N.3    14  LEU14      -0.1231
      2  CA       131.0950  -22.1800    6.4600 C.3    14  LEU14       0.1693
      3  C        131.3090  -22.1220    7.9740 C.2    14  LEU14       0.2593
      4  O        131.9590  -21.2000    8.4680 O.2    14  LEU14      -0.2718
      5  CB       129.8590  -21.3540    6.0610 C.3    14  LEU14       0.0284
      6  CG       129.6810  -21.0470    4.5710 C.3    14  LEU14       0.0019
      7  CD1      128.2370  -20.7270    4.2550 C.3    14  LEU14       0.0001
      8  CD2      130.5820  -19.9040    4.1220 C.3    14  LEU14       0.0001
      9  N        130.7640  -23.1100    8.6810 N.am   15  GLY15      -0.1942
     10  CA       130.8570  -23.2370   10.1300 C.3    15  GLY15       0.2014
     11  C        129.7690  -24.1100   10.7250 C.2    15  GLY15       0.2639
     12  O        128.8370  -24.5130   10.0220 O.2    15  GLY15      -0.2714
     13  N        129.8850  -24.4090   12.0300 N.am   16  VAL16      -0.1963
     14  CA       128.9120  -25.2230   12.7610 C.3    16  VAL16       0.1727
     15  C        128.2810  -24.4250   13.9180 C.2    16  VAL16       0.2616
     16  O        128.9950  -23.8640   14.7530 O.2    16  VAL16      -0.2715
     17  CB       129.4420  -26.6400   13.1450 C.3    16  VAL16       0.0290
     18  CG1      130.6510  -26.5810   14.0810 C.3    16  VAL16       0.0023
     19  CG2      128.3370  -27.5260   13.7180 C.3    16  VAL16       0.0023
     20  N        126.9520  -24.3380   13.9030 N.am   17  GLY17      -0.1955
     21  CA       126.1810  -23.6040   14.8990 C.3    17  GLY17       0.1869
     22  C        125.6870  -24.4590   16.0460 C.2    17  GLY17       0.2309
     23  O        126.3040  -25.4760   16.3800 O.2    17  GLY17      -0.2863
     24  N        126.4250  -25.6660    8.7350 N.3    22  VAL22      -0.1245
     25  CA       126.1680  -24.6650    7.6920 C.3    22  VAL22       0.1561
     26  C        127.2360  -24.7490    6.5940 C.2    22  VAL22       0.2260
     27  O        128.4280  -24.6310    6.8830 O.2    22  VAL22      -0.2867
     28  CB       126.0010  -23.2330    8.2740 C.3    22  VAL22       0.0252
     29  CG1      125.6980  -22.2120    7.1780 C.3    22  VAL22       0.0019
     30  CG2      124.9110  -23.2040    9.3380 C.3    22  VAL22       0.0019
     31  N        123.3940  -20.0790    1.7250 N.3    35  ALA35      -0.1245
     32  CA       123.8670  -20.8050    2.9010 C.3    35  ALA35       0.1562
     33  C        122.8890  -21.9380    3.2050 C.2    35  ALA35       0.2260
     34  O        121.6800  -21.7010    3.2970 O.2    35  ALA35      -0.2867
     35  CB       123.9840  -19.8670    4.0880 C.3    35  ALA35       0.0290
     36  N        121.8960  -24.9030    5.8590 N.3    37  LYS37      -0.1245
     37  CA       121.9880  -25.4560    7.2110 C.3    37  LYS37       0.1561
     38  C        121.3800  -26.8600    7.1810 C.2    37  LYS37       0.2260
     39  O        120.1940  -27.0090    6.8720 O.2    37  LYS37      -0.2867
     40  CB       121.2660  -24.5440    8.2220 C.3    37  LYS37       0.0271
     41  CG       121.5160  -24.9100    9.6860 C.3    37  LYS37       0.0035
     42  CD       121.1490  -23.7760   10.6400 C.3    37  LYS37       0.0206
     43  CE       119.7210  -23.8420   11.1290 C.3    37  LYS37       0.1093
     44  NZ       119.3810  -22.6760   11.9860 N.3    37  LYS37      -0.1314
     45  N        119.0200  -12.7850    8.6000 N.3    69  ILE69      -0.1245
     46  CA       119.2380  -13.7130    7.4820 C.3    69  ILE69       0.1561
     47  C        117.9040  -14.2780    6.9760 C.2    69  ILE69       0.2260
     48  O        117.1840  -14.9410    7.7280 O.2    69  ILE69      -0.2867
     49  CB       120.3000  -14.8120    7.8180 C.3    69  ILE69       0.0252
     50  CG1      121.7280  -14.2170    8.0120 C.3    69  ILE69       0.0019
     51  CG2      120.2940  -15.9760    6.8060 C.3    69  ILE69       0.0019
     52  CD1      122.4740  -13.6300    6.7300 C.3    69  ILE69       0.0001
     53  N        119.1420  -20.5590    2.9100 N.3    85  MET85      -0.1230
     54  CA       119.0410  -19.1650    3.3500 C.3    85  MET85       0.1702
     55  C        120.0570  -18.2200    2.6880 C.2    85  MET85       0.2592
     56  O        120.9640  -18.6790    1.9900 O.2    85  MET85      -0.2718
     57  CB       119.0350  -19.0530    4.8920 C.3    85  MET85       0.0401
     58  CG       120.2710  -19.6210    5.5710 C.3    85  MET85       0.0596
     59  SD       120.0940  -19.7220    7.3680 S.3    85  MET85      -0.1393
     60  CE       119.2370  -21.2580    7.5230 C.3    85  MET85       0.0692
     61  N        119.8770  -16.8980    2.8990 N.am   86  GLU86      -0.1966
     62  CA       120.6930  -15.8050    2.3590 C.3    86  GLU86       0.1733
     63  C        122.1680  -15.9160    2.7510 C.2    86  GLU86       0.2616
     64  O        122.4770  -16.0680    3.9330 O.2    86  GLU86      -0.2715
     65  CB       120.1140  -14.4520    2.8150 C.3    86  GLU86       0.0429
     66  CG       120.6960  -13.2370    2.1080 C.3    86  GLU86       0.1163
     67  CD       120.2760  -11.8780    2.6390 C.2    86  GLU86       0.3649
     68  OE1      119.2960  -11.8040    3.4180 O.co2  86  GLU86      -0.2457
     69  OE2      120.9240  -10.8770    2.2580 O.co2  86  GLU86      -0.2457
     70  N        123.0690  -15.8300    1.7540 N.am   87  TYR87      -0.1960
     71  CA       124.5170  -15.8820    1.9630 C.3    87  TYR87       0.1771
     72  C        125.1070  -14.4760    1.9950 C.2    87  TYR87       0.2619
     73  O        124.7590  -13.6370    1.1610 O.2    87  TYR87      -0.2715
     74  CB       125.2160  -16.7490    0.8950 C.3    87  TYR87       0.0574
     75  CG       126.7310  -16.7200    0.9530 C.ar   87  TYR87      -0.0198
     76  CD1      127.4260  -17.4380    1.9220 C.ar   87  TYR87      -0.0009
     77  CD2      127.4690  -15.9760    0.0370 C.ar   87  TYR87      -0.0009
     78  CE1      128.8180  -17.4020    1.9900 C.ar   87  TYR87       0.0417
     79  CE2      128.8620  -15.9360    0.0920 C.ar   87  TYR87       0.0417
     80  CZ       129.5330  -16.6510    1.0700 C.ar   87  TYR87       0.1957
     81  OH       130.9060  -16.6220    1.1230 O.3    87  TYR87      -0.2866
     82  N        126.0160  -14.2350    2.9510 N.am   88  VAL88      -0.1963
     83  CA       126.7060  -12.9560    3.1270 C.3    88  VAL88       0.1727
     84  C        128.2300  -13.1510    3.0630 C.2    88  VAL88       0.2616
     85  O        128.8020  -13.8670    3.8890 O.2    88  VAL88      -0.2715
     86  CB       126.2100  -12.1380    4.3540 C.3    88  VAL88       0.0290
     87  CG1      124.8320  -11.5360    4.0910 C.3    88  VAL88       0.0023
     88  CG2      126.1940  -12.9740    5.6310 C.3    88  VAL88       0.0023
     89  N        128.8640  -12.5610    2.0310 N.am   89  SER89      -0.1950
     90  CA       130.2980  -12.6730    1.7320 C.3    89  SER89       0.1924
     91  C        131.2660  -12.1090    2.7800 C.2    89  SER89       0.2314
     92  O        132.3780  -12.6260    2.9070 O.2    89  SER89      -0.2863
     93  CB       130.6060  -12.0860    0.3580 C.3    89  SER89       0.2116
     94  OG       130.2800  -10.7070    0.2970 O.3    89  SER89      -0.2180
     95  N        131.3430  -12.2310    6.0470 N.3    91  GLY91      -0.1210
     96  CA       131.6530  -13.1250    7.1580 C.3    91  GLY91       0.1956
     97  C        131.1820  -12.6200    8.5070 C.2    91  GLY91       0.2611
     98  O        130.2370  -11.8310    8.5820 O.2    91  GLY91      -0.2717
     99  N        131.8390  -13.0840    9.5840 N.am   92  GLU92      -0.1979
    100  CA       131.5220  -12.7260   10.9710 C.3    92  GLU92       0.1602
    101  C        131.9300  -11.2960   11.3200 C.2    92  GLU92       0.2287
    102  O        132.9060  -10.7820   10.7690 O.2    92  GLU92      -0.2864
    103  CB       132.2220  -13.6890   11.9450 C.3    92  GLU92       0.0415
    104  CG       131.6030  -15.0720   12.0360 C.3    92  GLU92       0.1163
    105  CD       132.4160  -16.0650   12.8450 C.2    92  GLU92       0.3649
    106  OE1      132.5670  -15.8600   14.0710 O.co2  92  GLU92      -0.2457
    107  OE2      132.9030  -17.0540   12.2510 O.co2  92  GLU92      -0.2457
    108  N        126.0680  -12.3380   19.9680 N.3   133  LYS133     -0.1245
    109  CA       127.5190  -12.1390   20.0510 C.3   133  LYS133      0.1561
    110  C        128.0750  -11.7400   18.6650 C.2   133  LYS133      0.2260
    111  O        127.4390  -12.0910   17.6670 O.2   133  LYS133     -0.2867
    112  CB       128.2140  -13.4130   20.5910 C.3   133  LYS133      0.0271
    113  CG       127.9090  -14.7050   19.8290 C.3   133  LYS133      0.0035
    114  CD       128.3890  -15.9290   20.5920 C.3   133  LYS133      0.0206
    115  CE       127.9860  -17.2120   19.9100 C.3   133  LYS133      0.1093
    116  NZ       128.3440  -18.4020   20.7240 N.3   133  LYS133     -0.1314
    117  N        130.1410  -13.1130   16.8900 N.3   135  GLU135     -0.1231
    118  CA       130.3360  -14.3660   16.1590 C.3   135  GLU135      0.1699
    119  C        129.0310  -14.7340   15.4370 C.2   135  GLU135      0.2592
    120  O        129.0730  -15.2390   14.3150 O.2   135  GLU135     -0.2718
    121  CB       130.7570  -15.5040   17.1090 C.3   135  GLU135      0.0402
    122  CG       132.1330  -15.3360   17.7330 C.3   135  GLU135      0.1161
    123  CD       132.1350  -14.6750   19.0970 C.2   135  GLU135      0.3649
    124  OE1      131.7800  -13.4770   19.1820 O.co2 135  GLU135     -0.2457
    125  OE2      132.5080  -15.3520   20.0820 O.co2 135  GLU135     -0.2457
    126  N        127.8760  -14.4640   16.0840 N.am  136  ASN136     -0.1974
    127  CA       126.5390  -14.7290   15.5490 C.3   136  ASN136      0.1688
    128  C        126.0230  -13.6230   14.6210 C.2   136  ASN136      0.2292
    129  O        125.1160  -13.8720   13.8230 O.2   136  ASN136     -0.2864
    130  CB       125.5450  -15.0250   16.6760 C.3   136  ASN136      0.1181
    131  CG       125.4390  -16.4870   17.0560 C.2   136  ASN136      0.2629
    132  OD1      126.2670  -17.3310   16.6880 O.2   136  ASN136     -0.2716
    133  ND2      124.4040  -16.8200   17.8080 N.am  136  ASN136     -0.0877
    134  N        126.5230  -11.3720   11.4380 N.3   138  LEU138     -0.1245
    135  CA       127.2150  -11.4640   10.1510 C.3   138  LEU138      0.1561
    136  C        127.2570  -10.1360    9.3910 C.2   138  LEU138      0.2260
    137  O        126.4680   -9.2340    9.6720 O.2   138  LEU138     -0.2867
    138  CB       126.5970  -12.5700    9.2790 C.3   138  LEU138      0.0270
    139  CG       126.8120  -14.0180    9.7270 C.3   138  LEU138      0.0019
    140  CD1      125.7480  -14.9140    9.1530 C.3   138  LEU138      0.0001
    141  CD2      128.1880  -14.5330    9.3250 C.3   138  LEU138      0.0001
    142  N        122.0060  -14.0370   12.7330 N.3   148  ALA148     -0.1231
    143  CA       121.8920  -15.4670   12.4390 C.3   148  ALA148      0.1694
    144  C        121.9300  -16.3250   13.7150 C.2   148  ALA148      0.2592
    145  O        122.1380  -15.7940   14.8090 O.2   148  ALA148     -0.2718
    146  CB       122.9970  -15.8890   11.4820 C.3   148  ALA148      0.0304
    147  N        121.7210  -17.6540   13.5580 N.am  149  ASP149     -0.1974
    148  CA       121.7060  -18.6760   14.6100 C.3   149  ASP149      0.1709
    149  C        120.5770  -18.4810   15.6270 C.2   149  ASP149      0.2293
    150  O        120.7950  -17.9710   16.7300 O.2   149  ASP149     -0.2864
    151  CB       123.0930  -18.8620   15.2730 C.3   149  ASP149      0.1436
    152  CG       123.4610  -20.2960   15.6210 C.2   149  ASP149      0.3671
    153  OD1      122.5490  -21.0800   15.9730 O.co2 149  ASP149     -0.2456
    154  OD2      124.6680  -20.6220   15.5850 O.co2 149  ASP149     -0.2456
@<TRIPOS>BOND
     1    77    79   ar
     2    77    75   ar
     3    79    80   ar
     4    94    93    1
     5    93    90    1
     6    74    75    1
     7    74    71    1
     8    75    76   ar
     9    80    81    1
    10    80    78   ar
    11    73    72    2
    12    31    32    1
    13    90    89    1
    14    90    91    1
    15    70    71    1
    16    70    63   am
    17    76    78   ar
    18    71    72    1
    19    56    55    2
    20    72    82   am
    21    89    84   am
    22    66    67    1
    23    66    65    1
    24    69    67   ar
    25    62    63    1
    26    62    65    1
    27    62    61    1
    28    67    68   ar
    29    55    61   am
    30    55    54    1
    31    63    64    2
    32    91    92    2
    33    32    33    1
    34    32    35    1
    35    53    54    1
    36    82    83    1
    37    84    83    1
    38    84    85    2
    39    83    86    1
    40    33    34    2
    41    54    57    1
    42    87    86    1
    43     8     6    1
    44     7     6    1
    45    86    88    1
    46     6     5    1
    47    57    58    1
    48    58    59    1
    49    36    37    1
    50     1     2    1
    51    95    96    1
    52     5     2    1
    53     2     3    1
    54    26    27    2
    55    26    25    1
    56    52    50    1
    57    51    49    1
    58    39    38    2
    59    47    46    1
    60    47    48    2
    61    96    97    1
    62    29    28    1
    63    38    37    1
    64    37    40    1
    65    59    60    1
    66    46    49    1
    67    46    45    1
    68    25    28    1
    69    25    24    1
    70    49    50    1
    71     3     4    2
    72     3     9   am
    73    40    41    1
    74    28    30    1
    75    97    98    2
    76    97    99   am
    77     9    10    1
    78   140   139    1
    79   138   139    1
    80   138   135    1
    81   141   139    1
    82   136   137    2
    83   136   135    1
    84    99   100    1
    85    41    42    1
    86    12    11    2
    87    10    11    1
    88   135   134    1
    89    42    43    1
    90    11    13   am
    91   102   101    2
    92   100   101    1
    93   100   103    1
    94    43    44    1
    95   146   143    1
    96   103   104    1
    97    13    14    1
    98   104   105    1
    99   107   105   ar
   100   143   142    1
   101   143   144    1
   102    14    17    1
   103    14    15    1
   104   105   106   ar
   105    17    19    1
   106    17    18    1
   107   147   144   am
   108   147   148    1
   109   144   145    2
   110   129   128    2
   111    20    15   am
   112    20    21    1
   113    15    16    2
   114   120   119    2
   115   148   151    1
   116   148   149    1
   117   128   127    1
   118    21    22    1
   119   151   152    1
   120   119   126   am
   121   119   118    1
   122   127   126    1
   123   127   130    1
   124   154   152   ar
   125   152   153   ar
   126   149   150    2
   127    22    23    2
   128   118   117    1
   129   118   121    1
   130   130   131    1
   131   132   131    2
   132   131   133   am
   133   121   122    1
   134   111   110    2
   135   122   123    1
   136   110   109    1
   137   123   124   ar
   138   123   125   ar
   139   113   112    1
   140   113   114    1
   141   115   114    1
   142   115   116    1
   143   108   109    1
   144   109   112    1
