@<TRIPOS>MOLECULE
tmp/4zhxA01.pdb
 107 99 0 0 0
SMALL
GASTEIGER

@<TRIPOS>ATOM
      1  N        129.8760  -32.9540   -7.0780 N.3     2  ARG2       -0.1231
      2  CA       128.8500  -33.8850   -7.5550 C.3     2  ARG2        0.1694
      3  C        127.5600  -33.7900   -6.7250 C.2     2  ARG2        0.2591
      4  O        126.4690  -33.9320   -7.2840 O.2     2  ARG2       -0.2718
      5  CB       129.4020  -35.3280   -7.5910 C.3     2  ARG2        0.0321
      6  CG       128.5140  -36.3730   -8.2910 C.3     2  ARG2        0.0489
      7  CD       128.3080  -36.1330   -9.7820 C.3     2  ARG2        0.2205
      8  NE       129.5370  -36.3160  -10.5570 N.pl3   2  ARG2       -0.0865
      9  CZ       129.6410  -36.0890  -11.8630 C.cat   2  ARG2        0.5346
     10  NH1      128.5910  -35.6640  -12.5570 N.pl3   2  ARG2        0.1354
     11  NH2      130.7960  -36.2820  -12.4860 N.pl3   2  ARG2        0.1354
     12  N        127.6890  -33.5460   -5.4030 N.am    3  VAL3       -0.1980
     13  CA       126.5660  -33.4180   -4.4650 C.3     3  VAL3        0.1595
     14  C        125.6850  -32.1910   -4.7750 C.2     3  VAL3        0.2287
     15  O        126.1750  -31.0590   -4.7840 O.2     3  VAL3       -0.2864
     16  CB       126.9960  -33.5440   -2.9700 C.3     3  VAL3        0.0276
     17  CG1      128.0790  -32.5330   -2.5890 C.3     3  VAL3        0.0022
     18  CG2      125.7980  -33.4520   -2.0290 C.3     3  VAL3        0.0022
     19  N        126.6710  -28.2380   -3.2650 N.3    10  LEU10      -0.1231
     20  CA       127.2100  -28.0030   -1.9230 C.3    10  LEU10       0.1693
     21  C        128.7370  -27.9670   -1.9370 C.2    10  LEU10       0.2593
     22  O        129.3750  -28.8910   -2.4480 O.2    10  LEU10      -0.2718
     23  CB       126.6920  -29.0500   -0.9170 C.3    10  LEU10       0.0284
     24  CG       125.1910  -29.0330   -0.5980 C.3    10  LEU10       0.0019
     25  CD1      124.7500  -30.3580   -0.0200 C.3    10  LEU10       0.0001
     26  CD2      124.8290  -27.9030    0.3600 C.3    10  LEU10       0.0001
     27  N        129.2970  -26.8910   -1.3880 N.am   11  GLY11      -0.1942
     28  CA       130.7370  -26.6700   -1.3170 C.3    11  GLY11       0.2014
     29  C        131.3140  -26.8350    0.0730 C.2    11  GLY11       0.2639
     30  O        130.8840  -27.7130    0.8260 O.2    11  GLY11      -0.2714
     31  N        132.2990  -25.9850    0.4160 N.am   12  ASP12      -0.1957
     32  CA       132.9960  -25.9960    1.7040 C.3    12  ASP12       0.1840
     33  C        132.1060  -25.5990    2.8850 C.2    12  ASP12       0.2622
     34  O        131.1250  -24.8750    2.7090 O.2    12  ASP12      -0.2715
     35  CB       134.2550  -25.1150    1.6480 C.3    12  ASP12       0.1450
     36  CG       135.3430  -25.6610    0.7450 C.2    12  ASP12       0.3671
     37  OD1      136.0050  -26.6470    1.1400 O.co2  12  ASP12      -0.2456
     38  OD2      135.5440  -25.0940   -0.3500 O.co2  12  ASP12      -0.2456
     39  N        132.4570  -26.0840    4.0900 N.am   13  THR13      -0.1951
     40  CA       131.7370  -25.8020    5.3320 C.3    13  THR13       0.1897
     41  C        132.0360  -24.3700    5.7920 C.2    13  THR13       0.2313
     42  O        133.2050  -24.0030    5.9460 O.2    13  THR13      -0.2863
     43  CB       132.0790  -26.8610    6.3990 C.3    13  THR13       0.1794
     44  OG1      131.8710  -28.1670    5.8580 O.3    13  THR13      -0.2208
     45  CG2      131.2640  -26.7000    7.6760 C.3    13  THR13       0.0378
     46  N        124.9640  -28.3050   10.6790 N.3    21  LYS21      -0.1245
     47  CA       126.1410  -27.7420   10.0120 C.3    21  LYS21       0.1561
     48  C        125.7440  -26.8220    8.8560 C.2    21  LYS21       0.2260
     49  O        124.8400  -27.1570    8.0880 O.2    21  LYS21      -0.2867
     50  CB       127.0600  -28.8690    9.5170 C.3    21  LYS21       0.0271
     51  CG       128.5380  -28.5060    9.5480 C.3    21  LYS21       0.0035
     52  CD       129.4260  -29.7230    9.7960 C.3    21  LYS21       0.0206
     53  CE       130.0100  -30.3010    8.5310 C.3    21  LYS21       0.1093
     54  NZ       130.8140  -31.5210    8.8010 N.3    21  LYS21      -0.1314
     55  N        126.7940  -24.9670    5.3390 N.3    23  LYS23      -0.1245
     56  CA       127.6600  -25.1100    4.1630 C.3    23  LYS23       0.1561
     57  C        127.2570  -24.1770    3.0180 C.2    23  LYS23       0.2260
     58  O        126.0810  -23.8310    2.8890 O.2    23  LYS23      -0.2867
     59  CB       127.6530  -26.5670    3.6710 C.3    23  LYS23       0.0271
     60  CG       128.2870  -27.5470    4.6460 C.3    23  LYS23       0.0035
     61  CD       127.8660  -28.9740    4.3600 C.3    23  LYS23       0.0206
     62  CE       129.0240  -29.8610    3.9870 C.3    23  LYS23       0.1093
     63  NZ       129.9630  -30.0810    5.1150 N.3    23  LYS23      -0.1314
     64  N        122.2020  -27.8880    7.4590 N.3    38  ILE38      -0.1245
     65  CA       121.7560  -29.2830    7.4230 C.3    38  ILE38       0.1561
     66  C        121.4360  -29.8410    8.8100 C.2    38  ILE38       0.2260
     67  O        122.3440  -30.0820    9.6080 O.2    38  ILE38      -0.2867
     68  CB       122.6910  -30.2170    6.5980 C.3    38  ILE38       0.0252
     69  CG1      123.1760  -29.5410    5.2910 C.3    38  ILE38       0.0019
     70  CG2      121.9970  -31.5600    6.3170 C.3    38  ILE38       0.0019
     71  CD1      124.3840  -30.1970    4.6150 C.3    38  ILE38       0.0001
     72  N        120.0870  -32.9910   10.8490 N.3    40  ASN40      -0.1240
     73  CA       119.9040  -34.4400   10.7600 C.3    40  ASN40       0.1653
     74  C        118.6520  -34.8460   11.5370 C.2    40  ASN40       0.2266
     75  O        118.5430  -34.5270   12.7220 O.2    40  ASN40      -0.2867
     76  CB       121.1420  -35.1780   11.2770 C.3    40  ASN40       0.1155
     77  CG       121.1910  -36.6270   10.8710 C.2    40  ASN40       0.2627
     78  OD1      120.5470  -37.4900   11.4740 O.2    40  ASN40      -0.2716
     79  ND2      121.9630  -36.9260    9.8390 N.am   40  ASN40      -0.0877
     80  N        119.2660  -36.8170   14.7460 N.3    43  LYS43      -0.1245
     81  CA       119.8730  -35.9420   15.7560 C.3    43  LYS43       0.1561
     82  C        118.8120  -35.1000   16.4840 C.2    43  LYS43       0.2260
     83  O        118.9500  -34.8530   17.6830 O.2    43  LYS43      -0.2867
     84  CB       120.9330  -35.0350   15.1050 C.3    43  LYS43       0.0271
     85  CG       121.9180  -34.4080   16.0860 C.3    43  LYS43       0.0035
     86  CD       122.7770  -33.3510   15.4060 C.3    43  LYS43       0.0206
     87  CE       123.6550  -32.6130   16.3860 C.3    43  LYS43       0.1093
     88  NZ       124.3950  -31.5020   15.7320 N.3    43  LYS43      -0.1314
     89  N        117.5820  -36.0320    6.2710 N.3    80  ASP80      -0.1239
     90  CA       118.0320  -34.6990    6.6990 C.3    80  ASP80       0.1674
     91  C        117.0760  -33.5540    6.3160 C.2    80  ASP80       0.2266
     92  O        116.1750  -33.7400    5.4970 O.2    80  ASP80      -0.2867
     93  CB       119.4460  -34.4140    6.1540 C.3    80  ASP80       0.1410
     94  CG       120.5200  -35.3560    6.6600 C.2    80  ASP80       0.3668
     95  OD1      120.6780  -36.4460    6.0700 O.co2  80  ASP80      -0.2456
     96  OD2      121.2150  -34.9950    7.6320 O.co2  80  ASP80      -0.2456
     97  N        117.2650  -29.6170    4.8970 N.3    82  PHE82      -0.1241
     98  CA       118.1190  -28.6270    4.2380 C.3    82  PHE82       0.1605
     99  C        117.4850  -27.2370    4.2480 C.2    82  PHE82       0.2264
    100  O        116.5210  -26.9900    3.5220 O.2    82  PHE82      -0.2867
    101  CB       118.4760  -29.0770    2.8080 C.3    82  PHE82       0.0534
    102  CG       119.3100  -30.3350    2.7340 C.ar   82  PHE82      -0.0203
    103  CD1      118.7080  -31.5870    2.7000 C.ar   82  PHE82      -0.0042
    104  CD2      120.6960  -30.2670    2.6780 C.ar   82  PHE82      -0.0042
    105  CE1      119.4800  -32.7490    2.6360 C.ar   82  PHE82      -0.0003
    106  CE2      121.4670  -31.4310    2.6070 C.ar   82  PHE82      -0.0003
    107  CZ       120.8540  -32.6640    2.5860 C.ar   82  PHE82      -0.0000
@<TRIPOS>BOND
     1    10     9    1
     2    11     9    1
     3     9     8    2
     4     8     7    1
     5     7     6    1
     6     6     5    1
     7     5     2    1
     8     2     1    1
     9     2     3    1
    10     4     3    2
    11     3    12   am
    12    12    13    1
    13    15    14    2
    14    14    13    1
    15    13    16    1
    16    19    20    1
    17    16    17    1
    18    16    18    1
    19    22    21    2
    20    21    20    1
    21    21    27   am
    22    20    23    1
    23    27    28    1
    24    28    29    1
    25    23    24    1
    26    24    25    1
    27    24    26    1
    28    38    36   ar
    29    29    31   am
    30    29    30    2
    31    31    32    1
    32    36    37   ar
    33    36    35    1
    34    35    32    1
    35    32    33    1
    36   107   106   ar
    37   107   105   ar
    38   106   104   ar
    39   105   103   ar
    40   104   102   ar
    41   103   102   ar
    42    34    33    2
    43   102   101    1
    44   101    98    1
    45    33    39   am
    46    58    57    2
    47    57    56    1
    48   100    99    2
    49    59    56    1
    50    59    60    1
    51    62    61    1
    52    62    63    1
    53    39    40    1
    54    56    55    1
    55    98    99    1
    56    98    97    1
    57    61    60    1
    58    71    69    1
    59    69    68    1
    60    40    41    1
    61    40    43    1
    62    92    91    2
    63    41    42    2
    64    44    43    1
    65    95    94   ar
    66    93    94    1
    67    93    90    1
    68    89    90    1
    69    91    90    1
    70    70    68    1
    71    43    45    1
    72    68    65    1
    73    94    96   ar
    74    65    64    1
    75    65    66    1
    76    49    48    2
    77    53    54    1
    78    53    52    1
    79    66    67    2
    80    48    47    1
    81    50    51    1
    82    50    47    1
    83    51    52    1
    84    79    77   am
    85    47    46    1
    86    73    72    1
    87    73    76    1
    88    73    74    1
    89    77    76    1
    90    77    78    2
    91    74    75    2
    92    80    81    1
    93    84    81    1
    94    84    85    1
    95    86    85    1
    96    86    87    1
    97    88    87    1
    98    81    82    1
    99    82    83    2
