@<TRIPOS>MOLECULE
tmp/4zhxE01.pdb
 124 121 0 0 0
SMALL
GASTEIGER

@<TRIPOS>ATOM
      1  N         84.6480    7.6480   38.0410 N.3    44  ARG44      -0.1245
      2  CA        83.3190    8.2490   38.2050 C.3    44  ARG44       0.1563
      3  C         82.1690    7.2330   38.2340 C.2    44  ARG44       0.2260
      4  O         81.1250    7.5180   38.8250 O.2    44  ARG44      -0.2867
      5  CB        83.0830    9.3520   37.1580 C.3    44  ARG44       0.0307
      6  CG        83.9740   10.5750   37.3690 C.3    44  ARG44       0.0489
      7  CD        84.4000   11.2170   36.0650 C.3    44  ARG44       0.2205
      8  NE        83.5340   12.3380   35.6950 N.pl3  44  ARG44      -0.0865
      9  CZ        83.8600   13.6200   35.8300 C.cat  44  ARG44       0.5346
     10  NH1       83.0080   14.5690   35.4670 N.pl3  44  ARG44       0.1354
     11  NH2       85.0430   13.9640   36.3270 N.pl3  44  ARG44       0.1354
     12  N         76.7450    4.7850   39.4650 N.3    61  THR61      -0.1203
     13  CA        77.2140    6.1420   39.1780 C.3    61  THR61       0.1994
     14  C         77.0460    7.0500   40.4040 C.2    61  THR61       0.2618
     15  O         76.6000    6.5880   41.4580 O.2    61  THR61      -0.2717
     16  CB        76.4740    6.7070   37.9470 C.3    61  THR61       0.1784
     17  OG1       75.0710    6.7460   38.2130 O.3    61  THR61      -0.2211
     18  CG2       76.7430    5.9160   36.6730 C.3    61  THR61       0.0376
     19  N         77.3960    8.3460   40.2570 N.am   62  ILE62      -0.1965
     20  CA        77.2640    9.3540   41.3140 C.3    62  ILE62       0.1727
     21  C         75.7720    9.6700   41.5520 C.2    62  ILE62       0.2616
     22  O         75.3940   10.0130   42.6730 O.2    62  ILE62      -0.2715
     23  CB        78.1380   10.6150   41.0380 C.3    62  ILE62       0.0290
     24  CG1       79.5990   10.2180   40.6930 C.3    62  ILE62       0.0022
     25  CG2       78.1070   11.5810   42.2310 C.3    62  ILE62       0.0023
     26  CD1       80.3980   11.2420   39.8550 C.3    62  ILE62       0.0001
     27  N         74.9250    9.4860   40.5100 N.am   63  THR63      -0.1951
     28  CA        73.4660    9.6770   40.5500 C.3    63  THR63       0.1897
     29  C         72.8400    8.8000   41.6510 C.2    63  THR63       0.2313
     30  O         71.9060    9.2420   42.3220 O.2    63  THR63      -0.2863
     31  CB        72.8600    9.4320   39.1530 C.3    63  THR63       0.1794
     32  OG1       73.5630   10.2250   38.1950 O.3    63  THR63      -0.2208
     33  CG2       71.3710    9.7610   39.0810 C.3    63  THR63       0.0378
     34  N         69.2570    7.9130   27.0580 N.3   123  LYS123     -0.1231
     35  CA        69.5450    9.1020   27.8790 C.3   123  LYS123      0.1693
     36  C         70.5760    8.8460   28.9970 C.2   123  LYS123      0.2592
     37  O         70.4910    9.4230   30.0850 O.2   123  LYS123     -0.2718
     38  CB        68.2590    9.8020   28.3730 C.3   123  LYS123      0.0285
     39  CG        67.5250   10.5580   27.2730 C.3   123  LYS123      0.0035
     40  CD        66.3240   11.3210   27.8030 C.3   123  LYS123      0.0206
     41  CE        65.5750   12.0130   26.6920 C.3   123  LYS123      0.1093
     42  NZ        64.3910   12.7530   27.2010 N.3   123  LYS123     -0.1314
     43  N         71.5640    7.9830   28.6970 N.am  124  ILE124     -0.1966
     44  CA        72.6580    7.6070   29.5980 C.3   124  ILE124      0.1727
     45  C         73.9630    8.2950   29.1890 C.2   124  ILE124      0.2616
     46  O         74.1270    8.6550   28.0220 O.2   124  ILE124     -0.2715
     47  CB        72.8160    6.0640   29.7470 C.3   124  ILE124      0.0290
     48  CG1       72.9400    5.3510   28.3770 C.3   124  ILE124      0.0022
     49  CG2       71.6830    5.4740   30.5960 C.3   124  ILE124      0.0023
     50  CD1       73.8520    4.1470   28.3700 C.3   124  ILE124      0.0001
     51  N         74.8810    8.4830   30.1490 N.am  125  HIS125     -0.1959
     52  CA        76.1650    9.1400   29.8990 C.3   125  HIS125      0.1787
     53  C         77.3430    8.1700   29.8760 C.2   125  HIS125      0.2620
     54  O         78.4130    8.5230   29.3730 O.2   125  HIS125     -0.2715
     55  CB        76.4000   10.2830   30.9000 C.3   125  HIS125      0.0785
     56  CG        75.2700   11.2610   30.9590 C.ar  125  HIS125      0.0821
     57  ND1       74.5240   11.4270   32.1080 N.ar  125  HIS125     -0.2267
     58  CD2       74.7580   12.0520   29.9870 C.ar  125  HIS125      0.1154
     59  CE1       73.6040   12.3300   31.8120 C.ar  125  HIS125      0.1986
     60  NE2       73.7100   12.7390   30.5480 N.ar  125  HIS125     -0.2212
     61  N         77.1450    6.9480   30.4070 N.am  126  ARG126     -0.1977
     62  CA        78.1790    5.9160   30.4590 C.3   126  ARG126      0.1597
     63  C         77.6870    4.5660   29.9560 C.2   126  ARG126      0.2287
     64  O         76.6750    4.0520   30.4360 O.2   126  ARG126     -0.2864
     65  CB        78.8150    5.8390   31.8530 C.3   126  ARG126      0.0334
     66  CG        79.8070    6.9710   32.0610 C.3   126  ARG126      0.0492
     67  CD        80.4340    7.0140   33.4280 C.3   126  ARG126      0.2205
     68  NE        81.2410    8.2230   33.5950 N.pl3 126  ARG126     -0.0865
     69  CZ        80.7800    9.3740   34.0770 C.cat 126  ARG126      0.5346
     70  NH1       79.5120    9.4830   34.4580 N.pl3 126  ARG126      0.1354
     71  NH2       81.5820   10.4240   34.1790 N.pl3 126  ARG126      0.1354
     72  N         72.2040   17.0970   34.7050 N.3   200  SER200     -0.1217
     73  CA        73.5480   16.7380   35.1670 C.3   200  SER200      0.1889
     74  C         74.2940   17.8510   35.9070 C.2   200  SER200      0.2288
     75  O         75.1330   17.5470   36.7560 O.2   200  SER200     -0.2866
     76  CB        74.3900   16.2090   34.0130 C.3   200  SER200      0.2089
     77  OG        73.8760   14.9810   33.5270 O.3   200  SER200     -0.2183
     78  N         77.8240   20.6520   39.3580 N.3   216  SER216     -0.1202
     79  CA        77.5400   19.4370   38.5990 C.3   216  SER216      0.2020
     80  C         77.3920   18.2350   39.5340 C.2   216  SER216      0.2619
     81  O         77.6670   18.3510   40.7320 O.2   216  SER216     -0.2717
     82  CB        78.6300   19.1880   37.5590 C.3   216  SER216      0.2103
     83  OG        79.8980   18.9790   38.1590 O.3   216  SER216     -0.2182
     84  N         76.9530   17.0850   38.9860 N.am  217  LYS217     -0.1965
     85  CA        76.7780   15.8350   39.7280 C.3   217  LYS217      0.1728
     86  C         78.1060   15.2970   40.2750 C.2   217  LYS217      0.2616
     87  O         78.1090   14.6850   41.3390 O.2   217  LYS217     -0.2715
     88  CB        76.0730   14.7780   38.8680 C.3   217  LYS217      0.0311
     89  CG        74.5630   14.9520   38.7990 C.3   217  LYS217      0.0038
     90  CD        73.8990   13.8060   38.0570 C.3   217  LYS217      0.0206
     91  CE        72.4130   13.7740   38.3030 C.3   217  LYS217      0.1093
     92  NZ        71.7300   12.7970   37.4180 N.3   217  LYS217     -0.1314
     93  N         79.2310   15.5530   39.5680 N.am  218  PHE218     -0.1974
     94  CA        80.5750   15.1280   39.9760 C.3   218  PHE218      0.1639
     95  C         81.0490   15.8090   41.2720 C.2   218  PHE218      0.2290
     96  O         81.8390   15.2200   42.0090 O.2   218  PHE218     -0.2864
     97  CB        81.5900   15.3240   38.8310 C.3   218  PHE218      0.0560
     98  CG        83.0270   14.9880   39.1700 C.ar  218  PHE218     -0.0200
     99  CD1       83.4290   13.6680   39.3440 C.ar  218  PHE218     -0.0042
    100  CD2       83.9750   15.9920   39.3220 C.ar  218  PHE218     -0.0042
    101  CE1       84.7540   13.3600   39.6700 C.ar  218  PHE218     -0.0003
    102  CE2       85.3000   15.6830   39.6460 C.ar  218  PHE218     -0.0003
    103  CZ        85.6810   14.3690   39.8150 C.ar  218  PHE218     -0.0000
    104  N         82.2600   19.1250   30.1970 N.3   272  HIS272     -0.1226
    105  CA        81.0920   18.4640   29.6100 C.3   272  HIS272      0.1752
    106  C         80.0610   19.4340   29.0200 C.2   272  HIS272      0.2595
    107  O         79.2760   19.0160   28.1620 O.2   272  HIS272     -0.2718
    108  CB        80.4260   17.5110   30.6210 C.3   272  HIS272      0.0759
    109  CG        81.3600   16.5100   31.2310 C.ar  272  HIS272      0.0818
    110  ND1       81.8540   15.4430   30.5010 N.ar  272  HIS272     -0.2268
    111  CD2       81.8500   16.4410   32.4900 C.ar  272  HIS272      0.1154
    112  CE1       82.6340   14.7700   31.3310 C.ar  272  HIS272      0.1986
    113  NE2       82.6600   15.3300   32.5410 N.ar  272  HIS272     -0.2212
    114  N         80.0600   20.7170   29.4800 N.am  273  ARG273     -0.1980
    115  CA        79.1370   21.7310   28.9690 C.3   273  ARG273      0.1597
    116  C         79.7330   23.1320   28.8590 C.2   273  ARG273      0.2287
    117  O         80.7750   23.4220   29.4510 O.2   273  ARG273     -0.2864
    118  CB        77.7860   21.7230   29.7090 C.3   273  ARG273      0.0334
    119  CG        77.8610   21.9760   31.2120 C.3   273  ARG273      0.0492
    120  CD        76.5860   21.5440   31.9070 C.3   273  ARG273      0.2205
    121  NE        76.4870   20.0860   32.0140 N.pl3 273  ARG273     -0.0865
    122  CZ        75.6880   19.3270   31.2700 C.cat 273  ARG273      0.5346
    123  NH1       74.8930   19.8780   30.3600 N.pl3 273  ARG273      0.1354
    124  NH2       75.6760   18.0120   31.4300 N.pl3 273  ARG273      0.1354
@<TRIPOS>BOND
     1    41    42    1
     2    41    40    1
     3    34    35    1
     4    39    40    1
     5    39    38    1
     6    35    38    1
     7    35    36    1
     8    46    45    2
     9   107   106    2
    10    50    48    1
    11    48    47    1
    12    43    36   am
    13    43    44    1
    14   116   115    1
    15   116   117    2
    16   115   114    1
    17   115   118    1
    18    36    37    2
    19   106   114   am
    20   106   105    1
    21    45    44    1
    22    45    51   am
    23    54    53    2
    24    44    47    1
    25   105   104    1
    26   105   108    1
    27   118   119    1
    28    47    49    1
    29    53    52    1
    30    53    61   am
    31    52    51    1
    32    52    55    1
    33    63    64    2
    34    63    62    1
    35    58    60   ar
    36    58    56   ar
    37   123   122    1
    38    61    62    1
    39    62    65    1
    40   110   109   ar
    41   110   112   ar
    42    60    59   ar
    43   108   109    1
    44    55    56    1
    45    56    57   ar
    46   119   120    1
    47   109   111   ar
    48   122   124    1
    49   122   121    2
    50   112   113   ar
    51    59    57   ar
    52    65    66    1
    53   120   121    1
    54    66    67    1
    55   111   113   ar
    56    67    68    1
    57    77    76    1
    58    68    69    2
    59    76    73    1
    60    69    71    1
    61    69    70    1
    62    72    73    1
    63    73    74    1
    64    10     9    1
    65     8     9    2
    66     8     7    1
    67     9    11    1
    68    74    75    2
    69     7     6    1
    70    18    16    1
    71     5     6    1
    72     5     2    1
    73    92    91    1
    74    82    83    1
    75    82    79    1
    76    16    17    1
    77    16    13    1
    78     1     2    1
    79    90    91    1
    80    90    89    1
    81    32    31    1
    82     2     3    1
    83     3     4    2
    84    79    78    1
    85    79    80    1
    86    89    88    1
    87    97    98    1
    88    97    94    1
    89    88    85    1
    90    84    80   am
    91    84    85    1
    92    33    31    1
    93    31    28    1
    94    98   100   ar
    95    98    99   ar
    96    13    12    1
    97    13    14    1
    98   100   102   ar
    99    99   101   ar
   100    80    81    2
   101    93    94    1
   102    93    86   am
   103   102   103   ar
   104   101   103   ar
   105    85    86    1
   106    26    24    1
   107    94    95    1
   108    19    14   am
   109    19    20    1
   110    86    87    2
   111    14    15    2
   112    27    28    1
   113    27    21   am
   114    28    29    1
   115    24    23    1
   116    23    20    1
   117    23    25    1
   118    95    96    2
   119    20    21    1
   120    21    22    2
   121    29    30    2
