@<TRIPOS>MOLECULE
tmp/4zhzA01.pdb
 124 118 0 0 0
SMALL
GASTEIGER

@<TRIPOS>ATOM
      1  N         -1.4500  -44.6860   11.7790 N.3    29  TYR29      -0.1241
      2  CA        -1.3070  -44.5500   13.2260 C.3    29  TYR29       0.1605
      3  C         -1.7970  -45.7860   13.9750 C.2    29  TYR29       0.2264
      4  O         -1.8320  -45.8090   15.2070 O.2    29  TYR29      -0.2867
      5  CB        -1.9780  -43.2690   13.7360 C.3    29  TYR29       0.0534
      6  CG        -1.0240  -42.0980   13.7590 C.ar   29  TYR29      -0.0201
      7  CD1       -0.8430  -41.3020   12.6370 C.ar   29  TYR29      -0.0009
      8  CD2       -0.2810  -41.8080   14.8950 C.ar   29  TYR29      -0.0009
      9  CE1        0.0410  -40.2380   12.6510 C.ar   29  TYR29       0.0417
     10  CE2        0.6050  -40.7480   14.9190 C.ar   29  TYR29       0.0417
     11  CZ         0.7610  -39.9670   13.7960 C.ar   29  TYR29       0.1957
     12  OH         1.6430  -38.9120   13.8190 O.3    29  TYR29      -0.2866
     13  N        -12.8170  -40.3680   16.8600 N.3    39  LYS39      -0.1245
     14  CA       -11.4890  -39.9410   16.4490 C.3    39  LYS39       0.1561
     15  C        -11.4430  -39.6730   14.9520 C.2    39  LYS39       0.2260
     16  O        -10.8070  -38.7180   14.5030 O.2    39  LYS39      -0.2867
     17  CB       -10.4510  -40.9920   16.8290 C.3    39  LYS39       0.0271
     18  CG        -9.0450  -40.4480   16.8550 C.3    39  LYS39       0.0035
     19  CD        -8.2100  -41.1580   17.8990 C.3    39  LYS39       0.0206
     20  CE        -7.0110  -40.3110   18.2700 C.3    39  LYS39       0.1093
     21  NZ        -7.4390  -38.9370   18.6520 N.3    39  LYS39      -0.1314
     22  N        -10.3930  -36.0380   13.4840 N.3    43  ILE43      -0.1245
     23  CA        -9.3480  -35.8590   12.4830 C.3    43  ILE43       0.1561
     24  C         -9.9120  -35.1790   11.2340 C.2    43  ILE43       0.2260
     25  O         -9.2850  -34.2640   10.6770 O.2    43  ILE43      -0.2867
     26  CB        -8.6650  -37.1960   12.1370 C.3    43  ILE43       0.0252
     27  CG1       -7.8510  -37.6830   13.3380 C.3    43  ILE43       0.0019
     28  CG2       -7.7820  -37.0460   10.9030 C.3    43  ILE43       0.0019
     29  CD1       -7.4300  -39.1330   13.2640 C.3    43  ILE43       0.0001
     30  N          9.7140  -30.6810   15.7540 N.3    89  LYS89      -0.1231
     31  CA         9.7340  -32.0780   16.1860 C.3    89  LYS89       0.1693
     32  C          8.5400  -32.8170   15.6020 C.2    89  LYS89       0.2592
     33  O          8.6040  -34.0010   15.2680 O.2    89  LYS89      -0.2718
     34  CB         9.6470  -32.1250   17.7130 C.3    89  LYS89       0.0285
     35  CG         9.2440  -33.4730   18.2980 C.3    89  LYS89       0.0035
     36  CD         8.4400  -33.3040   19.5830 C.3    89  LYS89       0.0206
     37  CE         6.9450  -33.2010   19.3040 C.3    89  LYS89       0.1093
     38  NZ         6.3670  -34.5060   18.8790 N.3    89  LYS89      -0.1314
     39  N          7.4520  -32.0710   15.4790 N.am   90  PHE90      -0.1962
     40  CA         6.1390  -32.5720   15.1270 C.3    90  PHE90       0.1771
     41  C          5.8470  -32.0590   13.7330 C.2    90  PHE90       0.2619
     42  O          6.4270  -31.0610   13.3100 O.2    90  PHE90      -0.2715
     43  CB         5.1350  -31.9380   16.0830 C.3    90  PHE90       0.0574
     44  CG         5.2980  -30.4450   16.2000 C.ar   90  PHE90      -0.0200
     45  CD1        6.2450  -29.8990   17.0560 C.ar   90  PHE90      -0.0042
     46  CD2        4.5300  -29.5870   15.4310 C.ar   90  PHE90      -0.0042
     47  CE1        6.4180  -28.5370   17.1430 C.ar   90  PHE90      -0.0003
     48  CE2        4.6930  -28.2180   15.5240 C.ar   90  PHE90      -0.0003
     49  CZ         5.6360  -27.6940   16.3850 C.ar   90  PHE90      -0.0000
     50  N          4.9450  -32.7200   13.0180 N.am   91  LEU91      -0.1977
     51  CA         4.4330  -32.1470   11.7850 C.3    91  LEU91       0.1596
     52  C          3.4620  -31.0290   12.1400 C.2    91  LEU91       0.2287
     53  O          2.4070  -31.2780   12.7230 O.2    91  LEU91      -0.2864
     54  CB         3.7260  -33.2030   10.9390 C.3    91  LEU91       0.0297
     55  CG         4.6020  -34.0030    9.9790 C.3    91  LEU91       0.0022
     56  CD1        3.7590  -35.0050    9.2030 C.3    91  LEU91       0.0001
     57  CD2        5.3430  -33.0740    9.0230 C.3    91  LEU91       0.0001
     58  N          0.3250  -24.3730   14.2380 N.3   104  GLU104     -0.1245
     59  CA        -0.3700  -25.5490   14.7310 C.3   104  GLU104      0.1567
     60  C         -1.7990  -25.1640   15.0950 C.2   104  GLU104      0.2260
     61  O         -2.0360  -24.2540   15.9050 O.2   104  GLU104     -0.2867
     62  CB         0.3480  -26.1370   15.9450 C.3   104  GLU104      0.0388
     63  CG        -0.2110  -27.4730   16.3930 C.3   104  GLU104      0.1160
     64  CD        -0.0380  -28.5510   15.3410 C.2   104  GLU104      0.3649
     65  OE1        1.0170  -28.5690   14.6740 O.co2 104  GLU104     -0.2457
     66  OE2       -0.9570  -29.3770   15.1750 O.co2 104  GLU104     -0.2457
     67  N         -6.4140  -26.6000   26.8800 N.3   115  TYR115     -0.1241
     68  CA        -6.0340  -27.2890   25.6520 C.3   115  TYR115      0.1605
     69  C         -4.8380  -26.6110   25.0010 C.2   115  TYR115      0.2264
     70  O         -3.9630  -27.2770   24.4470 O.2   115  TYR115     -0.2867
     71  CB        -7.2040  -27.3390   24.6660 C.3   115  TYR115      0.0534
     72  CG        -6.9030  -28.1680   23.4400 C.ar  115  TYR115     -0.0201
     73  CD1       -7.1620  -29.5300   23.4200 C.ar  115  TYR115     -0.0009
     74  CD2       -6.3490  -27.5910   22.3060 C.ar  115  TYR115     -0.0009
     75  CE1       -6.8840  -30.2950   22.3020 C.ar  115  TYR115      0.0417
     76  CE2       -6.0650  -28.3470   21.1840 C.ar  115  TYR115      0.0417
     77  CZ        -6.3350  -29.6970   21.1880 C.ar  115  TYR115      0.1957
     78  OH        -6.0560  -30.4500   20.0720 O.3   115  TYR115     -0.2866
     79  N         -1.2600  -28.3200   24.3570 N.3   119  LYS119     -0.1245
     80  CA        -0.7570  -28.3340   22.9850 C.3   119  LYS119      0.1561
     81  C          0.6510  -27.7500   22.9160 C.2   119  LYS119      0.2260
     82  O          1.5670  -28.3440   22.3230 O.2   119  LYS119     -0.2867
     83  CB        -1.7000  -27.5330   22.0830 C.3   119  LYS119      0.0271
     84  CG        -1.4890  -27.7510   20.6000 C.3   119  LYS119      0.0035
     85  CD        -1.4000  -29.2320   20.2900 C.3   119  LYS119      0.0206
     86  CE        -1.8770  -29.5230   18.8880 C.3   119  LYS119      0.1093
     87  NZ        -3.3580  -29.4570   18.8000 N.3   119  LYS119     -0.1314
     88  N          3.0330  -29.9210   24.4570 N.3   122  LYS122     -0.1231
     89  CA         3.1840  -31.1190   23.6410 C.3   122  LYS122      0.1693
     90  C          4.0780  -30.8880   22.4250 C.2   122  LYS122      0.2591
     91  O          4.6390  -31.8390   21.8770 O.2   122  LYS122     -0.2718
     92  CB         1.8160  -31.6460   23.2000 C.3   122  LYS122      0.0285
     93  CG         1.8500  -33.0220   22.5640 C.3   122  LYS122      0.0035
     94  CD         0.4540  -33.5980   22.4280 C.3   122  LYS122      0.0206
     95  CE         0.4940  -34.9770   21.7990 C.3   122  LYS122      0.1093
     96  NZ        -0.8630  -35.5790   21.7670 N.3   122  LYS122     -0.1314
     97  N          4.2230  -29.6370   21.9970 N.am  123  ILE123     -0.1980
     98  CA         5.0620  -29.3850   20.8230 C.3   123  ILE123      0.1595
     99  C          6.4780  -28.8590   21.1140 C.2   123  ILE123      0.2287
    100  O          7.3730  -29.0030   20.2770 O.2   123  ILE123     -0.2864
    101  CB         4.3410  -28.5190   19.7620 C.3   123  ILE123      0.0276
    102  CG1        4.0870  -27.1050   20.2750 C.3   123  ILE123      0.0022
    103  CG2        3.0470  -29.1940   19.3250 C.3   123  ILE123      0.0022
    104  CD1        3.3940  -26.2240   19.2610 C.3   123  ILE123      0.0001
    105  N        -13.0690  -37.0440   24.1170 N.3   180  GLU180     -0.1231
    106  CA       -11.7870  -36.4070   23.8470 C.3   180  GLU180      0.1699
    107  C        -10.7890  -36.7400   24.9520 C.2   180  GLU180      0.2592
    108  O        -11.0840  -36.5890   26.1410 O.2   180  GLU180     -0.2718
    109  CB       -11.9390  -34.8920   23.7070 C.3   180  GLU180      0.0402
    110  CG       -10.6640  -34.1980   23.2560 C.3   180  GLU180      0.1161
    111  CD       -10.8730  -32.7240   22.9500 C.2   180  GLU180      0.3649
    112  OE1      -11.9640  -32.3680   22.4610 O.co2 180  GLU180     -0.2457
    113  OE2       -9.9490  -31.9210   23.1990 O.co2 180  GLU180     -0.2457
    114  N         -9.6090  -37.2050   24.5520 N.am  181  ARG181     -0.1980
    115  CA        -8.5650  -37.5630   25.5050 C.3   181  ARG181      0.1597
    116  C         -7.5620  -36.4280   25.6650 C.2   181  ARG181      0.2287
    117  O         -7.3160  -35.9540   26.7750 O.2   181  ARG181     -0.2864
    118  CB        -7.8520  -38.8440   25.0640 C.3   181  ARG181      0.0334
    119  CG        -8.7700  -40.0550   24.9470 C.3   181  ARG181      0.0492
    120  CD        -7.9950  -41.3360   24.6620 C.3   181  ARG181      0.2205
    121  NE        -7.3880  -41.3470   23.3330 N.pl3 181  ARG181     -0.0865
    122  CZ        -7.0420  -42.4530   22.6830 C.cat 181  ARG181      0.5346
    123  NH1       -7.2520  -43.6410   23.2340 N.pl3 181  ARG181      0.1354
    124  NH2       -6.4940  -42.3750   21.4770 N.pl3 181  ARG181      0.1354
@<TRIPOS>BOND
     1    57    55    1
     2    56    55    1
     3    55    54    1
     4    25    24    2
     5    28    26    1
     6    54    51    1
     7    24    23    1
     8     1     2    1
     9    51    52    1
    10    51    50    1
    11    26    23    1
    12    26    27    1
    13    52    53    2
    14    23    22    1
    15     7     9   ar
    16     7     6   ar
    17     9    11   ar
    18    50    41   am
    19     2     5    1
    20     2     3    1
    21    29    27    1
    22    42    41    2
    23    41    40    1
    24     5     6    1
    25     6     8   ar
    26    11    12    1
    27    11    10   ar
    28     3     4    2
    29    58    59    1
    30    16    15    2
    31    65    64   ar
    32    59    60    1
    33    59    62    1
    34     8    10   ar
    35    15    14    1
    36    60    61    2
    37    40    39    1
    38    40    43    1
    39    66    64   ar
    40    33    32    2
    41    64    63    1
    42    46    48   ar
    43    46    44   ar
    44    39    32   am
    45    48    49   ar
    46    32    31    1
    47    30    31    1
    48    62    63    1
    49    43    44    1
    50    31    34    1
    51    44    45   ar
    52    49    47   ar
    53    14    17    1
    54    14    13    1
    55    17    18    1
    56    18    19    1
    57    45    47   ar
    58    34    35    1
    59    19    20    1
    60    20    21    1
    61    35    36    1
    62    87    86    1
    63    38    37    1
    64    86    85    1
    65   104   102    1
    66    37    36    1
    67   103   101    1
    68   101   102    1
    69   101    98    1
    70    78    77    1
    71   100    99    2
    72    85    84    1
    73    84    83    1
    74    98    99    1
    75    98    97    1
    76    76    77   ar
    77    76    74   ar
    78    77    75   ar
    79   124   122    1
    80    96    95    1
    81    95    94    1
    82    91    90    2
    83    97    90   am
    84    83    80    1
    85    75    73   ar
    86    74    72   ar
    87    82    81    2
    88    90    89    1
    89    94    93    1
    90   112   111   ar
    91    93    92    1
    92   122   123    1
    93   122   121    2
    94    81    80    1
    95   111   113   ar
    96   111   110    1
    97    80    79    1
    98    92    89    1
    99   110   109    1
   100   121   120    1
   101    73    72   ar
   102    72    71    1
   103    89    88    1
   104   109   106    1
   105   106   105    1
   106   106   107    1
   107    70    69    2
   108   114   107   am
   109   114   115    1
   110   120   119    1
   111    71    68    1
   112   119   118    1
   113   107   108    2
   114    69    68    1
   115   118   115    1
   116   115   116    1
   117    68    67    1
   118   116   117    2
