@<TRIPOS>MOLECULE
tmp/4zhzA00.pdb
 136 127 0 0 0
SMALL
GASTEIGER

@<TRIPOS>ATOM
      1  N         -4.5860  -41.3130    7.6530 N.3    25  THR25      -0.1218
      2  CA        -3.9850  -40.9130    8.9230 C.3    25  THR25       0.1862
      3  C         -4.2340  -41.9820    9.9890 C.2    25  THR25       0.2287
      4  O         -3.3280  -42.3310   10.7530 O.2    25  THR25      -0.2866
      5  CB        -4.5330  -39.5580    9.4110 C.3    25  THR25       0.1770
      6  OG1       -4.2550  -38.5480    8.4330 O.3    25  THR25      -0.2211
      7  CG2       -3.8870  -39.1660   10.7340 C.3    25  THR25       0.0375
      8  N         -1.4500  -44.6860   11.7790 N.3    29  TYR29      -0.1241
      9  CA        -1.3070  -44.5500   13.2260 C.3    29  TYR29       0.1605
     10  C         -1.7970  -45.7860   13.9750 C.2    29  TYR29       0.2264
     11  O         -1.8320  -45.8090   15.2070 O.2    29  TYR29      -0.2867
     12  CB        -1.9780  -43.2690   13.7360 C.3    29  TYR29       0.0534
     13  CG        -1.0240  -42.0980   13.7590 C.ar   29  TYR29      -0.0201
     14  CD1       -0.8430  -41.3020   12.6370 C.ar   29  TYR29      -0.0009
     15  CD2       -0.2810  -41.8080   14.8950 C.ar   29  TYR29      -0.0009
     16  CE1        0.0410  -40.2380   12.6510 C.ar   29  TYR29       0.0417
     17  CE2        0.6050  -40.7480   14.9190 C.ar   29  TYR29       0.0417
     18  CZ         0.7610  -39.9670   13.7960 C.ar   29  TYR29       0.1957
     19  OH         1.6430  -38.9120   13.8190 O.3    29  TYR29      -0.2866
     20  N        -12.8170  -40.3680   16.8600 N.3    39  LYS39      -0.1245
     21  CA       -11.4890  -39.9410   16.4490 C.3    39  LYS39       0.1561
     22  C        -11.4430  -39.6730   14.9520 C.2    39  LYS39       0.2260
     23  O        -10.8070  -38.7180   14.5030 O.2    39  LYS39      -0.2867
     24  CB       -10.4510  -40.9920   16.8290 C.3    39  LYS39       0.0271
     25  CG        -9.0450  -40.4480   16.8550 C.3    39  LYS39       0.0035
     26  CD        -8.2100  -41.1580   17.8990 C.3    39  LYS39       0.0206
     27  CE        -7.0110  -40.3110   18.2700 C.3    39  LYS39       0.1093
     28  NZ        -7.4390  -38.9370   18.6520 N.3    39  LYS39      -0.1314
     29  N        -12.9560  -36.3810   14.6050 N.3    42  ALA42      -0.1231
     30  CA       -12.0710  -35.3190   15.0820 C.3    42  ALA42       0.1694
     31  C        -10.9760  -34.9970   14.0700 C.2    42  ALA42       0.2591
     32  O        -10.6650  -33.8310   13.8300 O.2    42  ALA42      -0.2718
     33  CB       -11.4630  -35.6880   16.4240 C.3    42  ALA42       0.0304
     34  N        -10.3930  -36.0380   13.4840 N.am   43  ILE43      -0.1980
     35  CA        -9.3480  -35.8590   12.4830 C.3    43  ILE43       0.1595
     36  C         -9.9120  -35.1790   11.2340 C.2    43  ILE43       0.2287
     37  O         -9.2850  -34.2640   10.6770 O.2    43  ILE43      -0.2864
     38  CB        -8.6650  -37.1960   12.1370 C.3    43  ILE43       0.0276
     39  CG1       -7.8510  -37.6830   13.3380 C.3    43  ILE43       0.0022
     40  CG2       -7.7820  -37.0460   10.9030 C.3    43  ILE43       0.0022
     41  CD1       -7.4300  -39.1330   13.2640 C.3    43  ILE43       0.0001
     42  N        -10.3730  -31.4540   12.2210 N.3    46  HIS46      -0.1241
     43  CA        -9.0770  -30.7820   12.2320 C.3    46  HIS46       0.1621
     44  C         -8.6230  -30.4740   10.8090 C.2    46  HIS46       0.2264
     45  O         -8.1910  -29.3570   10.5090 O.2    46  HIS46      -0.2867
     46  CB        -8.0380  -31.6520   12.9430 C.3    46  HIS46       0.0745
     47  CG        -6.6540  -31.0850   12.9260 C.ar   46  HIS46       0.0817
     48  ND1       -6.1820  -30.2420   13.9080 N.ar   46  HIS46      -0.2268
     49  CD2       -5.6350  -31.2500   12.0500 C.ar   46  HIS46       0.1154
     50  CE1       -4.9330  -29.9090   13.6350 C.ar   46  HIS46       0.1986
     51  NE2       -4.5780  -30.5060   12.5120 N.ar   46  HIS46      -0.2212
     52  N         -0.4300  -30.2360    6.6380 N.3    65  GLU65      -0.1245
     53  CA        -1.2620  -31.2410    7.2890 C.3    65  GLU65       0.1567
     54  C         -1.8420  -32.3190    6.3710 C.2    65  GLU65       0.2260
     55  O         -1.7700  -33.5080    6.6910 O.2    65  GLU65      -0.2867
     56  CB        -2.3690  -30.5570    8.1010 C.3    65  GLU65       0.0388
     57  CG        -3.3180  -31.5030    8.8120 C.3    65  GLU65       0.1160
     58  CD        -2.6050  -32.6140    9.5680 C.2    65  GLU65       0.3649
     59  OE1       -1.4770  -32.4010   10.0620 O.co2  65  GLU65      -0.2457
     60  OE2       -3.1820  -33.7180    9.6640 O.co2  65  GLU65      -0.2457
     61  N          4.9450  -32.7200   13.0180 N.3    91  LEU91      -0.1245
     62  CA         4.4330  -32.1470   11.7850 C.3    91  LEU91       0.1561
     63  C          3.4620  -31.0290   12.1400 C.2    91  LEU91       0.2260
     64  O          2.4070  -31.2780   12.7230 O.2    91  LEU91      -0.2867
     65  CB         3.7260  -33.2030   10.9390 C.3    91  LEU91       0.0270
     66  CG         4.6020  -34.0030    9.9790 C.3    91  LEU91       0.0019
     67  CD1        3.7590  -35.0050    9.2030 C.3    91  LEU91       0.0001
     68  CD2        5.3430  -33.0740    9.0230 C.3    91  LEU91       0.0001
     69  N          0.8140  -27.8300   11.0640 N.3    93  ASP93      -0.1239
     70  CA        -0.3080  -27.8530   10.1370 C.3    93  ASP93       0.1674
     71  C         -0.0730  -26.9350    8.9540 C.2    93  ASP93       0.2266
     72  O         -0.3210  -27.3030    7.8060 O.2    93  ASP93      -0.2867
     73  CB        -1.5930  -27.4640   10.8610 C.3    93  ASP93       0.1410
     74  CG        -2.0270  -28.5090   11.8630 C.2    93  ASP93       0.3668
     75  OD1       -1.9460  -29.7090   11.5300 O.co2  93  ASP93      -0.2456
     76  OD2       -2.4320  -28.1350   12.9840 O.co2  93  ASP93      -0.2456
     77  N          0.3250  -24.3730   14.2380 N.3   104  GLU104     -0.1231
     78  CA        -0.3700  -25.5490   14.7310 C.3   104  GLU104      0.1699
     79  C         -1.7990  -25.1640   15.0950 C.2   104  GLU104      0.2592
     80  O         -2.0360  -24.2540   15.9050 O.2   104  GLU104     -0.2718
     81  CB         0.3480  -26.1370   15.9450 C.3   104  GLU104      0.0402
     82  CG        -0.2110  -27.4730   16.3930 C.3   104  GLU104      0.1161
     83  CD        -0.0380  -28.5510   15.3410 C.2   104  GLU104      0.3649
     84  OE1        1.0170  -28.5690   14.6740 O.co2 104  GLU104     -0.2457
     85  OE2       -0.9570  -29.3770   15.1750 O.co2 104  GLU104     -0.2457
     86  N         -2.7490  -25.8530   14.4740 N.am  105  ILE105     -0.1966
     87  CA        -4.1650  -25.6300   14.7190 C.3   105  ILE105      0.1727
     88  C         -4.6570  -26.6880   15.6970 C.2   105  ILE105      0.2617
     89  O         -4.1920  -27.8310   15.6770 O.2   105  ILE105     -0.2715
     90  CB        -4.9740  -25.7280   13.4100 C.3   105  ILE105      0.0290
     91  CG1       -4.3910  -24.8030   12.3460 C.3   105  ILE105      0.0022
     92  CG2       -6.4380  -25.3860   13.6440 C.3   105  ILE105      0.0023
     93  CD1       -4.6010  -23.3400   12.6280 C.3   105  ILE105      0.0001
     94  N         -5.5840  -26.3040   16.5650 N.am  106  GLY106     -0.1940
     95  CA        -6.2130  -27.2490   17.4680 C.3   106  GLY106      0.2014
     96  C         -7.7110  -27.0370   17.4640 C.2   106  GLY106      0.2638
     97  O         -8.1790  -25.9080   17.3540 O.2   106  GLY106     -0.2714
     98  N         -8.4660  -28.1240   17.5610 N.am  107  VAL107     -0.1977
     99  CA        -9.9180  -28.0390   17.6710 C.3   107  VAL107      0.1596
    100  C        -10.3350  -28.8750   18.8670 C.2   107  VAL107      0.2287
    101  O        -10.0280  -30.0700   18.9260 O.2   107  VAL107     -0.2864
    102  CB       -10.6170  -28.5670   16.4080 C.3   107  VAL107      0.0276
    103  CG1      -12.1310  -28.5090   16.5720 C.3   107  VAL107      0.0022
    104  CG2      -10.1810  -27.7740   15.1830 C.3   107  VAL107      0.0022
    105  N        -13.1820  -30.0020   22.1870 N.3   109  ARG109     -0.1245
    106  CA       -14.4660  -30.0600   22.8720 C.3   109  ARG109      0.1563
    107  C        -14.2710  -29.6550   24.3270 C.2   109  ARG109      0.2260
    108  O        -15.2300  -29.5560   25.0950 O.2   109  ARG109     -0.2867
    109  CB       -15.0560  -31.4720   22.8040 C.3   109  ARG109      0.0307
    110  CG       -15.5250  -31.8970   21.4170 C.3   109  ARG109      0.0489
    111  CD       -14.4100  -32.5360   20.6020 C.3   109  ARG109      0.2205
    112  NE       -14.3750  -33.9890   20.7490 N.pl3 109  ARG109     -0.0865
    113  CZ       -13.3570  -34.7570   20.3700 C.cat 109  ARG109      0.5346
    114  NH1      -12.2760  -34.2120   19.8280 N.pl3 109  ARG109      0.1354
    115  NH2      -13.4170  -36.0710   20.5410 N.pl3 109  ARG109      0.1354
    116  N         -6.4140  -26.6000   26.8800 N.3   115  TYR115     -0.1241
    117  CA        -6.0340  -27.2890   25.6520 C.3   115  TYR115      0.1605
    118  C         -4.8380  -26.6110   25.0010 C.2   115  TYR115      0.2264
    119  O         -3.9630  -27.2770   24.4470 O.2   115  TYR115     -0.2867
    120  CB        -7.2040  -27.3390   24.6660 C.3   115  TYR115      0.0534
    121  CG        -6.9030  -28.1680   23.4400 C.ar  115  TYR115     -0.0201
    122  CD1       -7.1620  -29.5300   23.4200 C.ar  115  TYR115     -0.0009
    123  CD2       -6.3490  -27.5910   22.3060 C.ar  115  TYR115     -0.0009
    124  CE1       -6.8840  -30.2950   22.3020 C.ar  115  TYR115      0.0417
    125  CE2       -6.0650  -28.3470   21.1840 C.ar  115  TYR115      0.0417
    126  CZ        -6.3350  -29.6970   21.1880 C.ar  115  TYR115      0.1957
    127  OH        -6.0560  -30.4500   20.0720 O.3   115  TYR115     -0.2866
    128  N         -1.2600  -28.3200   24.3570 N.3   119  LYS119     -0.1245
    129  CA        -0.7570  -28.3340   22.9850 C.3   119  LYS119      0.1561
    130  C          0.6510  -27.7500   22.9160 C.2   119  LYS119      0.2260
    131  O          1.5670  -28.3440   22.3230 O.2   119  LYS119     -0.2867
    132  CB        -1.7000  -27.5330   22.0830 C.3   119  LYS119      0.0271
    133  CG        -1.4890  -27.7510   20.6000 C.3   119  LYS119      0.0035
    134  CD        -1.4000  -29.2320   20.2900 C.3   119  LYS119      0.0206
    135  CE        -1.8770  -29.5230   18.8880 C.3   119  LYS119      0.1093
    136  NZ        -3.3580  -29.4570   18.8000 N.3   119  LYS119     -0.1314
@<TRIPOS>BOND
     1    54    55    2
     2    54    53    1
     3    52    53    1
     4    53    56    1
     5     1     2    1
     6    72    71    2
     7    56    57    1
     8     6     5    1
     9    57    58    1
    10     2     5    1
    11     2     3    1
    12    71    70    1
    13    68    66    1
    14    67    66    1
    15     5     7    1
    16    58    60   ar
    17    58    59   ar
    18    66    65    1
    19     3     4    2
    20    70    73    1
    21    70    69    1
    22    45    44    2
    23    37    36    2
    24    44    43    1
    25    73    74    1
    26    40    38    1
    27    65    62    1
    28    36    35    1
    29    75    74   ar
    30     8     9    1
    31    62    63    1
    32    62    61    1
    33    74    76   ar
    34    49    51   ar
    35    49    47   ar
    36    38    35    1
    37    38    39    1
    38    63    64    2
    39    42    43    1
    40    43    46    1
    41    91    93    1
    42    91    90    1
    43    35    34    1
    44    51    50   ar
    45    14    16   ar
    46    14    13   ar
    47    16    18   ar
    48    47    46    1
    49    47    48   ar
    50     9    12    1
    51     9    10    1
    52    41    39    1
    53    90    92    1
    54    90    87    1
    55    34    31   am
    56    50    48   ar
    57    12    13    1
    58    13    15   ar
    59    18    19    1
    60    18    17   ar
    61    32    31    2
    62    10    11    2
    63    31    30    1
    64    77    78    1
    65    86    87    1
    66    86    79   am
    67    23    22    2
    68    29    30    1
    69    84    83   ar
    70    87    88    1
    71    78    79    1
    72    78    81    1
    73    15    17   ar
    74    22    21    1
    75    30    33    1
    76    79    80    2
    77    85    83   ar
    78   104   102    1
    79    83    82    1
    80    89    88    2
    81    88    94   am
    82    81    82    1
    83   102   103    1
    84   102    99    1
    85    21    24    1
    86    21    20    1
    87    94    95    1
    88    24    25    1
    89    25    26    1
    90    97    96    2
    91    96    95    1
    92    96    98   am
    93    98    99    1
    94    99   100    1
    95    26    27    1
    96    27    28    1
    97   136   135    1
    98   100   101    2
    99   135   134    1
   100   114   113    1
   101   127   126    1
   102   134   133    1
   103   113   115    1
   104   113   112    2
   105   133   132    1
   106   111   112    1
   107   111   110    1
   108   125   126   ar
   109   125   123   ar
   110   126   124   ar
   111   110   109    1
   112   132   129    1
   113   105   106    1
   114   124   122   ar
   115   123   121   ar
   116   131   130    2
   117   109   106    1
   118   106   107    1
   119   130   129    1
   120   129   128    1
   121   122   121   ar
   122   121   120    1
   123   107   108    2
   124   119   118    2
   125   120   117    1
   126   118   117    1
   127   117   116    1
