@<TRIPOS>MOLECULE
tmp/4zi1A01.pdb
 178 168 0 0 0
SMALL
GASTEIGER

@<TRIPOS>ATOM
      1  N         48.0390   21.3940  -16.9130 N.3    34  MET34      -0.1245
      2  CA        46.8660   22.2040  -16.8750 C.3    34  MET34       0.1570
      3  C         45.6700   21.3120  -16.8030 C.2    34  MET34       0.2261
      4  O         44.7590   21.6050  -16.1090 O.2    34  MET34      -0.2867
      5  CB        46.7770   23.1030  -18.0740 C.3    34  MET34       0.0387
      6  CG        47.6280   24.3450  -17.9900 C.3    34  MET34       0.0595
      7  SD        47.6600   25.3030  -16.4810 S.3    34  MET34      -0.1393
      8  CE        45.9480   25.7050  -16.3710 C.3    34  MET34       0.0692
      9  N         45.1730   20.0800  -13.2940 N.3    37  LEU37      -0.1231
     10  CA        44.6910   21.1670  -12.4730 C.3    37  LEU37       0.1693
     11  C         43.2000   21.3790  -12.6780 C.2    37  LEU37       0.2592
     12  O         42.5060   21.5560  -11.7330 O.2    37  LEU37      -0.2718
     13  CB        45.4620   22.4460  -12.7350 C.3    37  LEU37       0.0284
     14  CG        46.8940   22.4690  -12.2520 C.3    37  LEU37       0.0019
     15  CD1       47.5050   23.8250  -12.3830 C.3    37  LEU37       0.0001
     16  CD2       47.0340   21.9710  -10.8420 C.3    37  LEU37       0.0001
     17  N         42.7170   21.3550  -13.9070 N.am   38  THR38      -0.1953
     18  CA        41.3070   21.5650  -14.1430 C.3    38  THR38       0.1897
     19  C         40.4530   20.4280  -13.6620 C.2    38  THR38       0.2313
     20  O         39.3430   20.6200  -13.2790 O.2    38  THR38      -0.2863
     21  CB        40.9630   21.8800  -15.5920 C.3    38  THR38       0.1794
     22  OG1       41.0140   20.6900  -16.3510 O.3    38  THR38      -0.2208
     23  CG2       41.9020   22.8410  -16.1640 C.3    38  THR38       0.0378
     24  N         41.2730   18.4880  -11.0770 N.3    40  LEU40      -0.1231
     25  CA        41.3220   18.6020   -9.6470 C.3    40  LEU40       0.1693
     26  C         40.3430   19.6890   -9.2330 C.2    40  LEU40       0.2591
     27  O         39.5730   19.4910   -8.3690 O.2    40  LEU40      -0.2718
     28  CB        42.7220   18.9730   -9.1850 C.3    40  LEU40       0.0284
     29  CG        42.8920   19.5410   -7.7870 C.3    40  LEU40       0.0019
     30  CD1       42.5800   18.5320   -6.7160 C.3    40  LEU40       0.0001
     31  CD2       44.2280   20.1720   -7.5400 C.3    40  LEU40       0.0001
     32  N         40.4020   20.8350   -9.8720 N.am   41  ALA41      -0.1980
     33  CA        39.5510   21.9580   -9.5390 C.3    41  ALA41       0.1597
     34  C         38.0690   21.7190   -9.6900 C.2    41  ALA41       0.2287
     35  O         37.3180   22.1090   -8.8470 O.2    41  ALA41      -0.2864
     36  CB        39.9650   23.1900  -10.2950 C.3    41  ALA41       0.0319
     37  N         37.0010   19.9080   -6.7080 N.3    44  GLU44      -0.1245
     38  CA        37.0730   20.7770   -5.5640 C.3    44  GLU44       0.1567
     39  C         35.9560   21.8220   -5.5720 C.2    44  GLU44       0.2260
     40  O         35.4670   22.1730   -4.5580 O.2    44  GLU44      -0.2867
     41  CB        38.4150   21.4730   -5.4940 C.3    44  GLU44       0.0388
     42  CG        39.5760   20.6170   -5.0480 C.3    44  GLU44       0.1160
     43  CD        40.7980   21.4360   -4.7770 C.2    44  GLU44       0.3649
     44  OE1       41.4220   21.8980   -5.7060 O.co2  44  GLU44      -0.2457
     45  OE2       41.1190   21.6360   -3.6350 O.co2  44  GLU44      -0.2457
     46  N         35.9410   31.8850   -5.5350 N.3    74  TRP74      -0.1227
     47  CA        36.3760   30.5200   -5.7260 C.3    74  TRP74       0.1737
     48  C         37.8600   30.2500   -5.8800 C.2    74  TRP74       0.2595
     49  O         38.3610   29.4120   -5.2380 O.2    74  TRP74      -0.2718
     50  CB        35.5480   29.7690   -6.7470 C.3    74  TRP74       0.0564
     51  CG        35.7500   30.2030   -8.1080 C.ar   74  TRP74       0.0003
     52  CD1       35.0590   31.1290   -8.7560 C.ar   74  TRP74       0.0946
     53  CD2       36.7400   29.7380   -9.0050 C.ar   74  TRP74       0.0152
     54  NE1       35.5220   31.2810  -10.0030 N.ar   74  TRP74      -0.2442
     55  CE2       36.5640   30.4280  -10.1940 C.ar   74  TRP74       0.0810
     56  CE3       37.7570   28.8050   -8.9200 C.ar   74  TRP74       0.0012
     57  CZ2       37.3570   30.2130  -11.2960 C.ar   74  TRP74       0.0191
     58  CZ3       38.5450   28.5950  -10.0160 C.ar   74  TRP74       0.0001
     59  CH2       38.3350   29.2820  -11.1880 C.ar   74  TRP74       0.0015
     60  N         38.5410   30.9770   -6.7350 N.am   75  MET75      -0.1979
     61  CA        39.9560   30.7770   -6.9270 C.3    75  MET75       0.1605
     62  C         40.7170   31.1010   -5.6640 C.2    75  MET75       0.2287
     63  O         41.6030   30.4010   -5.3080 O.2    75  MET75      -0.2864
     64  CB        40.4940   31.5520   -8.1020 C.3    75  MET75       0.0413
     65  CG        41.9870   31.3870   -8.2900 C.3    75  MET75       0.0598
     66  SD        42.5150   29.8010   -8.9230 S.3    75  MET75      -0.1393
     67  CE        42.0780   30.0110  -10.6000 C.3    75  MET75       0.0692
     68  N         40.2840   28.1990   -3.3020 N.3    78  LEU78      -0.1231
     69  CA        41.0680   27.0860   -3.7650 C.3    78  LEU78       0.1693
     70  C         42.5230   27.3060   -3.3390 C.2    78  LEU78       0.2591
     71  O         43.1430   26.4350   -2.8230 O.2    78  LEU78      -0.2718
     72  CB        40.9720   26.9430   -5.2630 C.3    78  LEU78       0.0284
     73  CG        39.7140   26.4170   -5.9350 C.3    78  LEU78       0.0019
     74  CD1       39.9300   26.2440   -7.4060 C.3    78  LEU78       0.0001
     75  CD2       39.2040   25.1450   -5.3170 C.3    78  LEU78       0.0001
     76  N         43.0260   28.5040   -3.5510 N.am   79  MET79      -0.1979
     77  CA        44.3820   28.8660   -3.1980 C.3    79  MET79       0.1605
     78  C         44.6380   28.8540   -1.7080 C.2    79  MET79       0.2287
     79  O         45.6640   28.4370   -1.2850 O.2    79  MET79      -0.2864
     80  CB        44.7910   30.1910   -3.8080 C.3    79  MET79       0.0413
     81  CG        44.9330   30.1410   -5.3010 C.3    79  MET79       0.0598
     82  SD        45.4100   31.6530   -6.0750 S.3    79  MET79      -0.1393
     83  CE        45.7310   31.1080   -7.7160 C.3    79  MET79       0.0692
     84  N         45.1410   25.2810   -0.8600 N.3    82  LEU82      -0.1245
     85  CA        46.4170   24.8530   -1.3560 C.3    82  LEU82       0.1561
     86  C         47.5240   25.3460   -0.4260 C.2    82  LEU82       0.2260
     87  O         48.4410   24.6540   -0.1510 O.2    82  LEU82      -0.2867
     88  CB        46.6220   25.3900   -2.7420 C.3    82  LEU82       0.0270
     89  CG        47.9850   25.2490   -3.3740 C.3    82  LEU82       0.0019
     90  CD1       48.3370   23.7880   -3.5650 C.3    82  LEU82       0.0001
     91  CD2       48.0750   26.0310   -4.6660 C.3    82  LEU82       0.0001
     92  N         47.4480   23.1560    2.8230 N.3    85  ARG85      -0.1245
     93  CA        47.9780   21.8610    2.4950 C.3    85  ARG85       0.1563
     94  C         49.4950   21.8510    2.3000 C.2    85  ARG85       0.2260
     95  O         50.1270   20.8790    2.5630 O.2    85  ARG85      -0.2867
     96  CB        47.3130   21.3310    1.2360 C.3    85  ARG85       0.0307
     97  CG        45.8910   20.8810    1.3890 C.3    85  ARG85       0.0489
     98  CD        45.4010   20.0940    0.2070 C.3    85  ARG85       0.2205
     99  NE        45.5040   20.7300   -1.0800 N.pl3  85  ARG85      -0.0865
    100  CZ        44.6250   21.5810   -1.5770 C.cat  85  ARG85       0.5346
    101  NH1       43.5910   21.9450   -0.8850 N.pl3  85  ARG85       0.1354
    102  NH2       44.7900   22.0770   -2.7670 N.pl3  85  ARG85       0.1354
    103  N         48.8530   20.2410   -4.2450 N.3    95  PHE95      -0.1241
    104  CA        47.5740   20.3930   -4.8570 C.3    95  PHE95       0.1605
    105  C         46.6770   19.2660   -4.3870 C.2    95  PHE95       0.2264
    106  O         45.5220   19.4420   -4.2010 O.2    95  PHE95      -0.2867
    107  CB        47.6960   20.4110   -6.3660 C.3    95  PHE95       0.0534
    108  CG        48.1610   21.7110   -6.9190 C.ar   95  PHE95      -0.0203
    109  CD1       47.2720   22.7140   -7.1880 C.ar   95  PHE95      -0.0042
    110  CD2       49.4830   21.9330   -7.1510 C.ar   95  PHE95      -0.0042
    111  CE1       47.7000   23.9060   -7.6910 C.ar   95  PHE95      -0.0003
    112  CE2       49.9140   23.1160   -7.6570 C.ar   95  PHE95      -0.0003
    113  CZ        49.0210   24.1070   -7.9340 C.ar   95  PHE95      -0.0000
    114  N         53.1540   30.3330  -15.3960 N.3   112  ILE112     -0.1245
    115  CA        52.6290   29.8730  -14.1440 C.3   112  ILE112      0.1561
    116  C         53.6570   29.9610  -13.0290 C.2   112  ILE112      0.2260
    117  O         53.3060   30.0450  -11.8890 O.2   112  ILE112     -0.2867
    118  CB        52.0080   28.4690  -14.2770 C.3   112  ILE112      0.0252
    119  CG1       50.7710   28.3440  -13.4070 C.3   112  ILE112      0.0019
    120  CG2       53.0000   27.3660  -13.9790 C.3   112  ILE112      0.0019
    121  CD1       50.1410   26.9960  -13.4420 C.3   112  ILE112      0.0001
    122  N         53.4310   32.8320  -10.6070 N.3   115  ILE115     -0.1231
    123  CA        52.2780   32.7020   -9.7550 C.3   115  ILE115      0.1692
    124  C         52.5720   31.6720   -8.6680 C.2   115  ILE115      0.2592
    125  O         52.2200   31.8800   -7.5480 O.2   115  ILE115     -0.2718
    126  CB        50.9980   32.4170  -10.5330 C.3   115  ILE115      0.0266
    127  CG1       50.9050   33.3490  -11.7210 C.3   115  ILE115      0.0019
    128  CG2       49.8070   32.5920   -9.6310 C.3   115  ILE115      0.0020
    129  CD1       49.6810   33.1700  -12.5620 C.3   115  ILE115      0.0001
    130  N         53.2300   30.5830   -9.0250 N.am  116  PHE116     -0.1976
    131  CA        53.6200   29.5680   -8.0760 C.3   116  PHE116      0.1639
    132  C         54.4740   30.2350   -7.0100 C.2   116  PHE116      0.2290
    133  O         54.3220   29.9900   -5.8570 O.2   116  PHE116     -0.2864
    134  CB        54.4730   28.4980   -8.7300 C.3   116  PHE116      0.0560
    135  CG        53.7160   27.3670   -9.3470 C.ar  116  PHE116     -0.0200
    136  CD1       52.3840   27.4720   -9.6600 C.ar  116  PHE116     -0.0042
    137  CD2       54.3710   26.2010   -9.6500 C.ar  116  PHE116     -0.0042
    138  CE1       51.7190   26.4370  -10.2410 C.ar  116  PHE116     -0.0003
    139  CE2       53.7170   25.1580  -10.2220 C.ar  116  PHE116     -0.0003
    140  CZ        52.3910   25.2740  -10.5290 C.ar  116  PHE116     -0.0000
    141  N         52.4490   32.0890   -4.6790 N.3   119  LEU119     -0.1245
    142  CA        51.8120   31.1330   -3.7990 C.3   119  LEU119      0.1561
    143  C         52.7200   30.6430   -2.6930 C.2   119  LEU119      0.2260
    144  O         52.3070   30.5510   -1.5760 O.2   119  LEU119     -0.2867
    145  CB        51.2360   29.9610   -4.5720 C.3   119  LEU119      0.0270
    146  CG        50.0670   30.2410   -5.4970 C.3   119  LEU119      0.0019
    147  CD1       49.6900   29.0980   -6.3900 C.3   119  LEU119      0.0001
    148  CD2       48.8850   30.8140   -4.7790 C.3   119  LEU119      0.0001
    149  N         45.9560   34.3110  -11.0670 N.3   200  GLY200     -0.1225
    150  CA        45.6240   32.9670  -11.4480 C.3   200  GLY200      0.1811
    151  C         44.4660   32.9160  -12.4130 C.2   200  GLY200      0.2280
    152  O         44.4860   32.1820  -13.3360 O.2   200  GLY200     -0.2866
    153  N         45.6330   34.2850  -15.8010 N.3   203  HIS203     -0.1226
    154  CA        46.4140   33.2460  -16.4230 C.3   203  HIS203      0.1752
    155  C         45.5630   32.1190  -16.9770 C.2   203  HIS203      0.2595
    156  O         45.7480   31.6990  -18.0730 O.2   203  HIS203     -0.2718
    157  CB        47.4140   32.7030  -15.4270 C.3   203  HIS203      0.0759
    158  CG        48.3170   31.6530  -15.9760 C.ar  203  HIS203      0.0818
    159  ND1       48.0030   30.3220  -15.9500 N.ar  203  HIS203     -0.2268
    160  CD2       49.5270   31.7400  -16.5610 C.ar  203  HIS203      0.1154
    161  CE1       48.9830   29.6310  -16.4830 C.ar  203  HIS203      0.1986
    162  NE2       49.9130   30.4700  -16.8780 N.ar  203  HIS203     -0.2212
    163  N         44.6240   31.6380  -16.1920 N.am  204  LEU204     -0.1980
    164  CA        43.7460   30.5820  -16.6090 C.3   204  LEU204      0.1596
    165  C         42.8870   30.9680  -17.8110 C.2   204  LEU204      0.2287
    166  O         42.6770   30.1770  -18.6800 O.2   204  LEU204     -0.2864
    167  CB        42.8750   30.1290  -15.4560 C.3   204  LEU204      0.0297
    168  CG        41.9010   29.0210  -15.7850 C.3   204  LEU204      0.0022
    169  CD1       42.6250   27.8340  -16.3580 C.3   204  LEU204      0.0001
    170  CD2       41.1300   28.6240  -14.5640 C.3   204  LEU204      0.0001
    171  N         33.3340   24.4270  -13.9190 N.3   219  LEU219     -0.1245
    172  CA        34.4910   25.2740  -13.9470 C.3   219  LEU219      0.1561
    173  C         34.2980   26.4200  -14.9060 C.2   219  LEU219      0.2260
    174  O         34.5770   27.5310  -14.5920 O.2   219  LEU219     -0.2867
    175  CB        35.7370   24.4750  -14.2970 C.3   219  LEU219      0.0270
    176  CG        37.0290   25.2430  -14.4710 C.3   219  LEU219      0.0019
    177  CD1       37.3300   26.0580  -13.2470 C.3   219  LEU219      0.0001
    178  CD2       38.1720   24.3190  -14.8090 C.3   219  LEU219      0.0001
@<TRIPOS>BOND
     1   166   165    2
     2     5     6    1
     3     5     2    1
     4   156   155    2
     5     6     7    1
     6   165   164    1
     7   155   154    1
     8   155   163   am
     9     1     2    1
    10   162   160   ar
    11   162   161   ar
    12     2     3    1
    13     3     4    2
    14   164   163    1
    15   164   167    1
    16   160   158   ar
    17   161   159   ar
    18     7     8    1
    19   154   153    1
    20   154   157    1
    21   169   168    1
    22    22    21    1
    23    23    21    1
    24   158   159   ar
    25   158   157    1
    26   168   167    1
    27   168   170    1
    28    21    18    1
    29   114   115    1
    30   173   174    2
    31   173   172    1
    32   178   176    1
    33   176   175    1
    34   176   177    1
    35   175   172    1
    36   118   115    1
    37   118   120    1
    38   118   119    1
    39   115   116    1
    40    18    17    1
    41    18    19    1
    42   172   171    1
    43    17    11   am
    44    19    20    2
    45   121   119    1
    46   152   151    2
    47     9    10    1
    48   116   117    2
    49    13    10    1
    50    13    14    1
    51    11    10    1
    52    11    12    2
    53   129   127    1
    54   151   150    1
    55    15    14    1
    56    14    16    1
    57   127   126    1
    58   150   149    1
    59    57    59   ar
    60    57    55   ar
    61    59    58   ar
    62    24    25    1
    63   122   123    1
    64    67    66    1
    65   126   123    1
    66   126   128    1
    67   140   138   ar
    68   140   139   ar
    69    36    33    1
    70   138   136   ar
    71   139   137   ar
    72    55    54   ar
    73    55    53   ar
    74    58    56   ar
    75    54    52   ar
    76    32    33    1
    77    32    26   am
    78   123   124    1
    79    34    33    1
    80    34    35    2
    81   136   135   ar
    82   137   135   ar
    83    25    26    1
    84    25    28    1
    85   135   134    1
    86    26    27    2
    87    28    29    1
    88   130   124   am
    89   130   131    1
    90    53    56   ar
    91    53    51   ar
    92    66    65    1
    93    52    51   ar
    94   134   131    1
    95   124   125    2
    96    65    64    1
    97    51    50    1
    98    64    61    1
    99   131   132    1
   100   113   111   ar
   101   113   112   ar
   102    29    31    1
   103    29    30    1
   104    83    82    1
   105   111   109   ar
   106   112   110   ar
   107    74    73    1
   108   109   108   ar
   109   110   108   ar
   110   132   133    2
   111    61    60    1
   112    61    62    1
   113   108   107    1
   114    50    47    1
   115    60    48   am
   116    37    38    1
   117   147   146    1
   118   107   104    1
   119    82    81    1
   120    73    75    1
   121    73    72    1
   122    48    47    1
   123    48    49    2
   124    47    46    1
   125    44    43   ar
   126    62    63    2
   127    39    38    1
   128    39    40    2
   129    38    41    1
   130   146   148    1
   131   146   145    1
   132    41    42    1
   133    81    80    1
   134    72    69    1
   135    42    43    1
   136   104   105    1
   137   104   103    1
   138    43    45   ar
   139   141   142    1
   140    91    89    1
   141   145   142    1
   142   105   106    2
   143    80    77    1
   144   142   143    1
   145    69    70    1
   146    69    68    1
   147    90    89    1
   148    76    70   am
   149    76    77    1
   150    89    88    1
   151    70    71    2
   152    77    78    1
   153   102   100    1
   154    88    85    1
   155   143   144    2
   156    78    79    2
   157   100    99    2
   158   100   101    1
   159    85    84    1
   160    85    86    1
   161    99    98    1
   162    86    87    2
   163    98    97    1
   164    96    97    1
   165    96    93    1
   166    94    93    1
   167    94    95    2
   168    93    92    1
