@<TRIPOS>MOLECULE
tmp/4zi2A00.pdb
 162 155 0 0 0
SMALL
GASTEIGER

@<TRIPOS>ATOM
      1  N         17.9290   27.0480   17.7010 N.3    24  ASP24      -0.1225
      2  CA        16.5730   26.8000   18.1570 C.3    24  ASP24       0.1805
      3  C         15.5970   27.2640   17.0850 C.2    24  ASP24       0.2598
      4  O         15.8220   28.3060   16.4420 O.2    24  ASP24      -0.2718
      5  CB        16.2990   27.5300   19.4680 C.3    24  ASP24       0.1424
      6  CG        16.5750   29.0240   19.3680 C.2    24  ASP24       0.3668
      7  OD1       17.7490   29.4120   19.4600 O.co2  24  ASP24      -0.2456
      8  OD2       15.6160   29.8000   19.2050 O.co2  24  ASP24      -0.2456
      9  N         14.5570   26.4530   16.8800 N.am   25  ASN25      -0.1960
     10  CA        13.4660   26.6820   15.9250 C.3    25  ASN25       0.1819
     11  C         13.8210   26.4180   14.4560 C.2    25  ASN25       0.2621
     12  O         13.0190   26.7270   13.5630 O.2    25  ASN25      -0.2715
     13  CB        12.9280   28.1220   16.0420 C.3    25  ASN25       0.1195
     14  CG        11.5070   28.2580   15.4930 C.2    25  ASN25       0.2630
     15  OD1       10.6270   27.5070   15.8770 O.2    25  ASN25      -0.2716
     16  ND2       11.3000   29.1900   14.5700 N.am   25  ASN25      -0.0877
     17  N         15.0030   25.8560   14.1880 N.am   26  ALA26      -0.1963
     18  CA        15.4380   25.7150   12.7980 C.3    26  ALA26       0.1728
     19  C         14.6660   24.5950   12.0970 C.2    26  ALA26       0.2617
     20  O         14.5690   24.5920   10.8680 O.2    26  ALA26      -0.2715
     21  CB        16.9480   25.4590   12.7140 C.3    26  ALA26       0.0334
     22  N         14.1140   23.6700   12.8900 N.am   27  GLY27      -0.1940
     23  CA        13.4080   22.4950   12.3840 C.3    27  GLY27       0.2014
     24  C         14.1530   21.1670   12.5060 C.2    27  GLY27       0.2639
     25  O         13.8570   20.2250   11.7740 O.2    27  GLY27      -0.2714
     26  N         15.1140   21.0880   13.4320 N.am   28  LYS28      -0.1963
     27  CA        15.9410   19.8900   13.6030 C.3    28  LYS28       0.1728
     28  C         15.1500   18.6470   14.0540 C.2    28  LYS28       0.2617
     29  O         15.2630   17.5830   13.4460 O.2    28  LYS28      -0.2715
     30  CB        17.0770   20.1740   14.6000 C.3    28  LYS28       0.0311
     31  CG        18.0340   21.3250   14.1530 C.3    28  LYS28       0.0038
     32  CD        19.2010   21.5360   15.1270 C.3    28  LYS28       0.0206
     33  CE        18.7550   22.0230   16.5060 C.3    28  LYS28       0.1093
     34  NZ        18.0400   23.3370   16.4650 N.3    28  LYS28      -0.1314
     35  N         14.3750   18.7750   15.1230 N.am   29  THR29      -0.1937
     36  CA        13.6100   17.6470   15.6410 C.3    29  THR29       0.2028
     37  C         12.5410   17.2280   14.6280 C.2    29  THR29       0.2642
     38  O         12.2660   16.0500   14.4580 O.2    29  THR29      -0.2714
     39  CB        12.9530   17.9930   17.0010 C.3    29  THR29       0.1808
     40  OG1       13.9540   18.4750   17.9060 O.3    29  THR29      -0.2208
     41  CG2       12.2500   16.7750   17.6090 C.3    29  THR29       0.0379
     42  N         11.9520   18.2110   13.9520 N.am   30  THR30      -0.1950
     43  CA        10.9900   17.9340   12.8900 C.3    30  THR30       0.1897
     44  C         11.6270   17.1300   11.7600 C.2    30  THR30       0.2313
     45  O         11.0440   16.1450   11.2990 O.2    30  THR30      -0.2863
     46  CB        10.3890   19.2310   12.3370 C.3    30  THR30       0.1794
     47  OG1        9.7640   19.9340   13.4130 O.3    30  THR30      -0.2208
     48  CG2        9.3460   18.9310   11.2700 C.3    30  THR30       0.0378
     49  N          5.0400   14.2360   13.4130 N.3    40  ILE40      -0.1245
     50  CA         5.7170   15.5110   13.6570 C.3    40  ILE40       0.1561
     51  C          4.8380   16.5940   14.2850 C.2    40  ILE40       0.2260
     52  O          5.2640   17.7530   14.3710 O.2    40  ILE40      -0.2867
     53  CB         6.2860   16.1020   12.3570 C.3    40  ILE40       0.0252
     54  CG1        5.1550   16.3150   11.3430 C.3    40  ILE40       0.0019
     55  CG2        7.3960   15.2130   11.7850 C.3    40  ILE40       0.0019
     56  CD1        5.6150   16.9030   10.0180 C.3    40  ILE40       0.0001
     57  N          5.6100   18.2980   18.4660 N.3    43  ILE43      -0.1231
     58  CA         7.0150   18.6020   18.7210 C.3    43  ILE43       0.1692
     59  C          7.1590   19.9270   19.4630 C.2    43  ILE43       0.2593
     60  O          6.6160   20.9470   19.0360 O.2    43  ILE43      -0.2718
     61  CB         7.8030   18.6370   17.3930 C.3    43  ILE43       0.0266
     62  CG1        7.8910   17.2210   16.7940 C.3    43  ILE43       0.0019
     63  CG2        9.1740   19.2650   17.5910 C.3    43  ILE43       0.0020
     64  CD1        8.4990   17.1800   15.4110 C.3    43  ILE43       0.0001
     65  N          7.8740   19.8930   20.5860 N.am   44  THR44      -0.1940
     66  CA         8.1660   21.0790   21.3960 C.3    44  THR44       0.2013
     67  C          9.6700   21.3730   21.3840 C.2    44  THR44       0.2484
     68  O         10.4470   20.5180   20.9750 O.2    44  THR44      -0.2729
     69  CB         7.6980   20.8850   22.8590 C.3    44  THR44       0.1807
     70  OG1        8.3350   19.7250   23.4060 O.3    44  THR44      -0.2208
     71  CG2        6.1790   20.7410   22.9350 C.3    44  THR44       0.0379
     72  N         10.0840   22.5780   21.8340 N.am   45  PRO45      -0.2715
     73  CA        11.5240   22.8680   21.9110 C.3    45  PRO45       0.1536
     74  C         12.3100   21.8190   22.7030 C.2    45  PRO45       0.2599
     75  O         11.8940   21.3690   23.7790 O.2    45  PRO45      -0.2715
     76  CB        11.5620   24.2330   22.6100 C.3    45  PRO45       0.0310
     77  CG        10.2860   24.9020   22.1510 C.3    45  PRO45       0.0237
     78  CD         9.2690   23.7750   22.1370 C.3    45  PRO45       0.0939
     79  N         13.4370   21.4080   22.1450 N.am   46  THR46      -0.1951
     80  CA        14.2620   20.3570   22.7430 C.3    46  THR46       0.1897
     81  C         15.1180   20.9130   23.8680 C.2    46  THR46       0.2313
     82  O         15.9460   21.7950   23.6480 O.2    46  THR46      -0.2863
     83  CB        15.1590   19.7050   21.6730 C.3    46  THR46       0.1794
     84  OG1       14.3460   19.3280   20.5530 O.3    46  THR46      -0.2208
     85  CG2       15.9120   18.4670   22.2320 C.3    46  THR46       0.0378
     86  N         20.1430   14.6720   17.5530 N.3    65  ASP65      -0.1239
     87  CA        19.4700   15.9610   17.4160 C.3    65  ASP65       0.1674
     88  C         19.6240   16.7380   18.7240 C.2    65  ASP65       0.2266
     89  O         18.9710   16.4370   19.7200 O.2    65  ASP65      -0.2867
     90  CB        17.9860   15.7320   17.0340 C.3    65  ASP65       0.1410
     91  CG        17.0750   16.9250   17.3490 C.2    65  ASP65       0.3668
     92  OD1       17.5220   18.0910   17.2480 O.co2  65  ASP65      -0.2456
     93  OD2       15.8850   16.6930   17.6860 O.co2  65  ASP65      -0.2456
     94  N         19.3330   20.0830   21.1520 N.3    67  GLY67      -0.1210
     95  CA        18.6070   21.3360   21.3160 C.3    67  GLY67       0.1956
     96  C         19.4090   22.5640   20.8790 C.2    67  GLY67       0.2612
     97  O         20.6320   22.6420   21.0860 O.2    67  GLY67      -0.2717
     98  N         18.7230   23.5250   20.2720 N.am   68  GLY68      -0.1942
     99  CA        19.3930   24.6590   19.6530 C.3    68  GLY68       0.2014
    100  C         19.3850   25.9670   20.4320 C.2    68  GLY68       0.2638
    101  O         20.0510   26.9410   20.0320 O.2    68  GLY68      -0.2714
    102  N         18.6560   26.0020   21.5440 N.am   69  GLN69      -0.1977
    103  CA        18.6360   27.2130   22.3760 C.3    69  GLN69       0.1601
    104  C         20.0430   27.5760   22.8010 C.2    69  GLN69       0.2287
    105  O         20.9030   26.7000   22.9760 O.2    69  GLN69      -0.2864
    106  CB        17.7600   27.0450   23.6230 C.3    69  GLN69       0.0394
    107  CG        16.2740   27.0980   23.3610 C.3    69  GLN69       0.0908
    108  CD        15.4810   26.6370   24.5700 C.2    69  GLN69       0.2608
    109  OE1       15.1230   27.4420   25.4240 O.2    69  GLN69      -0.2717
    110  NE2       15.2320   25.3300   24.6630 N.am   69  GLN69      -0.0878
    111  N         16.2800   24.7370    5.2630 N.3   124  ASN124     -0.1225
    112  CA        14.9660   24.2200    5.6090 C.3   124  ASN124      0.1785
    113  C         13.8170   25.2350    5.4470 C.2   124  ASN124      0.2597
    114  O         14.0600   26.4080    5.1720 O.2   124  ASN124     -0.2718
    115  CB        15.0060   23.7100    7.0530 C.3   124  ASN124      0.1169
    116  CG        13.8040   22.8680    7.4060 C.2   124  ASN124      0.2627
    117  OD1       13.2190   22.2160    6.5430 O.2   124  ASN124     -0.2716
    118  ND2       13.4030   22.9090    8.6700 N.am  124  ASN124     -0.0877
    119  N         12.5780   24.7520    5.6060 N.am  125  LYS125     -0.1980
    120  CA        11.3500   25.5580    5.5450 C.3   125  LYS125      0.1596
    121  C         11.1570   26.1890    4.1720 C.2   125  LYS125      0.2287
    122  O         10.6260   27.2740    4.0620 O.2   125  LYS125     -0.2864
    123  CB        11.3420   26.6500    6.6380 C.3   125  LYS125      0.0298
    124  CG        11.6540   26.1030    8.0460 C.3   125  LYS125      0.0038
    125  CD        11.0310   26.9230    9.1610 C.3   125  LYS125      0.0206
    126  CE        11.4890   26.4160   10.5260 C.3   125  LYS125      0.1093
    127  NZ        11.1040   27.2970   11.6660 N.3   125  LYS125     -0.1314
    128  N          9.0730   25.4020    2.1010 N.3   127  ASP127     -0.1225
    129  CA         7.6370   25.4370    1.8230 C.3   127  ASP127      0.1805
    130  C          7.0880   26.8550    2.0070 C.2   127  ASP127      0.2597
    131  O          6.0660   27.2030    1.4330 O.2   127  ASP127     -0.2718
    132  CB         6.8830   24.4590    2.7360 C.3   127  ASP127      0.1424
    133  CG         7.1910   24.6850    4.2240 C.2   127  ASP127      0.3668
    134  OD1        8.3230   24.3700    4.6800 O.co2 127  ASP127     -0.2456
    135  OD2        6.2980   25.1870    4.9350 O.co2 127  ASP127     -0.2456
    136  N          7.7850   27.6650    2.8070 N.am  128  LEU128     -0.1979
    137  CA         7.3450   29.0210    3.1300 C.3   128  LEU128      0.1596
    138  C          7.6450   29.9930    1.9840 C.2   128  LEU128      0.2287
    139  O          8.7360   29.9850    1.4120 O.2   128  LEU128     -0.2864
    140  CB         7.9970   29.5060    4.4380 C.3   128  LEU128      0.0297
    141  CG         7.5790   28.7310    5.7060 C.3   128  LEU128      0.0022
    142  CD1        8.2940   29.2130    6.9740 C.3   128  LEU128      0.0001
    143  CD2        6.0630   28.7680    5.9030 C.3   128  LEU128      0.0001
    144  N         12.2140   20.8960    3.0570 N.3   157  SER157     -0.1202
    145  CA        11.1650   21.2030    3.9990 C.3   157  SER157      0.2020
    146  C         10.9870   19.9660    4.8620 C.2   157  SER157      0.2619
    147  O         10.5470   18.9410    4.3730 O.2   157  SER157     -0.2717
    148  CB         9.8610   21.5700    3.2860 C.3   157  SER157      0.2103
    149  OG         8.7970   21.6910    4.2120 O.3   157  SER157     -0.2182
    150  N         11.3770   20.0540    6.1280 N.am  158  ALA158     -0.1965
    151  CA        11.1890   18.9550    7.0610 C.3   158  ALA158      0.1728
    152  C          9.7010   18.7270    7.2710 C.2   158  ALA158      0.2616
    153  O          9.2580   17.6090    7.4720 O.2   158  ALA158     -0.2715
    154  CB        11.8670   19.2500    8.3760 C.3   158  ALA158      0.0334
    155  N          8.9250   19.7990    7.2040 N.am  159  LEU159     -0.1977
    156  CA         7.4920   19.6840    7.4200 C.3   159  LEU159      0.1596
    157  C          6.8200   18.8620    6.3150 C.2   159  LEU159      0.2287
    158  O          6.0900   17.9120    6.6070 O.2   159  LEU159     -0.2864
    159  CB         6.8710   21.0740    7.5240 C.3   159  LEU159      0.0297
    160  CG         5.3460   21.1630    7.5740 C.3   159  LEU159      0.0022
    161  CD1        4.7660   20.3990    8.7590 C.3   159  LEU159      0.0001
    162  CD2        4.9500   22.6250    7.6170 C.3   159  LEU159      0.0001
@<TRIPOS>BOND
     1   139   138    2
     2   131   130    2
     3   129   130    1
     4   129   128    1
     5   129   132    1
     6   138   137    1
     7   130   136   am
     8   132   133    1
     9   136   137    1
    10   144   145    1
    11   137   140    1
    12   148   145    1
    13   148   149    1
    14   145   146    1
    15   122   121    2
    16   121   120    1
    17   133   134   ar
    18   133   135   ar
    19   147   146    2
    20   140   141    1
    21   146   150   am
    22   114   113    2
    23   111   112    1
    24   113   119   am
    25   113   112    1
    26   120   119    1
    27   120   123    1
    28   112   115    1
    29   141   143    1
    30   141   142    1
    31   150   151    1
    32   157   158    2
    33   157   156    1
    34   117   116    2
    35   123   124    1
    36   115   116    1
    37   151   152    1
    38   151   154    1
    39   155   152   am
    40   155   156    1
    41   152   153    2
    42   116   118   am
    43   156   159    1
    44   159   160    1
    45   160   162    1
    46   160   161    1
    47   124   125    1
    48   125   126    1
    49    56    54    1
    50   126   127    1
    51    20    19    2
    52    48    46    1
    53    45    44    2
    54    54    53    1
    55    44    43    1
    56    25    24    2
    57    55    53    1
    58    19    18    1
    59    19    22   am
    60    46    43    1
    61    46    47    1
    62    53    50    1
    63    23    24    1
    64    23    22    1
    65    24    26   am
    66    21    18    1
    67    18    17    1
    68    43    42    1
    69    49    50    1
    70    26    27    1
    71    29    28    2
    72    12    11    2
    73    27    28    1
    74    27    30    1
    75    50    51    1
    76    42    37   am
    77    28    35   am
    78    31    30    1
    79    31    32    1
    80    17    11   am
    81    51    52    2
    82    11    10    1
    83    38    37    2
    84    16    14   am
    85    37    36    1
    86    35    36    1
    87    32    33    1
    88    64    62    1
    89    14    15    2
    90    14    13    1
    91    36    39    1
    92    10    13    1
    93    10     9    1
    94     4     3    2
    95    34    33    1
    96    62    61    1
    97     9     3   am
    98    39    41    1
    99    39    40    1
   100    90    91    1
   101    90    87    1
   102     3     2    1
   103    92    91   ar
   104    91    93   ar
   105    61    63    1
   106    61    58    1
   107    87    86    1
   108    87    88    1
   109     1     2    1
   110     2     5    1
   111    57    58    1
   112    58    59    1
   113    88    89    2
   114    60    59    2
   115     8     6   ar
   116     6     7   ar
   117     6     5    1
   118    59    65   am
   119    99    98    1
   120    99   100    1
   121   101   100    2
   122    98    96   am
   123   100   102   am
   124    84    83    1
   125    65    66    1
   126    96    97    2
   127    96    95    1
   128    68    67    2
   129    94    95    1
   130    67    66    1
   131    67    72   am
   132    66    69    1
   133   102   103    1
   134    83    85    1
   135    83    80    1
   136    72    73    1
   137    72    78    1
   138    73    76    1
   139    73    74    1
   140    78    77    1
   141    79    74   am
   142    79    80    1
   143    77    76    1
   144   103   104    1
   145   103   106    1
   146    74    75    2
   147    80    81    1
   148   104   105    2
   149    69    71    1
   150    69    70    1
   151   107   106    1
   152   107   108    1
   153    82    81    2
   154   108   110   am
   155   108   109    2
