@<TRIPOS>MOLECULE
tmp/4zi7C00.pdb
 82 76 0 0 0
SMALL
GASTEIGER

@<TRIPOS>ATOM
      1  N         -5.5340   29.6570    7.7420 N.3   248  LEU248     -0.1245
      2  CA        -5.3720   30.9280    8.4270 C.3   248  LEU248      0.1561
      3  C         -6.0110   32.0630    7.6640 C.2   248  LEU248      0.2260
      4  O         -5.9460   33.2310    8.0530 O.2   248  LEU248     -0.2867
      5  CB        -3.8890   31.1880    8.6840 C.3   248  LEU248      0.0270
      6  CG        -3.2660   30.1230    9.5950 C.3   248  LEU248      0.0019
      7  CD1       -1.7550   30.2360    9.5820 C.3   248  LEU248      0.0001
      8  CD2       -3.8090   30.1940   11.0180 C.3   248  LEU248      0.0001
      9  N          3.3910   32.6800   10.9660 N.3   325  PRO325     -0.2116
     10  CA         2.7830   33.2070   12.1620 C.3   325  PRO325      0.1372
     11  C          3.7120   33.8100   13.1500 C.2   325  PRO325      0.2244
     12  O          3.4710   34.9330   13.5720 O.2   325  PRO325     -0.2868
     13  CB         2.0770   31.9880   12.7130 C.3   325  PRO325      0.0268
     14  CG         1.5270   31.3720   11.4630 C.3   325  PRO325      0.0207
     15  CD         2.6890   31.4540   10.5220 C.3   325  PRO325      0.0892
     16  N          4.4460   37.3380   12.0300 N.3   328  VAL328     -0.1231
     17  CA         3.2830   38.2120   12.1870 C.3   328  VAL328      0.1692
     18  C          3.0410   38.6100   13.6260 C.2   328  VAL328      0.2592
     19  O          2.8950   39.8060   13.9380 O.2   328  VAL328     -0.2718
     20  CB         2.0640   37.5280   11.6980 C.3   328  VAL328      0.0266
     21  CG1        0.8430   38.3040   12.0760 C.3   328  VAL328      0.0020
     22  CG2        2.1870   37.3850   10.2050 C.3   328  VAL328      0.0020
     23  N          3.0540   37.6410   14.5290 N.am  329  ASN329     -0.1974
     24  CA         2.8940   37.9930   15.9560 C.3   329  ASN329      0.1688
     25  C          3.9900   38.8660   16.4630 C.2   329  ASN329      0.2292
     26  O          3.7270   39.7790   17.2190 O.2   329  ASN329     -0.2864
     27  CB         2.8000   36.7520   16.8570 C.3   329  ASN329      0.1181
     28  CG         1.5650   35.9280   16.5820 C.2   329  ASN329      0.2629
     29  OD1        0.5750   36.4420   16.0770 O.2   329  ASN329     -0.2716
     30  ND2        1.6370   34.6390   16.8370 N.am  329  ASN329     -0.0877
     31  N          3.5900   42.4230   15.1550 N.3   332  ILE332     -0.1231
     32  CA         2.5120   43.1040   15.8390 C.3   332  ILE332      0.1692
     33  C          2.8340   43.4720   17.2780 C.2   332  ILE332      0.2591
     34  O          2.4730   44.5480   17.7080 O.2   332  ILE332     -0.2718
     35  CB         1.2040   42.3080   15.7590 C.3   332  ILE332      0.0266
     36  CG1        0.7040   42.3520   14.3360 C.3   332  ILE332      0.0019
     37  CG2        0.1180   42.9440   16.6200 C.3   332  ILE332      0.0020
     38  CD1       -0.3260   41.3050   14.0260 C.3   332  ILE332      0.0001
     39  N          3.5170   42.6050   18.0130 N.am  333  ALA333     -0.1980
     40  CA         4.0130   42.9530   19.3550 C.3   333  ALA333      0.1597
     41  C          4.9140   44.1720   19.3080 C.2   333  ALA333      0.2287
     42  O          4.7490   45.0970   20.0720 O.2   333  ALA333     -0.2864
     43  CB         4.7600   41.7910   19.9510 C.3   333  ALA333      0.0319
     44  N          2.7170   47.3220   19.0850 N.3   336  LYS336     -0.1245
     45  CA         2.0210   47.6060   20.3400 C.3   336  LYS336      0.1561
     46  C          2.9600   48.0670   21.4290 C.2   336  LYS336      0.2260
     47  O          2.5770   48.8510   22.2830 O.2   336  LYS336     -0.2867
     48  CB         1.3280   46.3570   20.8440 C.3   336  LYS336      0.0271
     49  CG         0.3170   45.7760   19.8750 C.3   336  LYS336      0.0035
     50  CD        -0.4480   44.6070   20.4950 C.3   336  LYS336      0.0206
     51  CE        -1.9570   44.8730   20.5070 C.3   336  LYS336      0.1093
     52  NZ        -2.4760   45.5720   19.2680 N.3   336  LYS336     -0.1314
     53  N         -6.6940   44.7250   19.9190 N.3   350  GLY350     -0.1210
     54  CA        -6.2100   43.7070   18.9900 C.3   350  GLY350      0.1956
     55  C         -6.1890   44.1330   17.5200 C.2   350  GLY350      0.2611
     56  O         -6.7890   45.1450   17.1410 O.2   350  GLY350     -0.2717
     57  N         -5.4800   43.3580   16.7070 N.am  351  PHE351     -0.1976
     58  CA        -5.4560   43.5400   15.2820 C.3   351  PHE351      0.1639
     59  C         -5.9570   42.2230   14.8020 C.2   351  PHE351      0.2290
     60  O         -5.4380   41.1950   15.2050 O.2   351  PHE351     -0.2864
     61  CB        -4.0480   43.6660   14.6930 C.3   351  PHE351      0.0560
     62  CG        -3.3230   44.9220   15.0190 C.ar  351  PHE351     -0.0200
     63  CD1       -3.7770   45.8200   15.9490 C.ar  351  PHE351     -0.0042
     64  CD2       -2.1390   45.1950   14.3720 C.ar  351  PHE351     -0.0042
     65  CE1       -3.0840   46.9780   16.2230 C.ar  351  PHE351     -0.0003
     66  CE2       -1.4150   46.3530   14.6510 C.ar  351  PHE351     -0.0003
     67  CZ        -1.9010   47.2440   15.5780 C.ar  351  PHE351     -0.0000
     68  N         -6.2310   39.5020   11.9220 N.3   353  VAL353     -0.1245
     69  CA        -5.2970   39.1240   10.8960 C.3   353  VAL353      0.1561
     70  C         -5.7010   37.9060   10.0550 C.2   353  VAL353      0.2260
     71  O         -6.0720   36.8640   10.5750 O.2   353  VAL353     -0.2867
     72  CB        -3.9860   38.8020   11.5720 C.3   353  VAL353      0.0252
     73  CG1       -2.9850   38.2720   10.5840 C.3   353  VAL353      0.0019
     74  CG2       -3.4350   40.0240   12.2730 C.3   353  VAL353      0.0019
     75  N         -4.1210   35.3720    6.7050 N.3   355  ILE355     -0.1245
     76  CA        -2.9730   35.0230    5.9010 C.3   355  ILE355      0.1561
     77  C         -3.4140   34.1430    4.7660 C.2   355  ILE355      0.2260
     78  O         -4.1230   33.2050    5.0230 O.2   355  ILE355     -0.2867
     79  CB        -1.9770   34.2790    6.7930 C.3   355  ILE355      0.0252
     80  CG1       -1.4820   35.2100    7.8850 C.3   355  ILE355      0.0019
     81  CG2       -0.7750   33.8550    6.0040 C.3   355  ILE355      0.0019
     82  CD1       -0.4750   34.5930    8.7850 C.3   355  ILE355      0.0001
@<TRIPOS>BOND
     1    77    78    2
     2    77    76    1
     3    76    75    1
     4    76    79    1
     5    81    79    1
     6    79    80    1
     7     3     4    2
     8     3     2    1
     9     1     2    1
    10    80    82    1
    11     2     5    1
    12     5     6    1
    13     7     6    1
    14     6     8    1
    15    70    71    2
    16    70    69    1
    17    22    20    1
    18    15     9    1
    19    15    14    1
    20    73    72    1
    21    69    72    1
    22    69    68    1
    23     9    10    1
    24    14    13    1
    25    72    74    1
    26    20    21    1
    27    20    17    1
    28    16    17    1
    29    10    13    1
    30    10    11    1
    31    17    18    1
    32    11    12    2
    33    18    19    2
    34    18    23   am
    35    38    36    1
    36    36    35    1
    37    64    66   ar
    38    64    62   ar
    39    23    24    1
    40    66    67   ar
    41    61    62    1
    42    61    58    1
    43    59    60    2
    44    59    58    1
    45    62    63   ar
    46    31    32    1
    47    58    57    1
    48    67    65   ar
    49    35    32    1
    50    35    37    1
    51    32    33    1
    52    63    65   ar
    53    24    25    1
    54    24    27    1
    55    29    28    2
    56    25    26    2
    57    28    30   am
    58    28    27    1
    59    57    55   am
    60    56    55    2
    61    33    34    2
    62    33    39   am
    63    55    54    1
    64    39    40    1
    65    54    53    1
    66    44    45    1
    67    52    51    1
    68    41    40    1
    69    41    42    2
    70    40    43    1
    71    49    50    1
    72    49    48    1
    73    45    48    1
    74    45    46    1
    75    50    51    1
    76    46    47    2
