@<TRIPOS>MOLECULE
tmp/4zi7B03.pdb
 94 94 0 0 0
SMALL
GASTEIGER

@<TRIPOS>ATOM
      1  N         -8.9350   37.6110   24.4850 N.3   173  PRO173     -0.2102
      2  CA        -8.2630   38.4240   23.4860 C.3   173  PRO173      0.1504
      3  C         -6.7640   38.0740   23.2970 C.2   173  PRO173      0.2576
      4  O         -6.1230   38.6540   22.3980 O.2   173  PRO173     -0.2718
      5  CB        -8.4210   39.8490   24.0110 C.3   173  PRO173      0.0282
      6  CG        -8.6270   39.7110   25.4550 C.3   173  PRO173      0.0208
      7  CD        -9.0520   38.2970   25.7710 C.3   173  PRO173      0.0893
      8  N         -6.2050   37.1350   24.0700 N.am  174  LYS174     -0.1966
      9  CA        -4.8050   36.7140   23.7970 C.3   174  LYS174      0.1728
     10  C         -4.7460   35.6510   22.7180 C.2   174  LYS174      0.2616
     11  O         -3.6740   35.1120   22.3580 O.2   174  LYS174     -0.2715
     12  CB        -4.1730   36.1520   25.0370 C.3   174  LYS174      0.0311
     13  CG        -4.0070   37.1850   26.1190 C.3   174  LYS174      0.0038
     14  CD        -3.2500   36.5280   27.2530 C.3   174  LYS174      0.0206
     15  CE        -2.9560   37.4920   28.3970 C.3   174  LYS174      0.1093
     16  NZ        -2.3030   36.6870   29.4860 N.3   174  LYS174     -0.1314
     17  N         -5.9160   35.3190   22.2150 N.am  175  VAL175     -0.1963
     18  CA        -6.0460   34.1970   21.3170 C.3   175  VAL175      0.1727
     19  C         -6.8970   34.5670   20.1390 C.2   175  VAL175      0.2617
     20  O         -6.6860   34.0080   19.0700 O.2   175  VAL175     -0.2715
     21  CB        -6.6880   33.0010   22.0360 C.3   175  VAL175      0.0290
     22  CG1       -7.0710   31.9340   21.0360 C.3   175  VAL175      0.0023
     23  CG2       -5.7250   32.4090   23.0500 C.3   175  VAL175      0.0023
     24  N         -7.8470   35.5120   20.3260 N.am  176  SER176     -0.1936
     25  CA        -8.7020   35.9510   19.2390 C.3   176  SER176      0.2055
     26  C         -8.8830   37.4160   19.2430 C.2   176  SER176      0.2643
     27  O         -9.0580   38.0240   20.2980 O.2   176  SER176     -0.2714
     28  CB       -10.0680   35.3260   19.3830 C.3   176  SER176      0.2130
     29  OG       -10.9700   35.8240   18.4000 O.3   176  SER176     -0.2179
     30  N         -8.9060   37.9990   18.0590 N.am  177  ASP177     -0.1971
     31  CA        -9.1230   39.4150   17.9500 C.3   177  ASP177      0.1709
     32  C        -10.5350   39.7120   17.4830 C.2   177  ASP177      0.2293
     33  O        -10.8590   40.8390   17.1770 O.2   177  ASP177     -0.2864
     34  CB        -8.1190   40.0280   16.9890 C.3   177  ASP177      0.1436
     35  CG        -6.6700   39.8130   17.4450 C.2   177  ASP177      0.3671
     36  OD1       -6.1290   40.6230   18.2680 O.co2 177  ASP177     -0.2456
     37  OD2       -6.0730   38.8500   16.9400 O.co2 177  ASP177     -0.2456
     38  N         -3.3630   29.1830   26.4340 N.3   208  TYR208     -0.1241
     39  CA        -2.3190   29.8620   25.7030 C.3   208  TYR208      0.1605
     40  C         -1.1450   30.0910   26.6570 C.2   208  TYR208      0.2264
     41  O         -0.0500   29.6660   26.3590 O.2   208  TYR208     -0.2867
     42  CB        -2.8150   31.1810   25.0640 C.3   208  TYR208      0.0534
     43  CG        -1.8470   31.8140   24.0650 C.ar  208  TYR208     -0.0201
     44  CD1       -1.8290   31.4140   22.7380 C.ar  208  TYR208     -0.0009
     45  CD2       -0.9360   32.8120   24.4580 C.ar  208  TYR208     -0.0009
     46  CE1       -0.9510   31.9750   21.8060 C.ar  208  TYR208      0.0417
     47  CE2       -0.0450   33.3750   23.5390 C.ar  208  TYR208      0.0417
     48  CZ        -0.0720   32.9400   22.2110 C.ar  208  TYR208      0.1957
     49  OH         0.7500   33.4610   21.2560 O.3   208  TYR208     -0.2866
     50  N          5.1370   29.7700   19.4440 N.3   219  THR219     -0.1204
     51  CA         3.9930   30.0470   18.6020 C.3   219  THR219      0.1979
     52  C          2.9540   28.9450   18.7360 C.2   219  THR219      0.2460
     53  O          2.7990   28.0360   17.8490 O.2   219  THR219     -0.2732
     54  CB         4.4270   30.2540   17.1500 C.3   219  THR219      0.1783
     55  OG1        5.3630   31.3400   17.1360 O.3   219  THR219     -0.2211
     56  CG2        3.2500   30.5870   16.2540 C.3   219  THR219      0.0376
     57  N          2.2070   29.0330   19.8340 N.am  220  PRO220     -0.2717
     58  CA         1.2050   28.0230   20.0510 C.3   220  PRO220      0.1536
     59  C          0.2020   28.0780   18.9640 C.2   220  PRO220      0.2599
     60  O         -0.1270   29.1640   18.5140 O.2   220  PRO220     -0.2715
     61  CB         0.5730   28.4350   21.3800 C.3   220  PRO220      0.0310
     62  CG         1.6120   29.2500   22.0500 C.3   220  PRO220      0.0237
     63  CD         2.2640   30.0050   20.9370 C.3   220  PRO220      0.0939
     64  N         -0.2180   26.9110   18.5040 N.am  221  THR221     -0.1937
     65  CA        -1.3140   26.7540   17.5750 C.3   221  THR221      0.2028
     66  C         -2.5460   26.1680   18.2600 C.2   221  THR221      0.2642
     67  O         -2.5080   25.7780   19.4430 O.2   221  THR221     -0.2714
     68  CB        -0.9310   25.7340   16.5030 C.3   221  THR221      0.1808
     69  OG1       -0.7760   24.4590   17.1110 O.3   221  THR221     -0.2208
     70  CG2        0.3940   26.1450   15.8200 C.3   221  THR221      0.0379
     71  N         -3.6400   26.0640   17.5150 N.am  222  TYR222     -0.1959
     72  CA        -4.8620   25.5450   18.0820 C.3   222  TYR222      0.1771
     73  C         -4.6590   24.0850   18.4030 C.2   222  TYR222      0.2620
     74  O         -5.2580   23.5470   19.3540 O.2   222  TYR222     -0.2715
     75  CB        -6.0730   25.7820   17.1540 C.3   222  TYR222      0.0574
     76  CG        -6.6650   27.1770   17.3100 C.ar  222  TYR222     -0.0198
     77  CD1       -7.1250   27.6380   18.5570 C.ar  222  TYR222     -0.0009
     78  CD2       -6.7620   28.0470   16.2300 C.ar  222  TYR222     -0.0009
     79  CE1       -7.6540   28.9140   18.7090 C.ar  222  TYR222      0.0417
     80  CE2       -7.2750   29.3360   16.3880 C.ar  222  TYR222      0.0417
     81  CZ        -7.7460   29.7490   17.6090 C.ar  222  TYR222      0.1957
     82  OH        -8.2510   31.0320   17.7450 O.3   222  TYR222     -0.2866
     83  N         -3.7910   23.4470   17.6230 N.am  223  GLY223     -0.1954
     84  CA        -3.3730   22.0690   17.8930 C.3   223  GLY223      0.1869
     85  C         -2.7820   21.9150   19.2850 C.2   223  GLY223      0.2309
     86  O         -3.1090   20.9850   19.9980 O.2   223  GLY223     -0.2863
     87  N         -3.2690   23.9850   21.8690 N.3   225  LEU225     -0.1245
     88  CA        -4.2970   24.3230   22.8310 C.3   225  LEU225      0.1561
     89  C         -5.2440   23.1300   22.9900 C.2   225  LEU225      0.2260
     90  O         -5.6080   22.7440   24.1090 O.2   225  LEU225     -0.2867
     91  CB        -5.0580   25.5430   22.3340 C.3   225  LEU225      0.0270
     92  CG        -4.4800   26.8710   22.8240 C.3   225  LEU225      0.0019
     93  CD1       -3.0120   27.0450   22.5520 C.3   225  LEU225      0.0001
     94  CD2       -5.2570   28.0040   22.2060 C.3   225  LEU225      0.0001
@<TRIPOS>BOND
     1    70    68    1
     2    78    80   ar
     3    78    76   ar
     4    56    54    1
     5    80    81   ar
     6    68    69    1
     7    68    65    1
     8    37    35   ar
     9    34    35    1
    10    34    31    1
    11    55    54    1
    12    54    51    1
    13    75    76    1
    14    75    72    1
    15    33    32    2
    16    76    77   ar
    17    35    36   ar
    18    32    31    1
    19    71    72    1
    20    71    66   am
    21    65    66    1
    22    65    64    1
    23    81    82    1
    24    81    79   ar
    25    83    84    1
    26    83    73   am
    27    53    52    2
    28    84    85    1
    29    31    30    1
    30    30    26   am
    31    72    73    1
    32    66    67    2
    33    29    28    1
    34    73    74    2
    35    64    59   am
    36    60    59    2
    37    77    79   ar
    38    51    52    1
    39    51    50    1
    40    52    57   am
    41    59    58    1
    42    20    19    2
    43    25    26    1
    44    25    28    1
    45    25    24    1
    46    26    27    2
    47    85    86    2
    48    57    58    1
    49    57    63    1
    50    58    61    1
    51    19    24   am
    52    19    18    1
    53    63    62    1
    54    22    21    1
    55    49    48    1
    56    18    21    1
    57    18    17    1
    58    61    62    1
    59    46    48   ar
    60    46    44   ar
    61    87    88    1
    62    21    23    1
    63    94    92    1
    64    48    47   ar
    65    17    10   am
    66    91    92    1
    67    91    88    1
    68    11    10    2
    69     4     3    2
    70    93    92    1
    71    10     9    1
    72    44    43   ar
    73    88    89    1
    74    89    90    2
    75     3     2    1
    76     3     8   am
    77     2     5    1
    78     2     1    1
    79    47    45   ar
    80     9     8    1
    81     9    12    1
    82     5     6    1
    83    43    45   ar
    84    43    42    1
    85     1     7    1
    86    12    13    1
    87    42    39    1
    88     6     7    1
    89    39    38    1
    90    39    40    1
    91    13    14    1
    92    41    40    2
    93    14    15    1
    94    15    16    1
