@<TRIPOS>MOLECULE
tmp/4zibA01.pdb
 120 113 0 0 0
SMALL
GASTEIGER

@<TRIPOS>ATOM
      1  N          8.2580   51.8210   41.9920 N.3    85  MET85      -0.1245
      2  CA         7.6710   50.8700   41.0540 C.3    85  MET85       0.1570
      3  C          6.5690   50.0490   41.7200 C.2    85  MET85       0.2261
      4  O          6.0390   49.1100   41.1260 O.2    85  MET85      -0.2867
      5  CB         8.7440   49.9400   40.4830 C.3    85  MET85       0.0387
      6  CG         9.5760   50.5550   39.3670 C.3    85  MET85       0.0595
      7  SD         8.6090   50.9500   37.8950 S.3    85  MET85      -0.1393
      8  CE         7.9820   49.3300   37.4560 C.3    85  MET85       0.0692
      9  N         15.1090   45.3600   36.7740 N.3   109  MET109     -0.1230
     10  CA        14.1810   45.6100   35.6840 C.3   109  MET109      0.1702
     11  C         14.5550   46.8790   34.9290 C.2   109  MET109      0.2592
     12  O         15.3470   47.6870   35.4120 O.2   109  MET109     -0.2718
     13  CB        12.7550   45.7150   36.2250 C.3   109  MET109      0.0401
     14  CG        12.5660   46.8060   37.2640 C.3   109  MET109      0.0596
     15  SD        10.9400   46.7420   38.0430 S.3   109  MET109     -0.1393
     16  CE        10.9200   45.0510   38.6230 C.3   109  MET109      0.0692
     17  N         13.9730   47.0530   33.7460 N.am  110  LEU110     -0.1966
     18  CA        14.2950   48.1950   32.8950 C.3   110  LEU110      0.1728
     19  C         13.2580   49.3180   32.9590 C.2   110  LEU110      0.2616
     20  O         13.5440   50.4490   32.5690 O.2   110  LEU110     -0.2715
     21  CB        14.4510   47.7360   31.4460 C.3   110  LEU110      0.0311
     22  CG        15.5610   46.7270   31.1460 C.3   110  LEU110      0.0022
     23  CD1       15.5510   46.3570   29.6710 C.3   110  LEU110      0.0001
     24  CD2       16.9130   47.2840   31.5530 C.3   110  LEU110      0.0001
     25  N         12.0620   49.0050   33.4500 N.am  111  ALA111     -0.1977
     26  CA        10.9390   49.9490   33.4360 C.3   111  ALA111      0.1597
     27  C         11.2000   51.3240   34.0830 C.2   111  ALA111      0.2287
     28  O         10.8060   52.3410   33.5100 O.2   111  ALA111     -0.2864
     29  CB         9.7180   49.3030   34.0830 C.3   111  ALA111      0.0319
     30  N         13.2420   53.4350   31.6900 N.3   114  LEU114     -0.1245
     31  CA        12.4940   53.6810   30.4630 C.3   114  LEU114      0.1561
     32  C         11.3230   54.6330   30.7120 C.2   114  LEU114      0.2260
     33  O         11.0090   55.4730   29.8660 O.2   114  LEU114     -0.2867
     34  CB        12.0020   52.3650   29.8640 C.3   114  LEU114      0.0270
     35  CG        13.1190   51.4600   29.3270 C.3   114  LEU114      0.0019
     36  CD1       12.5410   50.1990   28.7080 C.3   114  LEU114      0.0001
     37  CD2       13.9840   52.2100   28.3220 C.3   114  LEU114      0.0001
     38  N         18.6260   39.7020   39.6480 N.3   139  ARG139     -0.1245
     39  CA        17.6370   39.2390   40.6170 C.3   139  ARG139      0.1563
     40  C         18.1520   38.0290   41.3820 C.2   139  ARG139      0.2260
     41  O         18.6690   37.0900   40.7850 O.2   139  ARG139     -0.2867
     42  CB        16.3190   38.8740   39.9300 C.3   139  ARG139      0.0307
     43  CG        15.6370   40.0220   39.2200 C.3   139  ARG139      0.0489
     44  CD        14.3320   39.5820   38.5940 C.3   139  ARG139      0.2205
     45  NE        13.7570   40.6380   37.7670 N.pl3 139  ARG139     -0.0865
     46  CZ        12.5780   40.5560   37.1610 C.cat 139  ARG139      0.5346
     47  NH1       11.8360   39.4640   37.2920 N.pl3 139  ARG139      0.1354
     48  NH2       12.1400   41.5700   36.4270 N.pl3 139  ARG139      0.1354
     49  N         18.0790   41.7180   29.6790 N.3   153  MET153     -0.1245
     50  CA        16.7020   41.9760   29.2890 C.3   153  MET153      0.1570
     51  C         16.5900   42.9520   28.1240 C.2   153  MET153      0.2261
     52  O         17.3190   43.9420   28.0510 O.2   153  MET153     -0.2867
     53  CB        15.8980   42.5120   30.4760 C.3   153  MET153      0.0387
     54  CG        14.3930   42.4490   30.2520 C.3   153  MET153      0.0595
     55  SD        13.4480   43.2110   31.5780 S.3   153  MET153     -0.1393
     56  CE        13.9140   42.1710   32.9610 C.3   153  MET153      0.0692
     57  N         13.9130   45.6000   26.7620 N.3   155  GLY155     -0.1210
     58  CA        12.7020   46.3120   27.1180 C.3   155  GLY155      0.1956
     59  C         12.3860   47.3460   26.0620 C.2   155  GLY155      0.2612
     60  O         13.2640   48.1020   25.6570 O.2   155  GLY155     -0.2717
     61  N         11.1430   47.3760   25.5930 N.am  156  PHE156     -0.1962
     62  CA        10.7340   48.4210   24.6590 C.3   156  PHE156      0.1771
     63  C          9.4000   49.0270   25.0730 C.2   156  PHE156      0.2619
     64  O          8.5740   48.3660   25.6990 O.2   156  PHE156     -0.2715
     65  CB        10.6650   47.8860   23.2220 C.3   156  PHE156      0.0574
     66  CG         9.5970   46.8440   22.9940 C.ar  156  PHE156     -0.0200
     67  CD1        9.8870   45.4950   23.1200 C.ar  156  PHE156     -0.0042
     68  CD2        8.3130   47.2140   22.6180 C.ar  156  PHE156     -0.0042
     69  CE1        8.9130   44.5340   22.8970 C.ar  156  PHE156     -0.0003
     70  CE2        7.3330   46.2570   22.3960 C.ar  156  PHE156     -0.0003
     71  CZ         7.6330   44.9170   22.5340 C.ar  156  PHE156     -0.0000
     72  N          9.2090   50.2950   24.7260 N.am  157  GLN157     -0.1977
     73  CA         7.9800   51.0060   25.0500 C.3   157  GLN157      0.1601
     74  C          7.6000   51.9690   23.9380 C.2   157  GLN157      0.2287
     75  O          8.4620   52.5970   23.3280 O.2   157  GLN157     -0.2864
     76  CB         8.1280   51.7740   26.3650 C.3   157  GLN157      0.0394
     77  CG         7.4990   51.1010   27.5720 C.3   157  GLN157      0.0908
     78  CD         7.6990   51.9040   28.8430 C.2   157  GLN157      0.2608
     79  OE1        8.7600   52.4890   29.0560 O.2   157  GLN157     -0.2717
     80  NE2        6.6740   51.9490   29.6880 N.am  157  GLN157     -0.0878
     81  N          6.8770   39.3170   29.5630 N.3   202  SER202     -0.1217
     82  CA         5.6560   39.9100   30.0860 C.3   202  SER202      0.1889
     83  C          5.4300   41.2280   29.3610 C.2   202  SER202      0.2288
     84  O          6.3380   42.0580   29.2680 O.2   202  SER202     -0.2866
     85  CB         5.7360   40.1290   31.5960 C.3   202  SER202      0.2089
     86  OG         5.4600   38.9310   32.3010 O.3   202  SER202     -0.2183
     87  N          2.6760   44.6550   28.5870 N.3   204  VAL204     -0.1245
     88  CA         1.6710   45.4770   29.2530 C.3   204  VAL204      0.1561
     89  C          1.0360   46.4750   28.2860 C.2   204  VAL204      0.2260
     90  O          1.7340   47.1220   27.5040 O.2   204  VAL204     -0.2867
     91  CB         2.2830   46.2460   30.4530 C.3   204  VAL204      0.0252
     92  CG1        1.3060   47.2780   30.9980 C.3   204  VAL204      0.0019
     93  CG2        2.7120   45.2820   31.5500 C.3   204  VAL204      0.0019
     94  N          0.2340   53.8730   26.6020 N.3   220  TRP220     -0.1241
     95  CA         1.4920   53.2560   26.2040 C.3   220  TRP220      0.1605
     96  C          1.3890   51.7390   26.1340 C.2   220  TRP220      0.2264
     97  O          0.5160   51.1320   26.7530 O.2   220  TRP220     -0.2867
     98  CB         2.6210   53.6630   27.1590 C.3   220  TRP220      0.0550
     99  CG         2.4830   53.1300   28.5530 C.ar  220  TRP220      0.0003
    100  CD1        1.8030   53.7050   29.5860 C.ar  220  TRP220      0.0946
    101  CD2        3.0550   51.9230   29.0720 C.ar  220  TRP220      0.0152
    102  NE1        1.9100   52.9280   30.7150 N.ar  220  TRP220     -0.2442
    103  CE2        2.6740   51.8280   30.4250 C.ar  220  TRP220      0.0810
    104  CE3        3.8490   50.9110   28.5230 C.ar  220  TRP220      0.0012
    105  CZ2        3.0590   50.7630   31.2350 C.ar  220  TRP220      0.0191
    106  CZ3        4.2300   49.8540   29.3300 C.ar  220  TRP220      0.0001
    107  CH2        3.8350   49.7890   30.6710 C.ar  220  TRP220      0.0015
    108  N          4.1710   48.1260   25.8860 N.3   222  GLY222     -0.1210
    109  CA         5.5480   47.7090   26.0610 C.3   222  GLY222      0.1956
    110  C          5.6980   46.2690   26.4990 C.2   222  GLY222      0.2612
    111  O          4.7150   45.5990   26.8180 O.2   222  GLY222     -0.2717
    112  N          6.9390   45.7930   26.5130 N.am  223  ALA223     -0.1965
    113  CA         7.2250   44.4200   26.9050 C.3   223  ALA223      0.1728
    114  C          8.6750   44.2700   27.3410 C.2   223  ALA223      0.2616
    115  O          9.5220   45.1070   27.0230 O.2   223  ALA223     -0.2715
    116  CB         6.9120   43.4620   25.7610 C.3   223  ALA223      0.0334
    117  N          8.9490   43.1980   28.0740 N.am  224  GLY224     -0.1955
    118  CA        10.2960   42.8800   28.5040 C.3   224  GLY224      0.1869
    119  C         10.6370   41.4350   28.1890 C.2   224  GLY224      0.2309
    120  O          9.9170   40.5250   28.5960 O.2   224  GLY224     -0.2863
@<TRIPOS>BOND
     1    70    71   ar
     2    70    68   ar
     3    71    69   ar
     4    68    66   ar
     5    69    67   ar
     6    66    67   ar
     7    66    65    1
     8    65    62    1
     9    75    74    2
    10    74    73    1
    11    62    63    1
    12    62    61    1
    13    72    73    1
    14    72    63   am
    15    73    76    1
    16    63    64    2
    17    61    59   am
    18    60    59    2
    19   116   113    1
    20   108   109    1
    21   109   110    1
    22    59    58    1
    23    96    95    1
    24    96    97    2
    25    95    94    1
    26    95    98    1
    27    76    77    1
    28   110   112   am
    29   110   111    2
    30   112   113    1
    31    57    58    1
    32   113   114    1
    33   115   114    2
    34    98    99    1
    35   114   117   am
    36    90    89    2
    37    77    78    1
    38    52    51    2
    39   117   118    1
    40    51    50    1
    41   119   118    1
    42   119   120    2
    43    89    88    1
    44    37    35    1
    45   104   101   ar
    46   104   106   ar
    47    99   101   ar
    48    99   100   ar
    49    87    88    1
    50    36    35    1
    51    78    79    2
    52    78    80   am
    53   101   103   ar
    54    88    91    1
    55    84    83    2
    56    50    49    1
    57    50    53    1
    58    35    34    1
    59   106   107   ar
    60    83    82    1
    61    81    82    1
    62   100   102   ar
    63    23    22    1
    64    34    31    1
    65    33    32    2
    66    82    85    1
    67    54    53    1
    68    54    55    1
    69   103   102   ar
    70   103   105   ar
    71    91    92    1
    72    91    93    1
    73    31    32    1
    74    31    30    1
    75   107   105   ar
    76    22    21    1
    77    22    24    1
    78    21    18    1
    79    55    56    1
    80    85    86    1
    81    20    19    2
    82    18    19    1
    83    18    17    1
    84    19    25   am
    85    26    25    1
    86    26    27    1
    87    26    29    1
    88    28    27    2
    89    17    11   am
    90    11    12    2
    91    11    10    1
    92    10    13    1
    93    10     9    1
    94    13    14    1
    95    48    46    1
    96    46    47    1
    97    46    45    2
    98    14    15    1
    99     8     7    1
   100    45    44    1
   101     7     6    1
   102    15    16    1
   103    44    43    1
   104    43    42    1
   105     6     5    1
   106    38    39    1
   107    42    39    1
   108     5     2    1
   109    39    40    1
   110    41    40    2
   111     2     3    1
   112     2     1    1
   113     4     3    2
