@<TRIPOS>MOLECULE
tmp/4zibA00.pdb
 176 167 0 0 0
SMALL
GASTEIGER

@<TRIPOS>ATOM
      1  N          7.1710   39.4980   45.8390 N.3    92  GLU92      -0.1231
      2  CA         8.3030   38.5850   45.7200 C.3    92  GLU92       0.1699
      3  C          9.5990   39.3250   45.4020 C.2    92  GLU92       0.2592
      4  O         10.6550   39.0170   45.9590 O.2    92  GLU92      -0.2718
      5  CB         8.0260   37.5370   44.6400 C.3    92  GLU92       0.0402
      6  CG         9.1680   36.5560   44.4250 C.3    92  GLU92       0.1161
      7  CD         9.0240   35.7630   43.1420 C.2    92  GLU92       0.3649
      8  OE1        8.0910   36.0510   42.3610 O.co2  92  GLU92      -0.2457
      9  OE2        9.8470   34.8510   42.9100 O.co2  92  GLU92      -0.2457
     10  N          9.5060   40.3070   44.5090 N.am   93  LEU93      -0.1980
     11  CA        10.6750   41.0180   43.9990 C.3    93  LEU93       0.1596
     12  C         11.4510   41.7840   45.0690 C.2    93  LEU93       0.2287
     13  O         12.6430   42.0400   44.9040 O.2    93  LEU93      -0.2864
     14  CB        10.2540   41.9820   42.8870 C.3    93  LEU93       0.0297
     15  CG        10.4250   41.4560   41.4610 C.3    93  LEU93       0.0022
     16  CD1        9.6120   42.2810   40.4800 C.3    93  LEU93       0.0001
     17  CD2       11.8970   41.4600   41.0770 C.3    93  LEU93       0.0001
     18  N         14.3700   39.9690   46.1690 N.3    96  GLN96      -0.1245
     19  CA        15.2680   39.5660   45.0920 C.3    96  GLN96       0.1566
     20  C         16.2790   40.6500   44.7250 C.2    96  GLN96       0.2260
     21  O         17.0990   40.4570   43.8290 O.2    96  GLN96      -0.2867
     22  CB        14.4650   39.1840   43.8470 C.3    96  GLN96       0.0367
     23  CG        13.3990   38.1300   44.0790 C.3    96  GLN96       0.0905
     24  CD        12.7910   37.6390   42.7810 C.2    96  GLN96       0.2608
     25  OE1       11.7000   38.0560   42.3930 O.2    96  GLN96      -0.2717
     26  NE2       13.4990   36.7490   42.0980 N.am   96  GLN96      -0.0878
     27  N         15.1090   45.3600   36.7740 N.3   109  MET109     -0.1245
     28  CA        14.1810   45.6100   35.6840 C.3   109  MET109      0.1570
     29  C         14.5550   46.8790   34.9290 C.2   109  MET109      0.2261
     30  O         15.3470   47.6870   35.4120 O.2   109  MET109     -0.2867
     31  CB        12.7550   45.7150   36.2250 C.3   109  MET109      0.0387
     32  CG        12.5660   46.8060   37.2640 C.3   109  MET109      0.0595
     33  SD        10.9400   46.7420   38.0430 S.3   109  MET109     -0.1393
     34  CE        10.9200   45.0510   38.6230 C.3   109  MET109      0.0692
     35  N         18.6260   39.7020   39.6480 N.3   139  ARG139     -0.1245
     36  CA        17.6370   39.2390   40.6170 C.3   139  ARG139      0.1563
     37  C         18.1520   38.0290   41.3820 C.2   139  ARG139      0.2260
     38  O         18.6690   37.0900   40.7850 O.2   139  ARG139     -0.2867
     39  CB        16.3190   38.8740   39.9300 C.3   139  ARG139      0.0307
     40  CG        15.6370   40.0220   39.2200 C.3   139  ARG139      0.0489
     41  CD        14.3320   39.5820   38.5940 C.3   139  ARG139      0.2205
     42  NE        13.7570   40.6380   37.7670 N.pl3 139  ARG139     -0.0865
     43  CZ        12.5780   40.5560   37.1610 C.cat 139  ARG139      0.5346
     44  NH1       11.8360   39.4640   37.2920 N.pl3 139  ARG139      0.1354
     45  NH2       12.1400   41.5700   36.4270 N.pl3 139  ARG139      0.1354
     46  N         17.6360   34.6440   42.7550 N.3   141  GLU141     -0.1245
     47  CA        16.7020   33.5870   42.3800 C.3   141  GLU141      0.1567
     48  C         17.0430   32.2790   43.0890 C.2   141  GLU141      0.2260
     49  O         18.2150   31.9680   43.3060 O.2   141  GLU141     -0.2867
     50  CB        16.7060   33.3780   40.8610 C.3   141  GLU141      0.0388
     51  CG        16.4110   34.6320   40.0370 C.3   141  GLU141      0.1160
     52  CD        14.9260   34.9580   39.9450 C.2   141  GLU141      0.3649
     53  OE1       14.1020   34.1650   40.4460 O.co2 141  GLU141     -0.2457
     54  OE2       14.5830   36.0120   39.3660 O.co2 141  GLU141     -0.2457
     55  N         15.6170   27.7920   34.7120 N.3   146  GLU146     -0.1231
     56  CA        15.1120   28.8170   33.8080 C.3   146  GLU146      0.1699
     57  C         15.4660   30.2130   34.3100 C.2   146  GLU146      0.2592
     58  O         15.0780   31.2150   33.7080 O.2   146  GLU146     -0.2718
     59  CB        13.5930   28.6950   33.6490 C.3   146  GLU146      0.0402
     60  CG        13.0740   27.2720   33.4670 C.3   146  GLU146      0.1161
     61  CD        13.2390   26.7490   32.0520 C.2   146  GLU146      0.3649
     62  OE1       14.0580   27.3070   31.2920 O.co2 146  GLU146     -0.2457
     63  OE2       12.5390   25.7770   31.6950 O.co2 146  GLU146     -0.2457
     64  N         16.1980   30.2740   35.4190 N.am  147  HIS147     -0.1962
     65  CA        16.5520   31.5510   36.0330 C.3   147  HIS147      0.1787
     66  C         18.0560   31.7400   36.1930 C.2   147  HIS147      0.2620
     67  O         18.7810   30.8060   36.5340 O.2   147  HIS147     -0.2715
     68  CB        15.8820   31.6900   37.4050 C.3   147  HIS147      0.0785
     69  CG        14.3960   31.8480   37.3410 C.ar  147  HIS147      0.0821
     70  ND1       13.5390   30.7770   37.2030 N.ar  147  HIS147     -0.2267
     71  CD2       13.6140   32.9520   37.3940 C.ar  147  HIS147      0.1154
     72  CE1       12.2930   31.2150   37.1760 C.ar  147  HIS147      0.1986
     73  NE2       12.3110   32.5310   37.2890 N.ar  147  HIS147     -0.2212
     74  N         18.5080   32.9620   35.9380 N.am  148  LEU148     -0.1977
     75  CA        19.8720   33.3740   36.2360 C.3   148  LEU148      0.1596
     76  C         19.8220   34.5480   37.1990 C.2   148  LEU148      0.2287
     77  O         18.8620   35.3170   37.1930 O.2   148  LEU148     -0.2864
     78  CB        20.6190   33.7710   34.9640 C.3   148  LEU148      0.0297
     79  CG        20.7480   32.7100   33.8740 C.3   148  LEU148      0.0022
     80  CD1       21.0670   33.3780   32.5530 C.3   148  LEU148      0.0001
     81  CD2       21.8230   31.7010   34.2440 C.3   148  LEU148      0.0001
     82  N         21.2300   38.3460   34.3570 N.3   151  PHE151     -0.1241
     83  CA        20.6880   38.0920   33.0290 C.3   151  PHE151      0.1605
     84  C         20.5800   39.3660   32.2010 C.2   151  PHE151      0.2264
     85  O         20.9410   40.4500   32.6550 O.2   151  PHE151     -0.2867
     86  CB        19.3270   37.3810   33.1210 C.3   151  PHE151      0.0534
     87  CG        18.2320   38.1980   33.7630 C.ar  151  PHE151     -0.0203
     88  CD1       18.1750   38.3550   35.1400 C.ar  151  PHE151     -0.0042
     89  CD2       17.2350   38.7680   32.9890 C.ar  151  PHE151     -0.0042
     90  CE1       17.1630   39.0910   35.7280 C.ar  151  PHE151     -0.0003
     91  CE2       16.2170   39.5050   33.5710 C.ar  151  PHE151     -0.0003
     92  CZ        16.1800   39.6670   34.9430 C.ar  151  PHE151     -0.0000
     93  N         18.0790   41.7180   29.6790 N.3   153  MET153     -0.1245
     94  CA        16.7020   41.9760   29.2890 C.3   153  MET153      0.1570
     95  C         16.5900   42.9520   28.1240 C.2   153  MET153      0.2261
     96  O         17.3190   43.9420   28.0510 O.2   153  MET153     -0.2867
     97  CB        15.8980   42.5120   30.4760 C.3   153  MET153      0.0387
     98  CG        14.3930   42.4490   30.2520 C.3   153  MET153      0.0595
     99  SD        13.4480   43.2110   31.5780 S.3   153  MET153     -0.1393
    100  CE        13.9140   42.1710   32.9610 C.3   153  MET153      0.0692
    101  N          8.2960   31.2360   30.1450 N.3   199  GLU199     -0.1231
    102  CA         7.9170   32.6170   29.8750 C.3   199  GLU199      0.1699
    103  C          9.0450   33.3800   29.1900 C.2   199  GLU199      0.2592
    104  O         10.1130   33.5760   29.7690 O.2   199  GLU199     -0.2718
    105  CB         7.5220   33.3300   31.1670 C.3   199  GLU199      0.0402
    106  CG         7.3240   34.8310   31.0010 C.3   199  GLU199      0.1161
    107  CD         7.1010   35.5430   32.3220 C.2   199  GLU199      0.3649
    108  OE1        6.5520   34.9170   33.2530 O.co2 199  GLU199     -0.2457
    109  OE2        7.4780   36.7300   32.4330 O.co2 199  GLU199     -0.2457
    110  N          8.8030   33.8120   27.9570 N.am  200  LEU200     -0.1966
    111  CA         9.7830   34.6040   27.2230 C.3   200  LEU200      0.1728
    112  C          9.6400   36.0840   27.5520 C.2   200  LEU200      0.2617
    113  O         10.6200   36.8310   27.5450 O.2   200  LEU200     -0.2715
    114  CB         9.6350   34.3930   25.7160 C.3   200  LEU200      0.0311
    115  CG         9.7800   32.9620   25.2030 C.3   200  LEU200      0.0022
    116  CD1        9.5390   32.9110   23.7040 C.3   200  LEU200      0.0001
    117  CD2       11.1500   32.4000   25.5520 C.3   200  LEU200      0.0001
    118  N          8.4130   36.5050   27.8420 N.am  201  SER201     -0.1936
    119  CA         8.1430   37.9160   28.0650 C.3   201  SER201      0.2055
    120  C          6.8740   38.1890   28.8590 C.2   201  SER201      0.2643
    121  O          5.9270   37.4000   28.8430 O.2   201  SER201     -0.2714
    122  CB         8.0570   38.6420   26.7200 C.3   201  SER201      0.2130
    123  OG         7.5420   39.9570   26.8720 O.3   201  SER201     -0.2179
    124  N          6.8770   39.3170   29.5630 N.am  202  SER202     -0.1949
    125  CA         5.6560   39.9100   30.0860 C.3   202  SER202      0.1924
    126  C          5.4300   41.2280   29.3610 C.2   202  SER202      0.2314
    127  O          6.3380   42.0580   29.2680 O.2   202  SER202     -0.2863
    128  CB         5.7360   40.1290   31.5960 C.3   202  SER202      0.2116
    129  OG         5.4600   38.9310   32.3010 O.3   202  SER202     -0.2180
    130  N          8.9490   43.1980   28.0740 N.3   224  GLY224     -0.1210
    131  CA        10.2960   42.8800   28.5040 C.3   224  GLY224      0.1956
    132  C         10.6370   41.4350   28.1890 C.2   224  GLY224      0.2612
    133  O          9.9170   40.5250   28.5960 O.2   224  GLY224     -0.2717
    134  N         11.7300   41.2290   27.4590 N.am  225  PHE225     -0.1962
    135  CA        12.1690   39.8950   27.0450 C.3   225  PHE225      0.1771
    136  C         13.5060   39.5180   27.6680 C.2   225  PHE225      0.2620
    137  O         14.4090   40.3510   27.7420 O.2   225  PHE225     -0.2715
    138  CB        12.3120   39.8180   25.5260 C.3   225  PHE225      0.0574
    139  CG        11.0180   39.6530   24.7920 C.ar  225  PHE225     -0.0200
    140  CD1       10.1690   40.7310   24.6020 C.ar  225  PHE225     -0.0042
    141  CD2       10.6630   38.4230   24.2620 C.ar  225  PHE225     -0.0042
    142  CE1        8.9770   40.5810   23.9100 C.ar  225  PHE225     -0.0003
    143  CE2        9.4750   38.2640   23.5690 C.ar  225  PHE225     -0.0003
    144  CZ         8.6300   39.3460   23.3930 C.ar  225  PHE225     -0.0000
    145  N         13.6470   38.2600   28.0810 N.am  226  GLY226     -0.1954
    146  CA        14.9230   37.7550   28.5630 C.3   226  GLY226      0.1869
    147  C         15.7360   37.1770   27.4170 C.2   226  GLY226      0.2309
    148  O         15.3090   36.2230   26.7740 O.2   226  GLY226     -0.2863
    149  N         18.6110   35.5270   27.4210 N.3   228  GLU228     -0.1231
    150  CA        19.1270   34.1840   27.6770 C.3   228  GLU228      0.1699
    151  C         18.0470   33.1270   27.4520 C.2   228  GLU228      0.2592
    152  O         18.3360   32.0330   26.9680 O.2   228  GLU228     -0.2718
    153  CB        19.6900   34.0770   29.0960 C.3   228  GLU228      0.0402
    154  CG        20.9880   34.8570   29.3080 C.3   228  GLU228      0.1161
    155  CD        20.7540   36.3200   29.6340 C.2   228  GLU228      0.3649
    156  OE1       19.5770   36.7460   29.6770 O.co2 228  GLU228     -0.2457
    157  OE2       21.7480   37.0480   29.8550 O.co2 228  GLU228     -0.2457
    158  N         16.8040   33.4540   27.7930 N.am  229  ARG229     -0.1980
    159  CA        15.7010   32.5310   27.5540 C.3   229  ARG229      0.1597
    160  C         15.4250   32.3980   26.0610 C.2   229  ARG229      0.2287
    161  O         15.0710   31.3190   25.5880 O.2   229  ARG229     -0.2864
    162  CB        14.4420   32.9790   28.3000 C.3   229  ARG229      0.0334
    163  CG        14.5560   32.8100   29.8040 C.3   229  ARG229      0.0492
    164  CD        13.2180   32.9570   30.5000 C.3   229  ARG229      0.2205
    165  NE        13.3250   32.6910   31.9310 N.pl3 229  ARG229     -0.0865
    166  CZ        12.3330   32.8590   32.8000 C.cat 229  ARG229      0.5346
    167  NH1       11.1520   33.2940   32.3830 N.pl3 229  ARG229      0.1354
    168  NH2       12.5220   32.5950   34.0860 N.pl3 229  ARG229      0.1354
    169  N         19.6890   26.9570   31.1600 N.3   240  ILE240     -0.1245
    170  CA        19.8520   28.3550   30.7760 C.3   240  ILE240      0.1561
    171  C         21.2780   28.8700   31.0200 C.2   240  ILE240      0.2260
    172  O         21.6960   29.8700   30.4330 O.2   240  ILE240     -0.2867
    173  CB        18.8360   29.2520   31.5270 C.3   240  ILE240      0.0252
    174  CG1       18.7490   30.6410   30.8830 C.3   240  ILE240      0.0019
    175  CG2       19.1740   29.3390   33.0070 C.3   240  ILE240      0.0019
    176  CD1       17.7860   31.5810   31.5780 C.3   240  ILE240      0.0001
@<TRIPOS>BOND
     1   144   143   ar
     2   144   142   ar
     3   143   141   ar
     4   116   115    1
     5   142   140   ar
     6   141   139   ar
     7   140   139   ar
     8   139   138    1
     9   115   117    1
    10   115   114    1
    11   138   135    1
    12   161   160    2
    13   114   111    1
    14   160   159    1
    15   122   123    1
    16   122   119    1
    17   148   147    2
    18   152   151    2
    19   135   134    1
    20   135   136    1
    21   111   112    1
    22   111   110    1
    23   147   146    1
    24   149   150    1
    25   151   150    1
    26   151   158   am
    27   134   132   am
    28   113   112    2
    29   112   118   am
    30   159   158    1
    31   159   162    1
    32   136   137    2
    33   136   145   am
    34   150   153    1
    35   118   119    1
    36   110   103   am
    37    96    95    2
    38   119   120    1
    39   130   131    1
    40   145   146    1
    41    95    94    1
    42   132   131    1
    43   132   133    2
    44   162   163    1
    45   121   120    2
    46   120   124   am
    47   153   154    1
    48   103   104    2
    49   103   102    1
    50   127   126    2
    51    94    93    1
    52    94    97    1
    53   154   155    1
    54   126   125    1
    55   124   125    1
    56   155   156   ar
    57   155   157   ar
    58   163   164    1
    59   102   101    1
    60   102   105    1
    61   125   128    1
    62    98    97    1
    63    98    99    1
    64   172   171    2
    65   164   165    1
    66   170   171    1
    67   170   169    1
    68   170   173    1
    69   174   173    1
    70   174   176    1
    71   106   105    1
    72   106   107    1
    73    62    61   ar
    74   173   175    1
    75    99   100    1
    76   128   129    1
    77    63    61   ar
    78   165   166    2
    79    61    60    1
    80    84    85    2
    81    84    83    1
    82   107   109   ar
    83   107   108   ar
    84   167   166    1
    85    80    79    1
    86   166   168    1
    87    89    91   ar
    88    89    87   ar
    89    83    86    1
    90    83    82    1
    91    86    87    1
    92    60    59    1
    93    91    92   ar
    94    59    56    1
    95    58    57    2
    96    87    88   ar
    97    56    57    1
    98    56    55    1
    99    79    81    1
   100    79    78    1
   101    57    64   am
   102    29    30    2
   103    29    28    1
   104    92    90   ar
   105    78    75    1
   106    88    90   ar
   107    64    65    1
   108    28    31    1
   109    28    27    1
   110    74    66   am
   111    74    75    1
   112    65    66    1
   113    65    68    1
   114    66    67    2
   115    31    32    1
   116    75    76    1
   117    45    43    1
   118    43    44    1
   119    43    42    2
   120    72    70   ar
   121    72    73   ar
   122    77    76    2
   123    70    69   ar
   124    32    33    1
   125    73    71   ar
   126    69    71   ar
   127    69    68    1
   128    42    41    1
   129    33    34    1
   130    41    40    1
   131    40    39    1
   132    54    52   ar
   133    35    36    1
   134    39    36    1
   135    52    51    1
   136    52    53   ar
   137    51    50    1
   138    16    15    1
   139    36    37    1
   140    38    37    2
   141    50    47    1
   142    17    15    1
   143    15    14    1
   144    26    24   am
   145     8     7   ar
   146    47    46    1
   147    47    48    1
   148    25    24    2
   149    24    23    1
   150    14    11    1
   151     9     7   ar
   152    48    49    2
   153     7     6    1
   154    21    20    2
   155    22    23    1
   156    22    19    1
   157    11    10    1
   158    11    12    1
   159     6     5    1
   160    10     3   am
   161     5     2    1
   162    20    19    1
   163    13    12    2
   164    19    18    1
   165     3     2    1
   166     3     4    2
   167     2     1    1
