@<TRIPOS>MOLECULE
tmp/4zimA00.pdb
 194 187 0 0 0
SMALL
GASTEIGER

@<TRIPOS>ATOM
      1  N         -6.6430   51.8680    9.7410 N.3    12  GLN12      -0.1231
      2  CA        -5.1870   52.0450    9.6330 C.3    12  GLN12       0.1698
      3  C         -4.6910   52.1690    8.1970 C.2    12  GLN12       0.2592
      4  O         -5.4400   51.9490    7.2580 O.2    12  GLN12      -0.2718
      5  CB        -4.3990   50.9510   10.3910 C.3    12  GLN12       0.0381
      6  CG        -4.4800   49.5580    9.7790 C.3    12  GLN12       0.0905
      7  CD        -3.4750   48.6230   10.3870 C.2    12  GLN12       0.2608
      8  OE1       -3.7630   47.4410   10.6230 O.2    12  GLN12      -0.2717
      9  NE2       -2.2730   49.1250   10.6510 N.am   12  GLN12      -0.0878
     10  N         -3.4200   52.5220    8.0410 N.am   13  GLN13      -0.1966
     11  CA        -2.7500   52.6520    6.7590 C.3    13  GLN13       0.1733
     12  C         -2.1590   51.2930    6.4040 C.2    13  GLN13       0.2616
     13  O         -1.3830   50.7350    7.1880 O.2    13  GLN13      -0.2715
     14  CB        -1.6590   53.7450    6.8550 C.3    13  GLN13       0.0408
     15  CG        -0.7830   53.9120    5.6020 C.3    13  GLN13       0.0908
     16  CD        -1.2640   55.0030    4.6750 C.2    13  GLN13       0.2608
     17  OE1       -2.4470   55.3580    4.6080 O.2    13  GLN13      -0.2717
     18  NE2       -0.3400   55.5560    3.9190 N.am   13  GLN13      -0.0878
     19  N         -2.5510   50.7540    5.2410 N.am   14  LEU14      -0.1963
     20  CA        -2.0680   49.4700    4.7190 C.3    14  LEU14       0.1731
     21  C         -0.8200   49.6250    3.8410 C.2    14  LEU14       0.2656
     22  O          0.0200   48.7260    3.8000 O.2    14  LEU14      -0.2711
     23  CB        -3.1710   48.6950    3.9710 C.3    14  LEU14       0.0311
     24  CG        -4.3870   48.2490    4.7800 C.3    14  LEU14       0.0022
     25  CD1       -5.4000   47.5660    3.8850 C.3    14  LEU14       0.0001
     26  CD2       -4.0050   47.3670    5.9510 C.3    14  LEU14       0.0001
     27  N         -0.6800   50.7820    3.2060 N.am   15  GLY15      -0.1716
     28  CA         0.4660   51.0730    2.3530 C.2    15  GLY15       0.1480
     29  C          0.4610   52.4320    1.6810 C.2    15  GLY15       0.2820
     30  O         -0.5910   53.0520    1.5020 O.2    15  GLY15      -0.2669
     31  N          1.6670   52.8830    1.3030 N.am   16  LYS16      -0.1929
     32  CA         1.9370   54.1660    0.6560 C.3    16  LYS16       0.1731
     33  C          2.5520   53.9780   -0.7160 C.2    16  LYS16       0.2616
     34  O          2.9530   52.8820   -1.1040 O.2    16  LYS16      -0.2715
     35  CB         2.8540   55.0430    1.5430 C.3    16  LYS16       0.0312
     36  CG         4.1790   54.4150    1.9120 C.3    16  LYS16       0.0038
     37  CD         5.0710   55.3110    2.7470 C.3    16  LYS16       0.0206
     38  CE         6.4510   54.6900    2.6860 C.3    16  LYS16       0.1093
     39  NZ         7.3450   55.1420    3.7200 N.3    16  LYS16      -0.1314
     40  N          2.5960   55.0670   -1.4490 N.am   17  GLY17      -0.1955
     41  CA         3.1790   55.1130   -2.7830 C.3    17  GLY17       0.1869
     42  C          3.3000   56.5440   -3.2440 C.2    17  GLY17       0.2309
     43  O          2.7380   57.4460   -2.6070 O.2    17  GLY17      -0.2863
     44  N         -0.3370   56.3830   -5.4200 N.3    20  GLY20      -0.1210
     45  CA        -1.3390   55.6830   -4.6090 C.3    20  GLY20       0.1956
     46  C         -1.2170   55.8810   -3.0970 C.2    20  GLY20       0.2613
     47  O         -0.4600   56.7460   -2.6200 O.2    20  GLY20      -0.2717
     48  N         -2.0400   55.1180   -2.3390 N.am   21  SER21      -0.1938
     49  CA        -2.1790   55.0410   -0.8610 C.3    21  SER21       0.2055
     50  C         -3.3930   54.1560   -0.5570 C.2    21  SER21       0.2642
     51  O         -4.4830   54.3700   -1.1060 O.2    21  SER21      -0.2714
     52  CB        -2.3380   56.4120   -0.1960 C.3    21  SER21       0.2130
     53  OG        -2.6470   56.3140    1.1900 O.3    21  SER21      -0.2179
     54  N         -3.1890   53.1400    0.2880 N.am   22  VAL22      -0.1977
     55  CA        -4.2340   52.1720    0.6240 C.3    22  VAL22       0.1596
     56  C         -4.4500   52.1430    2.1180 C.2    22  VAL22       0.2287
     57  O         -3.4920   52.0190    2.8780 O.2    22  VAL22      -0.2864
     58  CB        -3.9730   50.7770   -0.0080 C.3    22  VAL22       0.0276
     59  CG1       -5.0260   49.7650    0.4100 C.3    22  VAL22       0.0022
     60  CG2       -3.9160   50.8770   -1.5310 C.3    22  VAL22       0.0022
     61  N        -10.5810   47.5890    1.9020 N.3    39  ALA39      -0.1245
     62  CA        -9.3610   48.3090    1.5710 C.3    39  ALA39       0.1562
     63  C         -9.7740   49.4620    0.6410 C.2    39  ALA39       0.2260
     64  O        -10.5810   49.2720   -0.2810 O.2    39  ALA39      -0.2867
     65  CB        -8.3680   47.3920    0.8850 C.3    39  ALA39       0.0290
     66  N         -8.2840   52.5820   -1.7720 N.3    41  LYS41      -0.1245
     67  CA        -7.1830   53.1910   -2.5100 C.3    41  LYS41       0.1561
     68  C         -7.5710   54.6130   -2.9230 C.2    41  LYS41       0.2260
     69  O         -8.6030   54.8280   -3.5620 O.2    41  LYS41      -0.2867
     70  CB        -6.7690   52.3520   -3.7310 C.3    41  LYS41       0.0271
     71  CG        -5.4950   52.8530   -4.3730 C.3    41  LYS41       0.0035
     72  CD        -5.0890   52.0570   -5.5820 C.3    41  LYS41       0.0206
     73  CE        -3.7180   52.5360   -5.9950 C.3    41  LYS41       0.1093
     74  NZ        -3.2860   51.9520   -7.2860 N.3    41  LYS41      -0.1314
     75  N         -7.8270   40.4750   -6.9090 N.3    70  VAL70      -0.1245
     76  CA        -8.5050   41.1540   -5.7990 C.3    70  VAL70       0.1561
     77  C         -9.8870   41.6480   -6.2570 C.2    70  VAL70       0.2260
     78  O        -10.0000   42.1610   -7.3700 O.2    70  VAL70      -0.2867
     79  CB        -7.6270   42.2810   -5.1690 C.3    70  VAL70       0.0252
     80  CG1       -7.4430   43.4550   -6.1370 C.3    70  VAL70       0.0019
     81  CG2       -8.1820   42.7560   -3.8230 C.3    70  VAL70       0.0019
     82  N        -12.0490   48.0300   -2.4070 N.3    85  MET85      -0.1230
     83  CA       -11.7600   46.6320   -2.7160 C.3    85  MET85       0.1702
     84  C        -11.9530   45.8130   -1.4560 C.2    85  MET85       0.2592
     85  O        -12.0390   46.3640   -0.3430 O.2    85  MET85      -0.2718
     86  CB       -10.3130   46.4590   -3.2220 C.3    85  MET85       0.0401
     87  CG        -9.9960   47.2530   -4.4690 C.3    85  MET85       0.0596
     88  SD        -8.2240   47.5080   -4.7040 S.3    85  MET85      -0.1393
     89  CE        -7.8790   48.7720   -3.4950 C.3    85  MET85       0.0692
     90  N        -11.9920   44.4880   -1.6240 N.am   86  GLU86      -0.1966
     91  CA       -12.0980   43.5690   -0.4900 C.3    86  GLU86       0.1733
     92  C        -10.8380   43.6610    0.3750 C.2    86  GLU86       0.2616
     93  O         -9.7430   43.9620   -0.1550 O.2    86  GLU86      -0.2715
     94  CB       -12.3090   42.1230   -0.9730 C.3    86  GLU86       0.0429
     95  CG       -11.0990   41.5190   -1.6560 C.3    86  GLU86       0.1163
     96  CD       -11.2390   40.0880   -2.1090 C.2    86  GLU86       0.3649
     97  OE1      -10.6890   39.7640   -3.1840 O.co2  86  GLU86      -0.2457
     98  OE2      -11.9100   39.2980   -1.4110 O.co2  86  GLU86      -0.2457
     99  N        -10.9880   43.3940    1.6940 N.am   87  TYR87      -0.1960
    100  CA        -9.8330   43.3910    2.5740 C.3    87  TYR87       0.1771
    101  C         -9.2810   41.9910    2.5850 C.2    87  TYR87       0.2619
    102  O        -10.0340   41.0240    2.7810 O.2    87  TYR87      -0.2715
    103  CB       -10.1810   43.8870    3.9930 C.3    87  TYR87       0.0574
    104  CG        -9.0280   43.8340    4.9780 C.ar   87  TYR87      -0.0198
    105  CD1       -7.9110   44.6600    4.8270 C.ar   87  TYR87      -0.0009
    106  CD2       -9.0610   42.9730    6.0710 C.ar   87  TYR87      -0.0009
    107  CE1       -6.8310   44.5790    5.7060 C.ar   87  TYR87       0.0417
    108  CE2       -7.9940   42.8950    6.9650 C.ar   87  TYR87       0.0417
    109  CZ        -6.8820   43.6980    6.7770 C.ar   87  TYR87       0.1957
    110  OH        -5.8420   43.6360    7.6730 O.3    87  TYR87      -0.2866
    111  N         -7.9720   41.8770    2.2960 N.am   88  LEU88      -0.1964
    112  CA        -7.2360   40.6120    2.3230 C.3    88  LEU88       0.1713
    113  C         -6.3650   40.6830    3.5670 C.2    88  LEU88       0.2458
    114  O         -5.5070   41.5560    3.6470 O.2    88  LEU88      -0.2730
    115  CB        -6.4560   40.3750    1.0130 C.3    88  LEU88       0.0310
    116  CG        -7.3470   40.1910   -0.2250 C.3    88  LEU88       0.0022
    117  CD1       -6.5290   40.1000   -1.4780 C.3    88  LEU88       0.0001
    118  CD2       -8.2560   38.9760   -0.0710 C.3    88  LEU88       0.0001
    119  N         -6.7080   39.8640    4.6030 N.am   89  PRO89      -0.2716
    120  CA        -6.0710   39.9890    5.9390 C.3    89  PRO89       0.1536
    121  C         -4.5750   39.7810    6.0930 C.2    89  PRO89       0.2599
    122  O         -4.0130   40.3470    7.0270 O.2    89  PRO89      -0.2715
    123  CB        -6.8100   38.9350    6.7650 C.3    89  PRO89       0.0310
    124  CG        -7.3650   37.9690    5.7680 C.3    89  PRO89       0.0237
    125  CD        -7.7770   38.8420    4.6310 C.3    89  PRO89       0.0939
    126  N         -3.9370   38.9700    5.2360 N.am   90  TYR90      -0.1960
    127  CA        -2.5160   38.6660    5.3650 C.3    90  TYR90       0.1771
    128  C         -1.5420   39.6110    4.6250 C.2    90  TYR90       0.2620
    129  O         -0.3310   39.4650    4.7840 O.2    90  TYR90      -0.2715
    130  CB        -2.2770   37.2200    4.9800 C.3    90  TYR90       0.0574
    131  CG        -2.9890   36.2590    5.9130 C.ar   90  TYR90      -0.0198
    132  CD1       -2.4190   35.8810    7.1320 C.ar   90  TYR90      -0.0009
    133  CD2       -4.2500   35.7560    5.5990 C.ar   90  TYR90      -0.0009
    134  CE1       -3.0690   34.9910    7.9900 C.ar   90  TYR90       0.0417
    135  CE2       -4.9220   34.8940    6.4630 C.ar   90  TYR90       0.0417
    136  CZ        -4.3210   34.5040    7.6530 C.ar   90  TYR90       0.1957
    137  OH        -4.9520   33.6170    8.4960 O.3    90  TYR90      -0.2866
    138  N         -2.0520   40.5920    3.8930 N.am   91  GLY91      -0.1940
    139  CA        -1.2380   41.5960    3.1880 C.3    91  GLY91       0.2014
    140  C         -0.4560   41.1170    1.9920 C.2    91  GLY91       0.2639
    141  O         -0.8020   40.0960    1.4100 O.2    91  GLY91      -0.2714
    142  N          0.6120   41.8430    1.6150 N.am   92  SER92      -0.1949
    143  CA         1.4260   41.4660    0.4400 C.3    92  SER92       0.1924
    144  C          2.1720   40.1380    0.6010 C.2    92  SER92       0.2314
    145  O          2.5900   39.7830    1.7070 O.2    92  SER92      -0.2863
    146  CB         2.3840   42.5770    0.0190 C.3    92  SER92       0.2116
    147  OG         3.5940   42.5240    0.7500 O.3    92  SER92      -0.2180
    148  N          5.7520   40.7310    2.1660 N.3    95  ASP95      -0.1239
    149  CA         5.8170   40.7790    3.6250 C.3    95  ASP95       0.1674
    150  C          5.4320   39.4460    4.2750 C.2    95  ASP95       0.2266
    151  O          6.0700   39.0450    5.2560 O.2    95  ASP95      -0.2867
    152  CB         5.0040   41.9550    4.1630 C.3    95  ASP95       0.1410
    153  CG         5.4430   43.3110    3.6210 C.2    95  ASP95       0.3668
    154  OD1        6.6480   43.4740    3.3120 O.co2  95  ASP95      -0.2456
    155  OD2        4.5780   44.2160    3.5100 O.co2  95  ASP95      -0.2456
    156  N          5.3160   42.4900   -4.0650 N.3   136  ARG136     -0.1231
    157  CA         4.7260   43.5970   -3.3120 C.3   136  ARG136      0.1694
    158  C          3.2880   43.8920   -3.7590 C.2   136  ARG136      0.2592
    159  O          2.4850   44.4270   -2.9700 O.2   136  ARG136     -0.2718
    160  CB         5.6350   44.8550   -3.3810 C.3   136  ARG136      0.0321
    161  CG         5.2720   45.9440   -4.3710 C.3   136  ARG136      0.0489
    162  CD         6.3440   47.0180   -4.5190 C.3   136  ARG136      0.2205
    163  NE         7.1910   46.7990   -5.7040 N.pl3 136  ARG136     -0.0865
    164  CZ         6.9770   47.3200   -6.9220 C.cat 136  ARG136      0.5346
    165  NH1        5.9310   48.1190   -7.1390 N.pl3 136  ARG136      0.1354
    166  NH2        7.8110   47.0480   -7.9290 N.pl3 136  ARG136      0.1354
    167  N          2.9780   43.5580   -5.0250 N.am  137  ASN137     -0.1974
    168  CA         1.6760   43.7810   -5.6540 C.3   137  ASN137      0.1688
    169  C          0.7770   42.5400   -5.6610 C.2   137  ASN137      0.2292
    170  O         -0.3050   42.5750   -6.2450 O.2   137  ASN137     -0.2864
    171  CB         1.8440   44.3620   -7.0700 C.3   137  ASN137      0.1181
    172  CG         2.3360   45.7890   -7.1010 C.2   137  ASN137      0.2629
    173  OD1        1.8640   46.6520   -6.3500 O.2   137  ASN137     -0.2716
    174  ND2        3.3050   46.0610   -7.9710 N.am  137  ASN137     -0.0877
    175  N         -1.2810   39.9630   -3.1650 N.3   139  LEU139     -0.1245
    176  CA        -1.8450   39.9320   -1.8140 C.3   139  LEU139      0.1561
    177  C         -2.2560   38.5320   -1.4020 C.2   139  LEU139      0.2260
    178  O         -2.6200   37.7400   -2.2530 O.2   139  LEU139     -0.2867
    179  CB        -3.0420   40.8920   -1.6810 C.3   139  LEU139      0.0270
    180  CG        -2.8170   42.3770   -2.0060 C.3   139  LEU139      0.0019
    181  CD1       -4.1100   43.0670   -2.1280 C.3   139  LEU139      0.0001
    182  CD2       -1.9670   43.0620   -0.9540 C.3   139  LEU139      0.0001
    183  N         -3.0430   42.0990   -6.5120 N.3   149  GLY149     -0.1210
    184  CA        -3.6730   43.1290   -5.7000 C.3   149  GLY149      0.1956
    185  C         -3.6910   44.5690   -6.1300 C.2   149  GLY149      0.2611
    186  O         -4.3040   45.3730   -5.4480 O.2   149  GLY149     -0.2717
    187  N         -3.0010   44.9240   -7.2010 N.am  150  ASP150     -0.1973
    188  CA        -2.9660   46.3020   -7.6770 C.3   150  ASP150      0.1709
    189  C         -2.8390   46.3110   -9.1830 C.2   150  ASP150      0.2293
    190  O         -2.2270   45.4010   -9.7260 O.2   150  ASP150     -0.2864
    191  CB        -1.8160   47.0980   -7.0510 C.3   150  ASP150      0.1436
    192  CG        -1.9200   48.5880   -7.3190 C.2   150  ASP150      0.3671
    193  OD1       -2.8110   49.2270   -6.7410 O.co2 150  ASP150     -0.2456
    194  OD2       -1.1410   49.1050   -8.1540 O.co2 150  ASP150     -0.2456
@<TRIPOS>BOND
     1   190   189    2
     2   189   188    1
     3   194   192   ar
     4   174   172   am
     5   166   164    1
     6   188   187    1
     7   188   191    1
     8    78    77    2
     9   192   191    1
    10   192   193   ar
    11    74    73    1
    12   187   185   am
    13   165   164    1
    14   172   171    1
    15   172   173    2
    16   171   168    1
    17   164   163    2
    18    75    76    1
    19   183   184    1
    20    77    76    1
    21   170   169    2
    22    80    79    1
    23   185   184    1
    24   185   186    2
    25    73    72    1
    26    76    79    1
    27   163   162    1
    28   169   168    1
    29   168   167    1
    30    72    71    1
    31    44    45    1
    32    79    81    1
    33   167   158   am
    34    88    87    1
    35    88    89    1
    36    45    46    1
    37   162   161    1
    38    87    86    1
    39    71    70    1
    40   161   160    1
    41   156   157    1
    42   158   157    1
    43   158   159    2
    44    70    67    1
    45    69    68    2
    46   160   157    1
    47    42    41    1
    48    42    43    2
    49    86    83    1
    50    97    96   ar
    51   175   176    1
    52    46    47    2
    53    46    48   am
    54    68    67    1
    55    41    40    1
    56    83    82    1
    57    83    84    1
    58    67    66    1
    59    48    49    1
    60   178   177    2
    61   181   180    1
    62    96    95    1
    63    96    98   ar
    64   180   179    1
    65   180   182    1
    66   176   179    1
    67   176   177    1
    68    95    94    1
    69    90    84   am
    70    90    91    1
    71    60    58    1
    72   117   116    1
    73    84    85    2
    74    40    33   am
    75    51    50    2
    76    34    33    2
    77    94    91    1
    78    49    50    1
    79    49    52    1
    80    33    32    1
    81    50    54   am
    82    91    92    1
    83    64    63    2
    84   116   118    1
    85   116   115    1
    86    52    53    1
    87    93    92    2
    88    58    59    1
    89    58    55    1
    90   146   143    1
    91   146   147    1
    92    54    55    1
    93    92    99   am
    94   143   144    1
    95   143   142    1
    96   144   145    2
    97    55    56    1
    98    63    62    1
    99    32    31    1
   100    32    35    1
   101    65    62    1
   102   115   112    1
   103    31    29   am
   104   141   140    2
   105    30    29    2
   106    35    36    1
   107    62    61    1
   108   142   140   am
   109    29    28    1
   110    99   100    1
   111    36    37    1
   112   140   139    1
   113    56    57    2
   114   148   149    1
   115   111   112    1
   116   111   101   am
   117   112   113    1
   118    28    27    2
   119   100   101    1
   120   100   103    1
   121   101   102    2
   122    38    37    1
   123    38    39    1
   124   139   138    1
   125    27    21    1
   126   154   153   ar
   127   155   153   ar
   128   113   114    2
   129   113   119   am
   130   153   152    1
   131   149   152    1
   132   149   150    1
   133    22    21    2
   134    21    20    1
   135    25    24    1
   136   138   128   am
   137    18    16   am
   138    23    20    1
   139    23    24    1
   140   103   104    1
   141   150   151    2
   142   119   125    1
   143   119   120    1
   144    17    16    2
   145   128   129    2
   146   128   127    1
   147   125   124    1
   148    16    15    1
   149    20    19    1
   150    24    26    1
   151   105   104   ar
   152   105   107   ar
   153   104   106   ar
   154   130   127    1
   155   130   131    1
   156   126   127    1
   157   126   121   am
   158    19    12   am
   159   133   131   ar
   160   133   135   ar
   161    15    14    1
   162   107   109   ar
   163   124   123    1
   164   131   132   ar
   165   120   121    1
   166   120   123    1
   167   106   108   ar
   168   121   122    2
   169    12    11    1
   170    12    13    2
   171   135   136   ar
   172    11    14    1
   173    11    10    1
   174   109   108   ar
   175   109   110    1
   176   132   134   ar
   177     4     3    2
   178   136   134   ar
   179   136   137    1
   180    10     3   am
   181     3     2    1
   182     2     1    1
   183     2     5    1
   184     6     7    1
   185     6     5    1
   186     7     8    2
   187     7     9   am
