@<TRIPOS>MOLECULE
tmp/4zipB00.pdb
 94 88 0 0 0
SMALL
GASTEIGER

@<TRIPOS>ATOM
      1  N         17.2670   26.2260   28.1420 N.3    23  LEU23      -0.1245
      2  CA        16.8100   27.1540   27.0930 C.3    23  LEU23       0.1561
      3  C         15.3220   26.9980   26.8330 C.2    23  LEU23       0.2260
      4  O         14.8820   25.9000   26.5240 O.2    23  LEU23      -0.2867
      5  CB        17.6350   26.8140   25.8340 C.3    23  LEU23       0.0270
      6  CG        17.4350   27.6300   24.5870 C.3    23  LEU23       0.0019
      7  CD1       17.8930   29.0600   24.8300 C.3    23  LEU23       0.0001
      8  CD2       18.1670   26.9920   23.4090 C.3    23  LEU23       0.0001
      9  N         12.4870   26.9460   24.4950 N.3    25  ASP25      -0.1239
     10  CA        12.6080   26.6210   23.0650 C.3    25  ASP25       0.1674
     11  C         11.2500   26.3830   22.4140 C.2    25  ASP25       0.2266
     12  O         10.7300   25.2620   22.4210 O.2    25  ASP25      -0.2867
     13  CB        13.4820   25.3690   22.9140 C.3    25  ASP25       0.1410
     14  CG        13.9730   24.9790   21.5640 C.2    25  ASP25       0.3668
     15  OD1       13.4410   25.6390   20.5980 O.co2  25  ASP25      -0.2456
     16  OD2       14.7910   24.0920   21.3570 O.co2  25  ASP25      -0.2456
     17  N         10.5930   26.1340   19.3920 N.3    27  GLY27      -0.1210
     18  CA        10.7530   25.2540   18.2580 C.3    27  GLY27       0.1956
     19  C         10.8990   23.7850   18.5900 C.2    27  GLY27       0.2612
     20  O         11.1620   22.9690   17.6910 O.2    27  GLY27      -0.2717
     21  N         10.7040   23.4220   19.8500 N.am   28  ALA28      -0.1965
     22  CA        10.7610   22.0490   20.3110 C.3    28  ALA28       0.1728
     23  C          9.3920   21.6230   20.8540 C.2    28  ALA28       0.2616
     24  O          8.8460   22.3040   21.7440 O.2    28  ALA28      -0.2715
     25  CB        11.8010   21.8940   21.4000 C.3    28  ALA28       0.0334
     26  N          8.8630   20.4910   20.3840 N.am   29  ASP29      -0.1957
     27  CA         7.6190   20.0240   20.9500 C.3    29  ASP29       0.1840
     28  C          7.7900   19.5360   22.3800 C.2    29  ASP29       0.2622
     29  O          6.8660   19.6160   23.1900 O.2    29  ASP29      -0.2715
     30  CB         7.0550   18.8220   20.1610 C.3    29  ASP29       0.1450
     31  CG         6.5310   19.0850   18.7610 C.2    29  ASP29       0.3671
     32  OD1        6.4640   20.2470   18.3000 O.co2  29  ASP29      -0.2456
     33  OD2        6.1520   18.0470   18.0990 O.co2  29  ASP29      -0.2456
     34  N          8.9580   18.9970   22.6940 N.am   30  ASP30      -0.1971
     35  CA         9.2900   18.2370   23.8650 C.3    30  ASP30       0.1709
     36  C         10.5050   18.8390   24.5600 C.2    30  ASP30       0.2293
     37  O         11.2550   19.6150   24.0080 O.2    30  ASP30      -0.2864
     38  CB         9.6500   16.7960   23.4380 C.3    30  ASP30       0.1436
     39  CG         8.7140   16.1070   22.4880 C.2    30  ASP30       0.3671
     40  OD1        7.5330   16.0650   22.8500 O.co2  30  ASP30      -0.2456
     41  OD2        9.0990   15.6480   21.3750 O.co2  30  ASP30      -0.2456
     42  N         14.1100   18.2060   26.5710 N.3    32  VAL32      -0.1245
     43  CA        15.2480   17.3180   26.5600 C.3    32  VAL32       0.1561
     44  C         16.2970   17.8420   27.5020 C.2    32  VAL32       0.2260
     45  O         16.7250   18.9800   27.3860 O.2    32  VAL32      -0.2867
     46  CB        15.9440   17.1010   25.2120 C.3    32  VAL32       0.0252
     47  CG1       16.9220   15.9170   25.2860 C.3    32  VAL32       0.0019
     48  CG2       14.9330   16.8200   24.1430 C.3    32  VAL32       0.0019
     49  N         14.1170   11.4990   18.4370 N.3    47  ILE47      -0.1231
     50  CA        13.9420   12.9220   18.1490 C.3    47  ILE47       0.1692
     51  C         14.7430   13.2510   16.9140 C.2    47  ILE47       0.2593
     52  O         15.9440   12.9840   16.8760 O.2    47  ILE47      -0.2718
     53  CB        14.4550   13.8440   19.2610 C.3    47  ILE47       0.0266
     54  CG1       13.7010   13.6210   20.5810 C.3    47  ILE47       0.0019
     55  CG2       14.3620   15.2860   18.7660 C.3    47  ILE47       0.0020
     56  CD1       12.1960   13.7850   20.4640 C.3    47  ILE47       0.0001
     57  N         14.1770   13.8390   15.9100 N.am   48  GLY48      -0.1942
     58  CA        14.8430   14.2950   14.6950 C.3    48  GLY48       0.2014
     59  C         15.0880   15.7960   14.7930 C.2    48  GLY48       0.2639
     60  O         14.2360   16.6210   14.5930 O.2    48  GLY48      -0.2714
     61  N         16.3000   16.1860   15.0730 N.am   49  GLY49      -0.1939
     62  CA        16.7640   17.5200   15.1730 C.3    49  GLY49       0.2014
     63  C         17.3520   18.0270   13.8680 C.2    49  GLY49       0.2638
     64  O         17.2820   17.3950   12.7820 O.2    49  GLY49      -0.2714
     65  N         18.0150   19.1610   13.9080 N.am   50  ILE50      -0.1977
     66  CA        18.5880   19.7330   12.7030 C.3    50  ILE50       0.1596
     67  C         19.6120   18.8240   12.0720 C.2    50  ILE50       0.2287
     68  O         19.7360   18.8580   10.8290 O.2    50  ILE50      -0.2864
     69  CB        19.1790   21.1260   12.9910 C.3    50  ILE50       0.0276
     70  CG1       19.1090   21.9800   11.7070 C.3    50  ILE50       0.0022
     71  CG2       20.5020   21.0960   13.6420 C.3    50  ILE50       0.0022
     72  CD1       19.3510   23.4400   11.9190 C.3    50  ILE50       0.0001
     73  N         22.8480   19.7690   22.6820 N.3    81  PRO81      -0.2102
     74  CA        23.8610   20.8050   22.8860 C.3    81  PRO81       0.1504
     75  C         23.5370   21.5550   24.1560 C.2    81  PRO81       0.2575
     76  O         24.4610   22.0980   24.7300 O.2    81  PRO81      -0.2718
     77  CB        23.7330   21.7070   21.6710 C.3    81  PRO81       0.0282
     78  CG        22.3360   21.4230   21.1660 C.3    81  PRO81       0.0208
     79  CD        22.1140   19.9840   21.4010 C.3    81  PRO81       0.0893
     80  N         22.3070   21.6030   24.6180 N.am   82  VAL82      -0.1980
     81  CA        21.8640   22.4330   25.7360 C.3    82  VAL82       0.1595
     82  C         20.5670   21.8080   26.2620 C.2    82  VAL82       0.2287
     83  O         19.7800   21.2200   25.4950 O.2    82  VAL82      -0.2864
     84  CB        21.6630   23.8960   25.3490 C.3    82  VAL82       0.0276
     85  CG1       20.5660   24.0130   24.2670 C.3    82  VAL82       0.0022
     86  CG2       21.2950   24.8700   26.4650 C.3    82  VAL82       0.0022
     87  N         16.8230   21.8080   26.9180 N.3    84  ILE84      -0.1245
     88  CA        15.7700   22.4780   26.2010 C.3    84  ILE84       0.1561
     89  C         14.4370   22.2950   26.8650 C.2    84  ILE84       0.2260
     90  O         14.0370   21.1220   27.1320 O.2    84  ILE84      -0.2867
     91  CB        15.6750   21.8520   24.7800 C.3    84  ILE84       0.0252
     92  CG1       16.9160   22.2620   23.9650 C.3    84  ILE84       0.0019
     93  CG2       14.3570   22.0870   24.1020 C.3    84  ILE84       0.0019
     94  CD1       17.2190   21.2020   22.9240 C.3    84  ILE84       0.0001
@<TRIPOS>BOND
     1    68    67    2
     2    70    72    1
     3    70    69    1
     4    67    66    1
     5    66    69    1
     6    66    65    1
     7    64    63    2
     8    69    71    1
     9    63    65   am
    10    63    62    1
    11    60    59    2
    12    58    59    1
    13    58    57    1
    14    59    61   am
    15    61    62    1
    16    57    51   am
    17    52    51    2
    18    51    50    1
    19    20    19    2
    20    33    31   ar
    21    50    49    1
    22    50    53    1
    23    18    19    1
    24    18    17    1
    25    32    31   ar
    26    19    21   am
    27    31    30    1
    28    55    53    1
    29    53    54    1
    30    21    22    1
    31    30    27    1
    32    22    23    1
    33    22    25    1
    34    26    23   am
    35    26    27    1
    36    56    54    1
    37    15    14   ar
    38    23    24    2
    39    27    28    1
    40    78    79    1
    41    78    77    1
    42    16    14   ar
    43    41    39   ar
    44    79    73    1
    45    14    13    1
    46    77    74    1
    47    28    34   am
    48    28    29    2
    49    11    12    2
    50    11    10    1
    51    39    40   ar
    52    39    38    1
    53    73    74    1
    54    34    35    1
    55    74    75    1
    56    13    10    1
    57    94    92    1
    58    10     9    1
    59     8     6    1
    60    38    35    1
    61    35    36    1
    62    92    91    1
    63    37    36    2
    64    93    91    1
    65    48    46    1
    66    75    80   am
    67    75    76    2
    68    85    84    1
    69     6     7    1
    70     6     5    1
    71    80    81    1
    72    91    88    1
    73    46    47    1
    74    46    43    1
    75    84    81    1
    76    84    86    1
    77    83    82    2
    78    81    82    1
    79     5     2    1
    80    88    89    1
    81    88    87    1
    82     4     3    2
    83    43    42    1
    84    43    44    1
    85     3     2    1
    86    89    90    2
    87     2     1    1
    88    45    44    2
