@<TRIPOS>MOLECULE
tmp/4zirA01.pdb
 79 78 0 0 0
SMALL
GASTEIGER

@<TRIPOS>ATOM
      1  N         35.3600   33.8430   10.8810 N.3   129  PHE129     -0.1241
      2  CA        34.1790   33.0220   10.6640 C.3   129  PHE129      0.1605
      3  C         32.9820   33.8130   10.1450 C.2   129  PHE129      0.2264
      4  O         32.0430   33.2230    9.6260 O.2   129  PHE129     -0.2867
      5  CB        33.7880   32.3020   11.9570 C.3   129  PHE129      0.0534
      6  CG        34.5930   31.0650   12.2340 C.ar  129  PHE129     -0.0203
      7  CD1       35.6500   31.0910   13.1290 C.ar  129  PHE129     -0.0042
      8  CD2       34.2870   29.8690   11.6020 C.ar  129  PHE129     -0.0042
      9  CE1       36.3890   29.9480   13.3870 C.ar  129  PHE129     -0.0003
     10  CE2       35.0230   28.7230   11.8550 C.ar  129  PHE129     -0.0003
     11  CZ        36.0750   28.7630   12.7490 C.ar  129  PHE129     -0.0000
     12  N         32.2970   33.2470    6.3410 N.3   132  ARG132     -0.1245
     13  CA        32.3070   31.8860    5.8350 C.3   132  ARG132      0.1563
     14  C         30.8790   31.3810    5.6500 C.2   132  ARG132      0.2260
     15  O         29.9360   31.9330    6.2190 O.2   132  ARG132     -0.2867
     16  CB        33.0830   30.9700    6.7790 C.3   132  ARG132      0.0307
     17  CG        34.4780   31.4680    7.1070 C.3   132  ARG132      0.0489
     18  CD        35.3480   30.3350    7.6000 C.3   132  ARG132      0.2205
     19  NE        35.1600   29.1360    6.7900 N.pl3 132  ARG132     -0.0865
     20  CZ        35.6240   27.9340    7.1110 C.cat 132  ARG132      0.5346
     21  NH1       36.3110   27.7610    8.2320 N.pl3 132  ARG132      0.1354
     22  NH2       35.3990   26.9020    6.3090 N.pl3 132  ARG132      0.1354
     23  N         27.4060   26.0470    5.9940 N.3   135  PHE135     -0.1227
     24  CA        27.3960   24.6680    5.5130 C.3   135  PHE135      0.1736
     25  C         28.8000   24.1360    5.2200 C.2   135  PHE135      0.2595
     26  O         29.0050   22.9260    5.1280 O.2   135  PHE135     -0.2718
     27  CB        26.5280   24.5570    4.2570 C.3   135  PHE135      0.0547
     28  CG        25.1420   25.1040    4.4310 C.ar  135  PHE135     -0.0202
     29  CD1       24.1310   24.3100    4.9440 C.ar  135  PHE135     -0.0042
     30  CD2       24.8480   26.4120    4.0820 C.ar  135  PHE135     -0.0042
     31  CE1       22.8530   24.8090    5.1090 C.ar  135  PHE135     -0.0003
     32  CE2       23.5700   26.9190    4.2430 C.ar  135  PHE135     -0.0003
     33  CZ        22.5730   26.1160    4.7590 C.ar  135  PHE135     -0.0000
     34  N         29.7640   25.0390    5.0740 N.am  136  PHE136     -0.1962
     35  CA        31.1300   24.6410    4.7480 C.3   136  PHE136      0.1771
     36  C         32.0290   24.6930    5.9780 C.2   136  PHE136      0.2619
     37  O         33.2150   24.9960    5.8760 O.2   136  PHE136     -0.2715
     38  CB        31.7060   25.5300    3.6400 C.3   136  PHE136      0.0574
     39  CG        30.9050   25.5150    2.3620 C.ar  136  PHE136     -0.0200
     40  CD1       30.0400   24.4710    2.0750 C.ar  136  PHE136     -0.0042
     41  CD2       31.0260   26.5470    1.4450 C.ar  136  PHE136     -0.0042
     42  CE1       29.3060   24.4620    0.9040 C.ar  136  PHE136     -0.0003
     43  CE2       30.2940   26.5420    0.2700 C.ar  136  PHE136     -0.0003
     44  CZ        29.4340   25.4970   -0.0000 C.ar  136  PHE136     -0.0000
     45  N         31.4550   24.4060    7.1410 N.am  137  LEU137     -0.1963
     46  CA        32.2120   24.3700    8.3870 C.3   137  LEU137      0.1728
     47  C         32.3240   22.9400    8.8890 C.2   137  LEU137      0.2617
     48  O         31.6740   22.0390    8.3590 O.2   137  LEU137     -0.2715
     49  CB        31.5480   25.2400    9.4520 C.3   137  LEU137      0.0311
     50  CG        31.3780   26.7300    9.1630 C.3   137  LEU137      0.0022
     51  CD1       30.4870   27.3530   10.2220 C.3   137  LEU137      0.0001
     52  CD2       32.7260   27.4300    9.1220 C.3   137  LEU137      0.0001
     53  N         33.1430   22.7280    9.9120 N.am  138  SER138     -0.1936
     54  CA        33.2150   21.4170   10.5390 C.3   138  SER138      0.2055
     55  C         31.9580   21.2010   11.3730 C.2   138  SER138      0.2644
     56  O         31.2030   22.1410   11.6070 O.2   138  SER138     -0.2714
     57  CB        34.4660   21.2930   11.4070 C.3   138  SER138      0.2130
     58  OG        34.3660   22.1190   12.5520 O.3   138  SER138     -0.2179
     59  N         31.7300   19.9700   11.8170 N.am  139  GLY139     -0.1939
     60  CA        30.5810   19.6720   12.6560 C.3   139  GLY139      0.2014
     61  C         30.5580   20.4930   13.9360 C.2   139  GLY139      0.2639
     62  O         29.5300   21.0690   14.3070 O.2   139  GLY139     -0.2714
     63  N         31.7010   20.5530   14.6110 N.am  140  GLY140     -0.1939
     64  CA        31.8190   21.3270   15.8320 C.3   140  GLY140      0.2014
     65  C         31.5870   22.8030   15.5920 C.2   140  GLY140      0.2638
     66  O         30.9470   23.4840   16.4000 O.2   140  GLY140     -0.2714
     67  N         32.1040   23.2990   14.4730 N.am  141  GLU141     -0.1977
     68  CA        31.9460   24.7010   14.1230 C.3   141  GLU141      0.1602
     69  C         30.4860   25.0040   13.7950 C.2   141  GLU141      0.2287
     70  O         29.9800   26.0840   14.1200 O.2   141  GLU141     -0.2864
     71  CB        32.8720   25.0650   12.9610 C.3   141  GLU141      0.0415
     72  CG        34.3370   25.1420   13.3780 C.3   141  GLU141      0.1163
     73  CD        35.2920   25.1500   12.2010 C.2   141  GLU141      0.3649
     74  OE1       34.8490   24.8380   11.0750 O.co2 141  GLU141     -0.2457
     75  OE2       36.4860   25.4640   12.4050 O.co2 141  GLU141     -0.2457
     76  N         29.3720   16.9300   18.9780 N.3   166  GLY166     -0.1225
     77  CA        30.2520   17.4470   17.9470 C.3   166  GLY166      0.1811
     78  C         31.3210   18.4010   18.4400 C.2   166  GLY166      0.2280
     79  O         32.1790   18.8320   17.6750 O.2   166  GLY166     -0.2866
@<TRIPOS>BOND
     1    44    43   ar
     2    44    42   ar
     3    43    41   ar
     4    42    40   ar
     5    41    39   ar
     6    40    39   ar
     7    39    38    1
     8    38    35    1
     9    30    32   ar
    10    30    28   ar
    11    32    33   ar
    12    27    28    1
    13    27    24    1
    14    28    29   ar
    15    35    34    1
    16    35    36    1
    17    33    31   ar
    18    29    31   ar
    19    34    25   am
    20    26    25    2
    21    25    24    1
    22    24    23    1
    23    14    13    1
    24    14    15    2
    25    13    12    1
    26    13    16    1
    27    37    36    2
    28    36    45   am
    29    22    20    1
    30    16    17    1
    31    19    20    2
    32    19    18    1
    33    17    18    1
    34    20    21    1
    35    45    46    1
    36    48    47    2
    37    46    47    1
    38    46    49    1
    39    47    53   am
    40    52    50    1
    41    50    49    1
    42    50    51    1
    43     4     3    2
    44    53    54    1
    45     3     2    1
    46    54    55    1
    47    54    57    1
    48     2     1    1
    49     2     5    1
    50    74    73   ar
    51    55    56    2
    52    55    59   am
    53    57    58    1
    54     8    10   ar
    55     8     6   ar
    56    59    60    1
    57    10    11   ar
    58     5     6    1
    59    73    75   ar
    60    73    72    1
    61     6     7   ar
    62    60    61    1
    63    11     9   ar
    64    71    72    1
    65    71    68    1
    66     7     9   ar
    67    69    70    2
    68    69    68    1
    69    61    62    2
    70    61    63   am
    71    68    67    1
    72    67    65   am
    73    63    64    1
    74    65    64    1
    75    65    66    2
    76    79    78    2
    77    77    78    1
    78    77    76    1
