@<TRIPOS>MOLECULE
tmp/4zirB01.pdb
 101 96 0 0 0
SMALL
GASTEIGER

@<TRIPOS>ATOM
      1  N         41.0350   23.4030    1.1050 N.3    13  TYR13      -0.1241
      2  CA        39.6610   23.6160    0.6560 C.3    13  TYR13       0.1605
      3  C         39.6240   24.8010   -0.3040 C.2    13  TYR13       0.2264
      4  O         39.3010   24.6280   -1.4810 O.2    13  TYR13      -0.2867
      5  CB        38.7100   23.8070    1.8370 C.3    13  TYR13       0.0534
      6  CG        38.1750   22.4870    2.3480 C.ar   13  TYR13      -0.0201
      7  CD1       37.2280   21.7750    1.6240 C.ar   13  TYR13      -0.0009
      8  CD2       38.6300   21.9460    3.5450 C.ar   13  TYR13      -0.0009
      9  CE1       36.7430   20.5660    2.0840 C.ar   13  TYR13       0.0417
     10  CE2       38.1520   20.7440    4.0110 C.ar   13  TYR13       0.0417
     11  CZ        37.2100   20.0560    3.2820 C.ar   13  TYR13       0.1957
     12  OH        36.7390   18.8550    3.7600 O.3    13  TYR13      -0.2866
     13  N         44.3130   22.2010    5.2720 N.3    18  VAL18      -0.1245
     14  CA        43.6370   21.6370    6.4310 C.3    18  VAL18       0.1561
     15  C         44.2260   20.2580    6.7260 C.2    18  VAL18       0.2260
     16  O         43.9360   19.6430    7.7480 O.2    18  VAL18      -0.2867
     17  CB        42.1230   21.5410    6.2040 C.3    18  VAL18       0.0252
     18  CG1       41.5420   22.9300    5.9910 C.3    18  VAL18       0.0019
     19  CG2       41.8250   20.6610    5.0060 C.3    18  VAL18       0.0019
     20  N         38.1440   20.3800   17.2550 N.3    38  ASN38      -0.1225
     21  CA        37.3800   20.9170   16.1320 C.3    38  ASN38       0.1785
     22  C         38.2730   21.7150   15.1930 C.2    38  ASN38       0.2598
     23  O         39.0350   22.5750   15.6330 O.2    38  ASN38      -0.2718
     24  CB        36.2280   21.7980   16.6240 C.3    38  ASN38       0.1169
     25  CG        35.2000   21.0260   17.4250 C.2    38  ASN38       0.2627
     26  OD1       34.6880   21.5160   18.4300 O.2    38  ASN38      -0.2716
     27  ND2       34.8930   19.8120   16.9830 N.am   38  ASN38      -0.0877
     28  N         38.1850   21.4220   13.9010 N.am   39  GLY39      -0.1942
     29  CA        39.0240   22.0790   12.9160 C.3    39  GLY39       0.2014
     30  C         40.4340   21.5120   12.7930 C.2    39  GLY39       0.2640
     31  O         41.3440   22.2100   12.3410 O.2    39  GLY39      -0.2714
     32  N         40.6180   20.2510   13.1830 N.am   40  SER40      -0.1935
     33  CA        41.9270   19.6020   13.0960 C.3    40  SER40       0.2055
     34  C         42.1400   18.8700   11.7660 C.2    40  SER40       0.2644
     35  O         43.2630   18.8110   11.2620 O.2    40  SER40      -0.2714
     36  CB        42.1160   18.6250   14.2580 C.3    40  SER40       0.2130
     37  OG        41.1470   17.5920   14.2160 O.3    40  SER40      -0.2179
     38  N         41.0720   18.3010   11.2100 N.am   41  GLY41      -0.1939
     39  CA        41.1480   17.6660    9.9030 C.3    41  GLY41       0.2014
     40  C         40.6710   16.2250    9.8220 C.2    41  GLY41       0.2639
     41  O         40.9210   15.5450    8.8250 O.2    41  GLY41      -0.2714
     42  N         39.9740   15.7680   10.8600 N.am   42  LYS42      -0.1963
     43  CA        39.5140   14.3800   10.9550 C.3    42  LYS42       0.1728
     44  C         38.5890   13.9780    9.8000 C.2    42  LYS42       0.2617
     45  O         38.8240   12.9750    9.1110 O.2    42  LYS42      -0.2715
     46  CB        38.8000   14.1610   12.2930 C.3    42  LYS42       0.0311
     47  CG        39.6740   14.4240   13.5190 C.3    42  LYS42       0.0038
     48  CD        38.9380   14.1260   14.8260 C.3    42  LYS42       0.0206
     49  CE        37.7130   15.0100   15.0040 C.3    42  LYS42       0.1093
     50  NZ        38.0780   16.4290   15.2740 N.3    42  LYS42      -0.1314
     51  N         37.5410   14.7690    9.5940 N.am   43  THR43      -0.1937
     52  CA        36.5730   14.5200    8.5300 C.3    43  THR43       0.2028
     53  C         37.1990   14.6040    7.1410 C.2    43  THR43       0.2642
     54  O         36.8880   13.8080    6.2600 O.2    43  THR43      -0.2714
     55  CB        35.4060   15.5120    8.6120 C.3    43  THR43       0.1808
     56  OG1       34.7010   15.3040    9.8400 O.3    43  THR43      -0.2208
     57  CG2       34.4480   15.3230    7.4450 C.3    43  THR43       0.0379
     58  N         38.0820   15.5760    6.9500 N.am   44  THR44      -0.1950
     59  CA        38.7810   15.7310    5.6830 C.3    44  THR44       0.1897
     60  C         39.6350   14.4990    5.3710 C.2    44  THR44       0.2313
     61  O         39.5750   13.9520    4.2630 O.2    44  THR44      -0.2863
     62  CB        39.6500   16.9910    5.6990 C.3    44  THR44       0.1794
     63  OG1       38.8120   18.1340    5.4880 O.3    44  THR44      -0.2208
     64  CG2       40.6990   16.9370    4.6040 C.3    44  THR44       0.0378
     65  N         37.3090   11.6400    4.4310 N.3    47  LYS47      -0.1245
     66  CA        36.7090   11.7930    3.1080 C.3    47  LYS47       0.1561
     67  C         37.7410   11.5120    2.0260 C.2    47  LYS47       0.2260
     68  O         37.4110   11.0100    0.9510 O.2    47  LYS47      -0.2867
     69  CB        36.1210   13.1940    2.9300 C.3    47  LYS47       0.0271
     70  CG        34.7000   13.3490    3.4560 C.3    47  LYS47       0.0035
     71  CD        34.2600   14.8100    3.4450 C.3    47  LYS47       0.0206
     72  CE        32.8290   14.9630    3.9450 C.3    47  LYS47       0.1093
     73  NZ        32.3900   16.3850    4.0580 N.3    47  LYS47      -0.1314
     74  N         28.8860   12.7710    9.4060 N.3    80  GLN80      -0.1245
     75  CA        28.5840   13.3090   10.7340 C.3    80  GLN80       0.1566
     76  C         27.1030   13.6120   10.8580 C.2    80  GLN80       0.2260
     77  O         26.4830   13.3480   11.8900 O.2    80  GLN80      -0.2867
     78  CB        29.3920   14.5780   11.0150 C.3    80  GLN80       0.0367
     79  CG        30.8040   14.3170   11.4760 C.3    80  GLN80       0.0905
     80  CD        31.5970   15.5890   11.6820 C.2    80  GLN80       0.2608
     81  OE1       31.3630   16.3340   12.6340 O.2    80  GLN80      -0.2717
     82  NE2       32.5380   15.8490   10.7820 N.am   80  GLN80      -0.0878
     83  N         31.9170    9.9200   13.3330 N.3   155  GLU155     -0.1245
     84  CA        31.0780   10.0830   14.5260 C.3   155  GLU155      0.1567
     85  C         29.6810    9.4870   14.3300 C.2   155  GLU155      0.2260
     86  O         28.6780   10.1980   14.4020 O.2   155  GLU155     -0.2867
     87  CB        30.9940   11.5620   14.9130 C.3   155  GLU155      0.0388
     88  CG        32.3620   12.2380   14.9650 C.3   155  GLU155      0.1160
     89  CD        32.3310   13.6000   15.6320 C.2   155  GLU155      0.3649
     90  OE1       31.4400   13.8300   16.4780 O.co2 155  GLU155     -0.2457
     91  OE2       33.2000   14.4390   15.3090 O.co2 155  GLU155     -0.2457
     92  N         34.3730   11.6150   19.4310 N.3   187  HIS187     -0.1241
     93  CA        34.7400   12.5670   20.4730 C.3   187  HIS187      0.1621
     94  C         34.4830   11.9750   21.8510 C.2   187  HIS187      0.2264
     95  O         34.8980   12.5360   22.8630 O.2   187  HIS187     -0.2867
     96  CB        33.9570   13.8750   20.3210 C.3   187  HIS187      0.0745
     97  CG        34.5900   14.8610   19.3900 C.ar  187  HIS187      0.0817
     98  ND1       35.7470   15.5420   19.7030 N.ar  187  HIS187     -0.2268
     99  CD2       34.2210   15.2940   18.1600 C.ar  187  HIS187      0.1154
    100  CE1       36.0690   16.3440   18.7030 C.ar  187  HIS187      0.1986
    101  NE2       35.1580   16.2130   17.7550 N.ar  187  HIS187     -0.2212
@<TRIPOS>BOND
     1     4     3    2
     2     3     2    1
     3     2     1    1
     4     2     5    1
     5    68    67    2
     6     7     9   ar
     7     7     6   ar
     8     5     6    1
     9    67    66    1
    10     9    11   ar
    11     6     8   ar
    12    69    66    1
    13    69    70    1
    14    66    65    1
    15    11    12    1
    16    11    10   ar
    17    71    70    1
    18    71    72    1
    19     8    10   ar
    20    72    73    1
    21    61    60    2
    22    64    62    1
    23    19    17    1
    24    13    14    1
    25    60    59    1
    26    63    62    1
    27    59    62    1
    28    59    58    1
    29    18    17    1
    30    17    14    1
    31    54    53    2
    32    14    15    1
    33    15    16    2
    34    58    53   am
    35    53    52    1
    36    57    55    1
    37    52    55    1
    38    52    51    1
    39    55    56    1
    40    41    40    2
    41    45    44    2
    42    74    75    1
    43    51    44   am
    44    44    43    1
    45    40    39    1
    46    40    42   am
    47    39    38    1
    48    75    76    1
    49    75    78    1
    50    82    80   am
    51    76    77    2
    52    42    43    1
    53    43    46    1
    54    78    79    1
    55    38    34   am
    56    35    34    2
    57    79    80    1
    58    80    81    2
    59    34    33    1
    60    46    47    1
    61    31    30    2
    62    30    29    1
    63    30    32   am
    64    29    28    1
    65    33    32    1
    66    33    36    1
    67    83    84    1
    68    47    48    1
    69    28    22   am
    70    37    36    1
    71    85    86    2
    72    85    84    1
    73    84    87    1
    74    48    49    1
    75    87    88    1
    76    88    89    1
    77    49    50    1
    78    22    23    2
    79    22    21    1
    80    91    89   ar
    81    89    90   ar
    82    21    24    1
    83    21    20    1
    84    24    25    1
    85    27    25   am
    86    25    26    2
    87   101    99   ar
    88   101   100   ar
    89    99    97   ar
    90   100    98   ar
    91    97    98   ar
    92    97    96    1
    93    92    93    1
    94    96    93    1
    95    93    94    1
    96    94    95    2
