@<TRIPOS>MOLECULE
tmp/4zirA00.pdb
 131 123 0 0 0
SMALL
GASTEIGER

@<TRIPOS>ATOM
      1  N          1.2660   13.2720   15.0940 N.3    12  PHE12      -0.1227
      2  CA         1.7490   13.6650   13.7750 C.3    12  PHE12       0.1736
      3  C          0.8630   13.1350   12.6530 C.2    12  PHE12       0.2595
      4  O          0.8010   11.9260   12.4150 O.2    12  PHE12      -0.2718
      5  CB         3.1880   13.1860   13.5640 C.3    12  PHE12       0.0547
      6  CG         4.2090   14.0050   14.2970 C.ar   12  PHE12      -0.0202
      7  CD1        4.9020   13.4760   15.3720 C.ar   12  PHE12      -0.0042
      8  CD2        4.4740   15.3080   13.9130 C.ar   12  PHE12      -0.0042
      9  CE1        5.8430   14.2300   16.0440 C.ar   12  PHE12      -0.0003
     10  CE2        5.4130   16.0670   14.5860 C.ar   12  PHE12      -0.0003
     11  CZ         6.0980   15.5260   15.6530 C.ar   12  PHE12      -0.0000
     12  N          0.1900   14.0560   11.9640 N.am   13  HIS13      -0.1975
     13  CA        -0.6670   13.7510   10.8150 C.3    13  HIS13       0.1656
     14  C         -1.9590   13.0420   11.2140 C.2    13  HIS13       0.2291
     15  O         -2.2010   11.9150   10.7880 O.2    13  HIS13      -0.2864
     16  CB         0.0640   12.8660    9.7800 C.3    13  HIS13       0.0771
     17  CG         1.5050   13.2220    9.5510 C.ar   13  HIS13       0.0820
     18  ND1        1.9960   14.5030    9.7310 N.ar   13  HIS13      -0.2267
     19  CD2        2.5610   12.4710    9.1610 C.ar   13  HIS13       0.1154
     20  CE1        3.2990   14.5130    9.4540 C.ar   13  HIS13       0.1986
     21  NE2        3.6560   13.2900    9.1090 N.ar   13  HIS13      -0.2212
     22  N         -1.1710    6.6110    9.9360 N.3    18  LEU18      -0.1245
     23  CA         0.1290    6.6390   10.6020 C.3    18  LEU18       0.1561
     24  C          0.0520    7.3020   11.9850 C.2    18  LEU18       0.2260
     25  O          0.6310    6.7930   12.9450 O.2    18  LEU18      -0.2867
     26  CB         1.1720    7.3390    9.7150 C.3    18  LEU18       0.0270
     27  CG         1.2360    8.8640    9.5850 C.3    18  LEU18       0.0019
     28  CD1        2.1680    9.4660   10.6310 C.3    18  LEU18       0.0001
     29  CD2        1.6630    9.2700    8.1820 C.3    18  LEU18       0.0001
     30  N          0.9360    8.2550   14.6920 N.3    20  LYS20      -0.1245
     31  CA         2.1030    8.2570   15.5830 C.3    20  LYS20       0.1561
     32  C          1.9170    9.0660   16.8710 C.2    20  LYS20       0.2260
     33  O          1.8500   10.2950   16.8510 O.2    20  LYS20      -0.2867
     34  CB         3.3410    8.7730   14.8460 C.3    20  LYS20       0.0271
     35  CG         4.6100    8.6280   15.6650 C.3    20  LYS20       0.0035
     36  CD         4.7540    7.1970   16.1610 C.3    20  LYS20       0.0206
     37  CE         5.8400    7.0690   17.2120 C.3    20  LYS20       0.1093
     38  NZ         5.7900    5.7400   17.8810 N.3    20  LYS20      -0.1314
     39  N          3.6100   10.5870   19.2700 N.3    22  ALA22      -0.1245
     40  CA         4.9230   11.1140   19.6400 C.3    22  ALA22       0.1562
     41  C          4.9910   11.4400   21.1240 C.2    22  ALA22       0.2260
     42  O          5.9540   11.0860   21.8040 O.2    22  ALA22      -0.2867
     43  CB         5.2450   12.3460   18.8220 C.3    22  ALA22       0.0290
     44  N         14.9910    7.2670   25.9030 N.3    41  ASN41      -0.1225
     45  CA        15.4760    6.5500   24.7260 C.3    41  ASN41       0.1785
     46  C         15.2130    7.3310   23.4450 C.2    41  ASN41       0.2598
     47  O         14.8520    8.5060   23.4890 O.2    41  ASN41      -0.2718
     48  CB        14.8300    5.1680   24.6360 C.3    41  ASN41       0.1169
     49  CG        13.3290    5.2180   24.8250 C.2    41  ASN41       0.2627
     50  OD1       12.8310    5.8810   25.7350 O.2    41  ASN41      -0.2716
     51  ND2       12.5980    4.5250   23.9600 N.am   41  ASN41      -0.0877
     52  N         15.3850    6.6770   22.3020 N.am   42  THR42      -0.1939
     53  CA        15.2670    7.3670   21.0230 C.3    42  THR42       0.2028
     54  C         13.8330    7.4110   20.5110 C.2    42  THR42       0.2642
     55  O         13.5570    8.0410   19.4920 O.2    42  THR42      -0.2714
     56  CB        16.1560    6.7170   19.9440 C.3    42  THR42       0.1808
     57  OG1       16.0960    7.4960   18.7440 O.3    42  THR42      -0.2208
     58  CG2       15.6940    5.3040   19.6450 C.3    42  THR42       0.0379
     59  N         12.9220    6.7450   21.2120 N.am   43  GLY43      -0.1954
     60  CA        11.5250    6.7470   20.8190 C.3    43  GLY43       0.1869
     61  C         10.7060    7.6480   21.7180 C.2    43  GLY43       0.2309
     62  O          9.5780    8.0170   21.3890 O.2    43  GLY43      -0.2863
     63  N         10.6730   10.7600   22.4740 N.3    45  GLY45      -0.1210
     64  CA        10.1270   11.9460   21.8390 C.3    45  GLY45       0.1956
     65  C         10.4170   13.2360   22.5810 C.2    45  GLY45       0.2612
     66  O          9.5230   14.0670   22.7630 O.2    45  GLY45      -0.2717
     67  N         11.6640   13.4170   23.0050 N.am   46  LYS46      -0.1965
     68  CA        12.0160   14.6110   23.7580 C.3    46  LYS46       0.1728
     69  C         12.1890   15.8160   22.8380 C.2    46  LYS46       0.2617
     70  O         11.8800   16.9480   23.2260 O.2    46  LYS46      -0.2715
     71  CB        13.2760   14.3750   24.5990 C.3    46  LYS46       0.0311
     72  CG        14.3130   13.4470   24.0110 C.3    46  LYS46       0.0038
     73  CD        15.1690   12.8170   25.0990 C.3    46  LYS46       0.0206
     74  CE        16.1550   11.8180   24.5130 C.3    46  LYS46       0.1093
     75  NZ        15.4910   10.7790   23.6770 N.3    46  LYS46      -0.1314
     76  N         12.6650   15.5770   21.6180 N.am   47  SER47      -0.1936
     77  CA        12.8190   16.6560   20.6420 C.3    47  SER47       0.2055
     78  C         11.4680   17.2360   20.2430 C.2    47  SER47       0.2643
     79  O         11.3220   18.4500   20.1050 O.2    47  SER47      -0.2714
     80  CB        13.5590   16.1700   19.3960 C.3    47  SER47       0.2130
     81  OG        14.9070   15.8630   19.6900 O.3    47  SER47      -0.2179
     82  N         10.4880   16.3580   20.0520 N.am   48  THR48      -0.1950
     83  CA         9.1140   16.7750   19.7980 C.3    48  THR48       0.1897
     84  C          8.6300   17.7230   20.8920 C.2    48  THR48       0.2313
     85  O          8.1240   18.8210   20.6140 O.2    48  THR48      -0.2863
     86  CB         8.1690   15.5630   19.7270 C.3    48  THR48       0.1794
     87  OG1        8.6460   14.6370   18.7420 O.3    48  THR48      -0.2208
     88  CG2        6.7620   16.0080   19.3740 C.3    48  THR48       0.0378
     89  N         10.2600   21.0460   20.8860 N.3    51  GLN51      -0.1245
     90  CA         9.6950   21.7960   19.7670 C.3    51  GLN51       0.1566
     91  C          8.3750   22.4470   20.1680 C.2    51  GLN51       0.2260
     92  O          8.0990   23.5910   19.8040 O.2    51  GLN51      -0.2867
     93  CB         9.4840   20.8910   18.5500 C.3    51  GLN51       0.0367
     94  CG        10.7560   20.5590   17.7870 C.3    51  GLN51       0.0905
     95  CD        10.5490   19.4570   16.7640 C.2    51  GLN51       0.2608
     96  OE1        9.7630   18.5330   16.9800 O.2    51  GLN51      -0.2717
     97  NE2       11.2510   19.5510   15.6410 N.am   51  GLN51      -0.0878
     98  N         19.0520   19.5820   17.2070 N.3    83  GLN83      -0.1245
     99  CA        20.1160   18.6090   17.4360 C.3    83  GLN83       0.1566
    100  C         20.9690   18.4660   16.1790 C.2    83  GLN83       0.2260
    101  O         22.1700   18.2280   16.2710 O.2    83  GLN83      -0.2867
    102  CB        19.5780   17.2480   17.9160 C.3    83  GLN83       0.0367
    103  CG        18.4650   16.5790   17.1370 C.3    83  GLN83       0.0905
    104  CD        18.1010   15.2250   17.7520 C.2    83  GLN83       0.2608
    105  OE1       17.0170   15.0530   18.3100 O.2    83  GLN83      -0.2717
    106  NE2       19.0190   14.2670   17.6640 N.am   83  GLN83      -0.0878
    107  N         18.8230   21.2800   22.2450 N.3   161  ASP161     -0.1225
    108  CA        18.6940   19.8830   21.8490 C.3   161  ASP161      0.1805
    109  C         20.0470   19.3440   21.4000 C.2   161  ASP161      0.2597
    110  O         20.5960   19.7910   20.3940 O.2   161  ASP161     -0.2718
    111  CB        17.6630   19.7270   20.7320 C.3   161  ASP161      0.1424
    112  CG        17.2470   18.2810   20.5160 C.2   161  ASP161      0.3668
    113  OD1       17.9040   17.3720   21.0680 O.co2 161  ASP161     -0.2456
    114  OD2       16.2560   18.0540   19.7890 O.co2 161  ASP161     -0.2456
    115  N         20.5640   18.3780   22.1560 N.am  162  GLU162     -0.1979
    116  CA        21.8840   17.7820   21.9240 C.3   162  GLU162      0.1602
    117  C         22.9990   18.7930   21.6420 C.2   162  GLU162      0.2287
    118  O         23.6760   18.6880   20.6220 O.2   162  GLU162     -0.2864
    119  CB        21.8110   16.7890   20.7610 C.3   162  GLU162      0.0415
    120  CG        20.7940   15.6770   20.9390 C.3   162  GLU162      0.1163
    121  CD        21.2400   14.6100   21.9230 C.2   162  GLU162      0.3649
    122  OE1       22.3740   14.6970   22.4420 O.co2 162  GLU162     -0.2457
    123  OE2       20.4460   13.6790   22.1760 O.co2 162  GLU162     -0.2457
    124  N         18.3130   18.5160   26.2040 N.3   192  ILE192     -0.1245
    125  CA        18.2720   17.1290   25.7530 C.3   192  ILE192      0.1561
    126  C         19.7030   16.6520   25.5630 C.2   192  ILE192      0.2260
    127  O         20.4800   17.2870   24.8520 O.2   192  ILE192     -0.2867
    128  CB        17.4930   16.9580   24.4390 C.3   192  ILE192      0.0252
    129  CG1       16.0010   17.1690   24.6650 C.3   192  ILE192      0.0019
    130  CG2       17.7230   15.5700   23.8520 C.3   192  ILE192      0.0019
    131  CD1       15.2130   17.1280   23.3880 C.3   192  ILE192      0.0001
@<TRIPOS>BOND
     1    29    27    1
     2    21    19   ar
     3    21    20   ar
     4    19    17   ar
     5    20    18   ar
     6    17    18   ar
     7    17    16    1
     8    27    26    1
     9    27    28    1
    10    26    23    1
    11    16    13    1
    12    22    23    1
    13    23    24    1
    14    15    14    2
    15    13    14    1
    16    13    12    1
    17    12     3   am
    18    24    25    2
    19     4     3    2
    20     3     2    1
    21     5     2    1
    22     5     6    1
    23     2     1    1
    24     8     6   ar
    25     8    10   ar
    26     6     7   ar
    27    10    11   ar
    28    30    31    1
    29    34    31    1
    30    34    35    1
    31     7     9   ar
    32    31    32    1
    33    97    95   am
    34    11     9   ar
    35    35    36    1
    36    36    37    1
    37   100   101    2
    38   100    99    1
    39    95    96    2
    40    95    94    1
    41    33    32    2
    42   103   104    1
    43   103   102    1
    44    98    99    1
    45    37    38    1
    46    99   102    1
    47   106   104   am
    48   104   105    2
    49    94    93    1
    50    93    90    1
    51    87    86    1
    52    57    56    1
    53    43    40    1
    54    39    40    1
    55    88    86    1
    56    80    81    1
    57    80    77    1
    58    55    54    2
    59    40    41    1
    60    58    56    1
    61    86    83    1
    62    90    91    1
    63    90    89    1
    64   114   112   ar
    65    83    82    1
    66    83    84    1
    67    92    91    2
    68    56    53    1
    69    82    78   am
    70    79    78    2
    71    78    77    1
    72   110   109    2
    73    54    53    1
    74    54    59   am
    75   112   111    1
    76   112   113   ar
    77    85    84    2
    78   118   117    2
    79    77    76    1
    80   111   108    1
    81   119   120    1
    82   119   116    1
    83    60    59    1
    84    60    61    1
    85   120   121    1
    86    53    52    1
    87    41    42    2
    88    62    61    2
    89   109   108    1
    90   109   115   am
    91    76    69   am
    92   117   116    1
    93    64    63    1
    94    64    65    1
    95   108   107    1
    96   121   123   ar
    97   121   122   ar
    98   116   115    1
    99    52    46   am
   100    65    66    2
   101    65    67   am
   102    69    70    2
   103    69    68    1
   104    67    68    1
   105   131   129    1
   106    46    47    2
   107    46    45    1
   108    75    74    1
   109    68    71    1
   110   130   128    1
   111    51    49   am
   112    72    71    1
   113    72    73    1
   114   128   129    1
   115   128   125    1
   116    74    73    1
   117    48    45    1
   118    48    49    1
   119    45    44    1
   120    49    50    2
   121   127   126    2
   122   126   125    1
   123   125   124    1
