@<TRIPOS>MOLECULE
tmp/4ziyA00.pdb
 182 169 0 0 0
SMALL
GASTEIGER

@<TRIPOS>ATOM
      1  N         -1.7560   52.1570   16.8660 N.3   116  SER116     -0.1202
      2  CA        -3.1770   52.4920   16.8760 C.3   116  SER116      0.2020
      3  C         -3.8350   52.1000   15.5450 C.2   116  SER116      0.2619
      4  O         -4.9900   51.6670   15.5110 O.2   116  SER116     -0.2717
      5  CB        -3.3830   53.9740   17.1710 C.3   116  SER116      0.2103
      6  OG        -2.9980   54.2810   18.5070 O.3   116  SER116     -0.2182
      7  N         -3.0930   52.2520   14.4520 N.am  117  SER117     -0.1937
      8  CA        -3.6030   51.8920   13.1300 C.3   117  SER117      0.2055
      9  C         -2.5310   51.1870   12.3150 C.2   117  SER117      0.2644
     10  O         -1.3330   51.3320   12.5780 O.2   117  SER117     -0.2714
     11  CB        -4.0960   53.1330   12.3840 C.3   117  SER117      0.2130
     12  OG        -5.1370   53.7630   13.1050 O.3   117  SER117     -0.2179
     13  N         -2.9660   50.4180   11.3240 N.am  118  GLY118     -0.1939
     14  CA        -2.0420   49.7380   10.4310 C.3   118  GLY118      0.2014
     15  C         -1.4450   48.4190   10.9010 C.2   118  GLY118      0.2639
     16  O         -0.6000   47.8600   10.2020 O.2   118  GLY118     -0.2714
     17  N         -1.8590   47.9070   12.0680 N.am  119  LYS119     -0.1963
     18  CA        -1.2620   46.6630   12.5850 C.3   119  LYS119      0.1728
     19  C         -1.4860   45.4820   11.6410 C.2   119  LYS119      0.2617
     20  O         -0.5540   44.7630   11.2640 O.2   119  LYS119     -0.2715
     21  CB        -1.8350   46.2980   13.9740 C.3   119  LYS119      0.0311
     22  CG        -1.5080   47.2830   15.0910 C.3   119  LYS119      0.0038
     23  CD        -2.0410   46.8150   16.4670 C.3   119  LYS119      0.0206
     24  CE        -3.5770   46.7270   16.5270 C.3   119  LYS119      0.1093
     25  NZ        -4.2630   48.0500   16.3690 N.3   119  LYS119     -0.1314
     26  N         -2.7410   45.2860   11.2730 N.am  120  THR120     -0.1937
     27  CA        -3.1190   44.1340   10.4740 C.3   120  THR120      0.2028
     28  C         -2.4920   44.2230    9.0850 C.2   120  THR120      0.2642
     29  O         -1.9580   43.2440    8.5760 O.2   120  THR120     -0.2714
     30  CB        -4.6520   44.0280   10.3660 C.3   120  THR120      0.1808
     31  OG1       -5.1850   43.6440   11.6450 O.3   120  THR120     -0.2208
     32  CG2       -5.0560   43.0130    9.3000 C.3   120  THR120      0.0379
     33  N         -2.5330   45.4030    8.4860 N.am  121  THR121     -0.1950
     34  CA        -1.9660   45.5720    7.1430 C.3   121  THR121      0.1897
     35  C         -0.4560   45.3450    7.1610 C.2   121  THR121      0.2313
     36  O          0.0880   44.6480    6.2970 O.2   121  THR121     -0.2863
     37  CB        -2.2950   46.9640    6.5880 C.3   121  THR121      0.1794
     38  OG1       -3.7150   47.0840    6.4570 O.3   121  THR121     -0.2208
     39  CG2       -1.6460   47.1770    5.2190 C.3   121  THR121      0.0378
     40  N         -8.7030   39.0510   14.6780 N.3   142  ASN142     -0.1240
     41  CA        -8.4610   39.9190   15.8340 C.3   142  ASN142      0.1653
     42  C         -7.9730   39.1640   17.0610 C.2   142  ASN142      0.2266
     43  O         -8.2530   39.5710   18.1870 O.2   142  ASN142     -0.2867
     44  CB        -9.7250   40.7100   16.1980 C.3   142  ASN142      0.1155
     45  CG       -10.8770   39.8200   16.6280 C.2   142  ASN142      0.2627
     46  OD1      -10.7580   38.5960   16.6640 O.2   142  ASN142     -0.2716
     47  ND2      -12.0020   40.4390   16.9660 N.am  142  ASN142     -0.0877
     48  N         -5.6200   39.0880   19.1960 N.3   144  ASN144     -0.1240
     49  CA        -4.4620   39.9160   19.5260 C.3   144  ASN144      0.1653
     50  C         -4.4730   40.4350   20.9630 C.2   144  ASN144      0.2266
     51  O         -3.7050   41.3450   21.3030 O.2   144  ASN144     -0.2867
     52  CB        -4.3610   41.0930   18.5240 C.3   144  ASN144      0.1155
     53  CG        -5.5250   42.0770   18.6260 C.2   144  ASN144      0.2627
     54  OD1       -6.2850   42.0760   19.5940 O.2   144  ASN144     -0.2716
     55  ND2       -5.6580   42.9360   17.6170 N.am  144  ASN144     -0.0877
     56  N          0.5670   40.2000   16.0880 N.3   166  GLU166     -0.1245
     57  CA        -0.0970   41.4670   16.3300 C.3   166  GLU166      0.1567
     58  C         -0.5680   41.5390   17.7890 C.2   166  GLU166      0.2260
     59  O         -1.2370   40.6140   18.2790 O.2   166  GLU166     -0.2867
     60  CB        -1.2930   41.6200   15.3980 C.3   166  GLU166      0.0388
     61  CG        -2.1340   42.8490   15.6410 C.3   166  GLU166      0.1160
     62  CD        -3.2680   42.9600   14.6230 C.2   166  GLU166      0.3649
     63  OE1       -3.1270   42.4360   13.4920 O.co2 166  GLU166     -0.2457
     64  OE2       -4.2920   43.5690   14.9530 O.co2 166  GLU166     -0.2457
     65  N         -2.8330   43.9180   20.3300 N.3   168  GLY168     -0.1225
     66  CA        -3.8340   44.9550   20.1660 C.3   168  GLY168      0.1811
     67  C         -4.1860   45.8210   21.3460 C.2   168  GLY168      0.2280
     68  O         -4.9750   46.7630   21.2090 O.2   168  GLY168     -0.2866
     69  N          2.4270   53.6180   15.3800 N.3   191  ASN191     -0.1240
     70  CA         1.9550   54.9850   15.5950 C.3   191  ASN191      0.1653
     71  C          1.1650   55.0580   16.8890 C.2   191  ASN191      0.2266
     72  O          0.7210   54.0320   17.3930 O.2   191  ASN191     -0.2867
     73  CB         1.0660   55.4470   14.4340 C.3   191  ASN191      0.1155
     74  CG         0.0620   54.3920   14.0290 C.2   191  ASN191      0.2627
     75  OD1       -0.8810   54.1060   14.7670 O.2   191  ASN191     -0.2716
     76  ND2        0.2740   53.7830   12.8600 N.am  191  ASN191     -0.0877
     77  N         -1.0920   56.0750    3.6010 N.3   283  HIS283     -0.1226
     78  CA        -0.9690   55.3360    4.8610 C.3   283  HIS283      0.1752
     79  C         -0.3500   53.9620    4.6190 C.2   283  HIS283      0.2596
     80  O          0.4200   53.4600    5.4320 O.2   283  HIS283     -0.2718
     81  CB        -2.3350   55.2000    5.5460 C.3   283  HIS283      0.0759
     82  CG        -3.3370   54.4060    4.7630 C.ar  283  HIS283      0.0818
     83  ND1       -3.6410   54.6760    3.4440 N.ar  283  HIS283     -0.2268
     84  CD2       -4.1100   53.3530    5.1180 C.ar  283  HIS283      0.1154
     85  CE1       -4.5550   53.8210    3.0210 C.ar  283  HIS283      0.1986
     86  NE2       -4.8630   53.0130    4.0200 N.ar  283  HIS283     -0.2212
     87  N         -0.6710   53.3560    3.4810 N.am  284  ASN284     -0.1974
     88  CA        -0.1390   52.0270    3.1980 C.3   284  ASN284      0.1688
     89  C          1.3270   52.0710    2.7590 C.2   284  ASN284      0.2292
     90  O          2.0410   51.0810    2.9070 O.2   284  ASN284     -0.2864
     91  CB        -1.0160   51.3150    2.1670 C.3   284  ASN284      0.1181
     92  CG        -2.2320   50.6650    2.8050 C.2   284  ASN284      0.2629
     93  OD1       -2.1630   50.1750    3.9360 O.2   284  ASN284     -0.2716
     94  ND2       -3.3570   50.6640    2.0920 N.am  284  ASN284     -0.0877
     95  N          3.3500   54.1540    4.3150 N.3   286  GLN286     -0.1231
     96  CA         3.8910   54.1380    5.6770 C.3   286  GLN286      0.1698
     97  C          3.9490   52.7270    6.2630 C.2   286  GLN286      0.2592
     98  O          4.9420   52.3500    6.9010 O.2   286  GLN286     -0.2718
     99  CB         3.0540   55.0300    6.5910 C.3   286  GLN286      0.0381
    100  CG         3.2140   56.5170    6.3380 C.3   286  GLN286      0.0905
    101  CD         2.6140   57.3400    7.4690 C.2   286  GLN286      0.2608
    102  OE1        1.5440   57.9280    7.3210 O.2   286  GLN286     -0.2717
    103  NE2        3.3020   57.3760    8.6090 N.am  286  GLN286     -0.0878
    104  N          2.8770   51.9550    6.0760 N.am  287  ASN287     -0.1974
    105  CA         2.8700   50.5730    6.5700 C.3   287  ASN287      0.1688
    106  C          3.9730   49.7480    5.8820 C.2   287  ASN287      0.2292
    107  O          4.6480   48.9260    6.5200 O.2   287  ASN287     -0.2864
    108  CB         1.4960   49.9220    6.3620 C.3   287  ASN287      0.1181
    109  CG         0.4240   50.5470    7.2210 C.2   287  ASN287      0.2629
    110  OD1        0.7010   51.0460    8.3070 O.2   287  ASN287     -0.2716
    111  ND2       -0.8160   50.5210    6.7410 N.am  287  ASN287     -0.0877
    112  N        -11.7970   43.7260    3.8070 N.3   317  GLY317     -0.1210
    113  CA       -12.3950   44.9720    4.2510 C.3   317  GLY317      0.1956
    114  C        -11.4140   46.1210    4.4070 C.2   317  GLY317      0.2611
    115  O        -11.7690   47.1720    4.9410 O.2   317  GLY317     -0.2717
    116  N        -10.1760   45.9130    3.9630 N.am  318  ARG318     -0.1979
    117  CA        -9.1710   46.9760    3.9330 C.3   318  ARG318      0.1597
    118  C         -8.8650   47.3390    2.4840 C.2   318  ARG318      0.2287
    119  O         -7.9510   46.7620    1.8920 O.2   318  ARG318     -0.2864
    120  CB        -7.8740   46.5560    4.6320 C.3   318  ARG318      0.0334
    121  CG        -7.8880   46.6190    6.1580 C.3   318  ARG318      0.0492
    122  CD        -8.6580   45.4620    6.7650 C.3   318  ARG318      0.2205
    123  NE        -8.2790   45.2470    8.1550 N.pl3 318  ARG318     -0.0865
    124  CZ        -8.6540   44.1960    8.8700 C.cat 318  ARG318      0.5346
    125  NH1       -9.4240   43.2610    8.3250 N.pl3 318  ARG318      0.1354
    126  NH2       -8.2670   44.0800   10.1320 N.pl3 318  ARG318      0.1354
    127  N        -13.9880   48.8360    1.8950 N.3   332  ASP332     -0.1239
    128  CA       -13.2120   49.4030    2.9920 C.3   332  ASP332      0.1674
    129  C        -14.0540   49.3570    4.2730 C.2   332  ASP332      0.2266
    130  O        -13.9770   50.2500    5.1270 O.2   332  ASP332     -0.2867
    131  CB       -12.7890   50.8360    2.6730 C.3   332  ASP332      0.1410
    132  CG       -11.5850   51.2750    3.4640 C.2   332  ASP332      0.3668
    133  OD1      -10.7150   50.4220    3.7420 O.co2 332  ASP332     -0.2456
    134  OD2      -11.5030   52.4770    3.8000 O.co2 332  ASP332     -0.2456
    135  N        -14.1400   47.4210    6.9550 N.3   334  TYR334     -0.1227
    136  CA       -13.6560   46.8740    8.2280 C.3   334  TYR334      0.1736
    137  C        -13.9520   47.8080    9.4070 C.2   334  TYR334      0.2595
    138  O        -14.5090   47.3720   10.4080 O.2   334  TYR334     -0.2718
    139  CB       -12.1520   46.5660    8.1790 C.3   334  TYR334      0.0548
    140  CG       -11.6230   46.1840    9.5570 C.ar  334  TYR334     -0.0200
    141  CD1      -11.9780   44.9770   10.1490 C.ar  334  TYR334     -0.0009
    142  CD2      -10.7990   47.0440   10.2710 C.ar  334  TYR334     -0.0009
    143  CE1      -11.5170   44.6340   11.4160 C.ar  334  TYR334      0.0417
    144  CE2      -10.3320   46.7090   11.5350 C.ar  334  TYR334      0.0417
    145  CZ       -10.6920   45.5040   12.0990 C.ar  334  TYR334      0.1957
    146  OH       -10.2270   45.1800   13.3580 O.3   334  TYR334     -0.2866
    147  N        -13.5930   49.0850    9.2960 N.am  335  ASN335     -0.1974
    148  CA       -13.8990   50.0360   10.3700 C.3   335  ASN335      0.1688
    149  C        -13.8980   51.4830    9.8750 C.2   335  ASN335      0.2292
    150  O        -13.7030   51.7410    8.6820 O.2   335  ASN335     -0.2864
    151  CB       -12.9100   49.8740   11.5280 C.3   335  ASN335      0.1181
    152  CG       -11.5180   50.3960   11.1990 C.2   335  ASN335      0.2629
    153  OD1      -11.1940   50.6710   10.0400 O.2   335  ASN335     -0.2716
    154  ND2      -10.6810   50.5210   12.2240 N.am  335  ASN335     -0.0877
    155  N        -13.2730   55.9080   11.3480 N.3   337  ASN337     -0.1240
    156  CA       -13.1970   57.0350   12.2710 C.3   337  ASN337      0.1653
    157  C        -13.2060   58.3100   11.4140 C.2   337  ASN337      0.2266
    158  O        -12.9640   58.2300   10.2070 O.2   337  ASN337     -0.2867
    159  CB       -11.9530   56.9440   13.1690 C.3   337  ASN337      0.1155
    160  CG       -10.6610   56.9230   12.3860 C.2   337  ASN337      0.2627
    161  OD1      -10.3020   57.9010   11.7300 O.2   337  ASN337     -0.2716
    162  ND2       -9.9350   55.8130   12.4730 N.am  337  ASN337     -0.0877
    163  N        -10.1620   58.6240    8.9990 N.3   340  SER340     -0.1217
    164  CA       -10.0700   57.5930    7.9680 C.3   340  SER340      0.1889
    165  C        -11.2370   57.6600    6.9790 C.2   340  SER340      0.2288
    166  O        -11.0960   57.2840    5.8110 O.2   340  SER340     -0.2866
    167  CB       -10.0090   56.2060    8.6080 C.3   340  SER340      0.2089
    168  OG       -11.2930   55.7790    9.0230 O.3   340  SER340     -0.2183
    169  N        -10.2640   60.1150    4.4960 N.3   343  ALA343     -0.1245
    170  CA        -9.1590   59.5490    3.7290 C.3   343  ALA343      0.1562
    171  C         -9.6680   58.6230    2.6270 C.2   343  ALA343      0.2260
    172  O         -9.1200   58.5980    1.5210 O.2   343  ALA343     -0.2867
    173  CB        -8.2050   58.8030    4.6540 C.3   343  ALA343      0.0290
    174  N        -17.9630   51.9820    3.4870 N.3   429  LYS429     -0.1245
    175  CA       -17.2000   52.1280    4.7250 C.3   429  LYS429      0.1561
    176  C        -18.0830   52.5190    5.9060 C.2   429  LYS429      0.2260
    177  O        -19.0270   53.2910    5.7620 O.2   429  LYS429     -0.2867
    178  CB       -16.0880   53.1650    4.5490 C.3   429  LYS429      0.0271
    179  CG       -15.1220   53.2570    5.7230 C.3   429  LYS429      0.0035
    180  CD       -14.0020   54.2430    5.4270 C.3   429  LYS429      0.0206
    181  CE       -12.9160   54.1890    6.4910 C.3   429  LYS429      0.1093
    182  NZ       -12.2480   52.8570    6.5380 N.3   429  LYS429     -0.1314
@<TRIPOS>BOND
     1   172   171    2
     2   119   118    2
     3   127   128    1
     4    94    92   am
     5    91    92    1
     6    91    88    1
     7   118   117    1
     8   171   170    1
     9   131   128    1
    10   131   132    1
    11    89    90    2
    12    89    88    1
    13    92    93    2
    14   128   129    1
    15    85    83   ar
    16    85    86   ar
    17    88    87    1
    18    83    82   ar
    19   132   133   ar
    20   132   134   ar
    21    87    79   am
    22   174   175    1
    23    77    78    1
    24   170   169    1
    25   170   173    1
    26   112   113    1
    27   117   116    1
    28   117   120    1
    29   116   114   am
    30    86    84   ar
    31   113   114    1
    32   129   130    2
    33    95    96    1
    34   114   115    2
    35   178   175    1
    36   178   179    1
    37    79    78    1
    38    79    80    2
    39   120   121    1
    40   175   176    1
    41    82    84   ar
    42    82    81    1
    43    78    81    1
    44    39    37    1
    45   180   179    1
    46   180   181    1
    47    96    97    1
    48    96    99    1
    49   177   176    2
    50   166   165    2
    51   106   107    2
    52   106   105    1
    53   104    97   am
    54   104   105    1
    55   121   122    1
    56    97    98    2
    57    36    35    2
    58   100    99    1
    59   100   101    1
    60   108   105    1
    61   108   109    1
    62    38    37    1
    63   181   182    1
    64    37    34    1
    65   111   109   am
    66   122   123    1
    67   135   136    1
    68   165   164    1
    69    34    35    1
    70    34    33    1
    71   109   110    2
    72   102   101    2
    73   101   103   am
    74   164   167    1
    75   164   163    1
    76   123   124    2
    77   139   136    1
    78   139   140    1
    79   136   137    1
    80   125   124    1
    81    33    28   am
    82    29    28    2
    83   167   168    1
    84   150   149    2
    85   124   126    1
    86    28    27    1
    87   147   137   am
    88   147   148    1
    89    32    30    1
    90   137   138    2
    91   140   141   ar
    92   140   142   ar
    93   149   148    1
    94   153   152    2
    95   141   143   ar
    96    16    15    2
    97   158   157    2
    98   142   144   ar
    99    30    27    1
   100    30    31    1
   101   148   151    1
   102    14    15    1
   103    14    13    1
   104    27    26    1
   105    15    17   am
   106   152   151    1
   107   152   154   am
   108    20    19    2
   109    26    19   am
   110    13     9   am
   111   155   156    1
   112   157   156    1
   113   143   145   ar
   114   144   145   ar
   115    19    18    1
   116   161   160    2
   117    17    18    1
   118   145   146    1
   119   156   159    1
   120     9    10    2
   121     9     8    1
   122    11    12    1
   123    11     8    1
   124   160   162   am
   125   160   159    1
   126    18    21    1
   127    76    74   am
   128     8     7    1
   129    63    62   ar
   130    21    22    1
   131    74    73    1
   132    74    75    2
   133    73    70    1
   134     7     3   am
   135    62    64   ar
   136    62    61    1
   137    40    41    1
   138    22    23    1
   139    69    70    1
   140    60    61    1
   141    60    57    1
   142     4     3    2
   143     3     2    1
   144    70    71    1
   145    41    44    1
   146    41    42    1
   147    56    57    1
   148    44    45    1
   149    57    58    1
   150    25    24    1
   151    23    24    1
   152    45    46    2
   153    45    47   am
   154     1     2    1
   155     2     5    1
   156    71    72    2
   157    42    43    2
   158     5     6    1
   159    55    53   am
   160    58    59    2
   161    52    53    1
   162    52    49    1
   163    53    54    2
   164    48    49    1
   165    49    50    1
   166    66    65    1
   167    66    67    1
   168    50    51    2
   169    68    67    2
