@<TRIPOS>MOLECULE
tmp/4zj1A00.pdb
 87 80 0 0 0
SMALL
GASTEIGER

@<TRIPOS>ATOM
      1  N        -13.3670    7.7540  -15.1620 N.3    45  SER45      -0.1217
      2  CA       -12.4090    7.4920  -16.2380 C.3    45  SER45       0.1889
      3  C        -11.0750    8.1720  -16.0990 C.2    45  SER45       0.2288
      4  O        -10.1650    7.8560  -16.8800 O.2    45  SER45      -0.2866
      5  CB       -13.0360    7.7870  -17.5930 C.3    45  SER45       0.2089
      6  OG       -14.0110    6.8260  -17.8850 O.3    45  SER45      -0.2183
      7  N        -19.8300    2.2550  -23.6840 N.3    80  TYR80      -0.1241
      8  CA       -18.8990    3.3660  -23.8810 C.3    80  TYR80       0.1605
      9  C        -17.5520    2.8610  -24.3770 C.2    80  TYR80       0.2264
     10  O        -16.4800    3.1980  -23.8380 O.2    80  TYR80      -0.2867
     11  CB       -18.7920    4.2500  -22.6310 C.3    80  TYR80       0.0534
     12  CG       -20.1310    4.8150  -22.1540 C.ar   80  TYR80      -0.0201
     13  CD1      -21.0080    5.4160  -23.0540 C.ar   80  TYR80      -0.0009
     14  CD2      -20.5000    4.7130  -20.8330 C.ar   80  TYR80      -0.0009
     15  CE1      -22.2480    5.9200  -22.6300 C.ar   80  TYR80       0.0417
     16  CE2      -21.7250    5.2180  -20.3820 C.ar   80  TYR80       0.0417
     17  CZ       -22.5860    5.8160  -21.2930 C.ar   80  TYR80       0.1957
     18  OH       -23.8010    6.3210  -20.8760 O.3    80  TYR80      -0.2866
     19  N        -11.9220    7.5160  -24.0820 N.3   105  SER105     -0.1217
     20  CA       -12.4660    6.9970  -22.8400 C.3   105  SER105      0.1889
     21  C        -13.0620    5.5940  -22.9960 C.2   105  SER105      0.2288
     22  O        -14.0190    5.2580  -22.3470 O.2   105  SER105     -0.2866
     23  CB       -13.4780    7.9770  -22.2240 C.3   105  SER105      0.2089
     24  OG       -13.4080    7.8070  -20.8090 O.3   105  SER105     -0.2183
     25  N         -6.6440   13.8220  -26.2390 N.3   189  ASP189     -0.1239
     26  CA        -7.9690   13.5390  -25.6730 C.3   189  ASP189      0.1674
     27  C         -9.0870   14.1820  -26.5010 C.2   189  ASP189      0.2266
     28  O         -9.0290   15.3640  -26.7780 O.2   189  ASP189     -0.2867
     29  CB        -7.9990   14.1030  -24.2480 C.3   189  ASP189      0.1410
     30  CG        -9.2410   13.7660  -23.4510 C.2   189  ASP189      0.3668
     31  OD1      -10.0840   12.9540  -23.8670 O.co2 189  ASP189     -0.2456
     32  OD2       -9.3800   14.4240  -22.3510 O.co2 189  ASP189     -0.2456
     33  N        -13.0440   15.4560  -23.7480 N.3   191  ALA191     -0.1245
     34  CA       -13.1050   16.4930  -22.7080 C.3   191  ALA191      0.1562
     35  C        -13.4410   17.8760  -23.2290 C.2   191  ALA191      0.2260
     36  O        -13.2110   18.8860  -22.5810 O.2   191  ALA191     -0.2867
     37  CB       -11.8110   16.5300  -21.9190 C.3   191  ALA191      0.0290
     38  N        -16.0560   19.9370  -23.5720 N.3   193  PRO193     -0.2116
     39  CA       -16.8450   20.9680  -22.8350 C.3   193  PRO193      0.1372
     40  C        -16.3320   21.3460  -21.4850 C.2   193  PRO193      0.2244
     41  O        -16.9980   22.0990  -20.7410 O.2   193  PRO193     -0.2868
     42  CB       -18.2230   20.3080  -22.6660 C.3   193  PRO193      0.0268
     43  CG       -18.0550   18.9030  -22.9150 C.3   193  PRO193      0.0207
     44  CD       -16.7270   18.6320  -23.5670 C.3   193  PRO193      0.0892
     45  N         -7.6510   14.2830  -19.1200 N.3   208  LYS208     -0.1231
     46  CA        -8.5450   13.1130  -19.1520 C.3   208  LYS208      0.1693
     47  C         -9.7140   13.4150  -18.2590 C.2   208  LYS208      0.2593
     48  O         -9.4730   13.8020  -17.0650 O.2   208  LYS208     -0.2718
     49  CB        -7.8600   11.8350  -18.6460 C.3   208  LYS208      0.0285
     50  CG        -8.7490   10.6200  -18.6600 C.3   208  LYS208      0.0035
     51  CD        -8.9780   10.0760  -20.0820 C.3   208  LYS208      0.0206
     52  CE       -10.1220    9.1080  -20.1340 C.3   208  LYS208      0.1093
     53  NZ       -11.4420    9.7900  -20.1270 N.3   208  LYS208     -0.1314
     54  N        -10.9190   13.2820  -18.7890 N.am  209  SER209     -0.1938
     55  CA       -12.0810   13.5390  -17.9940 C.3   209  SER209      0.2055
     56  C        -12.7160   12.2580  -17.5120 C.2   209  SER209      0.2644
     57  O        -12.2870   11.1380  -17.8330 O.2   209  SER209     -0.2714
     58  CB       -13.0230   14.4340  -18.7150 C.3   209  SER209      0.2130
     59  OG       -13.3310   13.9120  -19.9790 O.3   209  SER209     -0.2179
     60  N        -13.6880   12.4520  -16.6190 N.am  210  GLY210     -0.1939
     61  CA       -14.4650   11.2990  -16.1420 C.3   210  GLY210      0.2014
     62  C        -15.8910   11.6890  -15.8560 C.2   210  GLY210      0.2638
     63  O        -16.1940   12.8420  -15.5390 O.2   210  GLY210     -0.2714
     64  N        -16.7730   10.7210  -16.0300 N.am  211  ALA211     -0.1977
     65  CA       -18.2080   10.8660  -15.6670 C.3   211  ALA211      0.1597
     66  C        -18.6590    9.5660  -14.9980 C.2   211  ALA211      0.2287
     67  O        -18.2080    8.4600  -15.3470 O.2   211  ALA211     -0.2864
     68  CB       -19.0540   11.1480  -16.8640 C.3   211  ALA211      0.0319
     69  N        -18.3920   13.8150  -11.8450 N.3   217  ARG217     -0.1245
     70  CA       -17.7390   14.4190  -13.0140 C.3   217  ARG217      0.1563
     71  C        -16.3470   14.8690  -12.5740 C.2   217  ARG217      0.2260
     72  O        -16.1310   15.2900  -11.4350 O.2   217  ARG217     -0.2867
     73  CB       -18.5580   15.6320  -13.4840 C.3   217  ARG217      0.0307
     74  CG       -18.2120   16.1040  -14.8740 C.3   217  ARG217      0.0489
     75  CD       -18.7390   15.1600  -15.9380 C.3   217  ARG217      0.2205
     76  NE       -18.6290   15.6870  -17.2910 N.pl3 217  ARG217     -0.0865
     77  CZ       -17.8760   15.1970  -18.2510 C.cat 217  ARG217      0.5346
     78  NH1      -16.9490   14.2100  -18.0240 N.pl3 217  ARG217      0.1354
     79  NH2      -17.9840   15.7220  -19.4510 N.pl3 217  ARG217      0.1354
     80  N        -25.7400   16.8490  -17.1250 N.3   244  MET244     -0.1245
     81  CA       -24.4050   16.7910  -17.6480 C.3   244  MET244      0.1570
     82  C        -23.9700   18.1570  -18.1230 C.2   244  MET244      0.2261
     83  O        -22.8730   18.5920  -17.8260 O.2   244  MET244     -0.2867
     84  CB       -24.3010   15.7580  -18.7830 C.3   244  MET244      0.0387
     85  CG       -22.9420   15.5370  -19.3860 C.3   244  MET244      0.0595
     86  SD       -21.7740   14.9080  -18.1600 S.3   244  MET244     -0.1393
     87  CE       -22.3040   13.2550  -18.0280 C.3   244  MET244      0.0692
@<TRIPOS>BOND
     1    28    27    2
     2    27    26    1
     3    25    26    1
     4    26    29    1
     5     9     8    1
     6     9    10    2
     7    29    30    1
     8    19    20    1
     9     8     7    1
    10     8    11    1
    11    31    30   ar
    12    33    34    1
    13    38    44    1
    14    38    39    1
    15    44    43    1
    16    30    32   ar
    17    35    34    1
    18    35    36    2
    19    13    15   ar
    20    13    12   ar
    21    21    20    1
    22    21    22    2
    23    43    42    1
    24    20    23    1
    25    39    42    1
    26    39    40    1
    27    34    37    1
    28    11    12    1
    29    15    17   ar
    30    23    24    1
    31    12    14   ar
    32    40    41    2
    33    17    18    1
    34    17    16   ar
    35    14    16   ar
    36    52    53    1
    37    52    51    1
    38    51    50    1
    39    59    58    1
    40    79    77    1
    41    85    84    1
    42    85    86    1
    43    46    45    1
    44    46    49    1
    45    46    47    1
    46    54    47   am
    47    54    55    1
    48    84    81    1
    49    58    55    1
    50    50    49    1
    51    47    48    2
    52    77    78    1
    53    77    76    2
    54    86    87    1
    55    82    83    2
    56    82    81    1
    57    55    56    1
    58     6     5    1
    59    57    56    2
    60    81    80    1
    61     5     2    1
    62    56    60   am
    63    76    75    1
    64     4     3    2
    65    68    65    1
    66    60    61    1
    67     2     3    1
    68     2     1    1
    69    61    62    1
    70    64    62   am
    71    64    65    1
    72    75    74    1
    73    62    63    2
    74    65    66    1
    75    67    66    2
    76    74    73    1
    77    73    70    1
    78    70    71    1
    79    70    69    1
    80    71    72    2
