@<TRIPOS>MOLECULE
tmp/4zj8A03.pdb
 78 74 0 0 0
SMALL
GASTEIGER

@<TRIPOS>ATOM
      1  N          8.3090   -5.5340  -44.6220 N.3    33  VAL33      -0.1231
      2  CA         8.8910   -6.1800  -43.4510 C.3    33  VAL33       0.1692
      3  C          8.5760   -5.4060  -42.1720 C.2    33  VAL33       0.2591
      4  O          8.2220   -6.0090  -41.1560 O.2    33  VAL33      -0.2718
      5  CB        10.4290   -6.3630  -43.5910 C.3    33  VAL33       0.0266
      6  CG1       10.7440   -7.3220  -44.7260 C.3    33  VAL33       0.0020
      7  CG2       11.1410   -5.0340  -43.8060 C.3    33  VAL33       0.0020
      8  N          8.6720   -4.0790  -42.2290 N.am   34  VAL34      -0.1980
      9  CA         8.4370   -3.2530  -41.0500 C.3    34  VAL34       0.1595
     10  C          7.0020   -3.4120  -40.5570 C.2    34  VAL34       0.2287
     11  O          6.7640   -3.5600  -39.3590 O.2    34  VAL34      -0.2864
     12  CB         8.7280   -1.7630  -41.3280 C.3    34  VAL34       0.0276
     13  CG1        8.2910   -0.9040  -40.1520 C.3    34  VAL34       0.0022
     14  CG2       10.2100   -1.5560  -41.6060 C.3    34  VAL34       0.0022
     15  N          6.6660   -7.3390  -39.0700 N.3    37  VAL37      -0.1231
     16  CA         7.2560   -7.5830  -37.7590 C.3    37  VAL37       0.1692
     17  C          6.6890   -6.6180  -36.7200 C.2    37  VAL37       0.2592
     18  O          6.4730   -6.9990  -35.5730 O.2    37  VAL37      -0.2718
     19  CB         8.8030   -7.4790  -37.7880 C.3    37  VAL37       0.0266
     20  CG1        9.3840   -8.5400  -38.7090 C.3    37  VAL37       0.0020
     21  CG2        9.2620   -6.0900  -38.2060 C.3    37  VAL37       0.0020
     22  N          6.4200   -5.3830  -37.1330 N.am   38  GLY38      -0.1957
     23  CA         5.8720   -4.3860  -36.2350 C.3    38  GLY38       0.1869
     24  C          4.5040   -4.7820  -35.7170 C.2    38  GLY38       0.2309
     25  O          4.2770   -4.8410  -34.5040 O.2    38  GLY38      -0.2863
     26  N          4.4930   -7.8280  -33.6180 N.3    41  LEU41      -0.1245
     27  CA         5.0020   -7.4770  -32.2940 C.3    41  LEU41       0.1561
     28  C          3.9100   -6.8370  -31.4460 C.2    41  LEU41       0.2260
     29  O          3.8130   -7.1020  -30.2460 O.2    41  LEU41      -0.2867
     30  CB         6.2060   -6.5380  -32.3930 C.3    41  LEU41       0.0270
     31  CG         7.5540   -7.2120  -32.6560 C.3    41  LEU41       0.0019
     32  CD1        8.6910   -6.2090  -32.5480 C.3    41  LEU41       0.0001
     33  CD2        7.7650   -8.3800  -31.7070 C.3    41  LEU41       0.0001
     34  N          2.9140    0.7190  -35.8030 N.3   485  PRO485     -0.2102
     35  CA         3.7460    0.0960  -34.7630 C.3   485  PRO485      0.1504
     36  C          4.8850    0.9970  -34.2880 C.2   485  PRO485      0.2575
     37  O          5.2350    0.9760  -33.1070 O.2   485  PRO485     -0.2718
     38  CB         4.3010   -1.1520  -35.4580 C.3   485  PRO485      0.0282
     39  CG         3.3180   -1.4540  -36.5280 C.3   485  PRO485      0.0208
     40  CD         2.8610   -0.1160  -37.0180 C.3   485  PRO485      0.0893
     41  N          5.4480    1.7820  -35.2020 N.am  486  ILE486     -0.1980
     42  CA         6.5130    2.7180  -34.8600 C.3   486  ILE486      0.1595
     43  C          5.9890    3.7990  -33.9160 C.2   486  ILE486      0.2287
     44  O          6.6360    4.1390  -32.9160 O.2   486  ILE486     -0.2864
     45  CB         7.1100    3.3690  -36.1230 C.3   486  ILE486      0.0276
     46  CG1        7.5770    2.2880  -37.1010 C.3   486  ILE486      0.0022
     47  CG2        8.2570    4.2980  -35.7560 C.3   486  ILE486      0.0022
     48  CD1        8.0970    2.8270  -38.4140 C.3   486  ILE486      0.0001
     49  N          5.6450    2.4370  -30.6290 N.3   489  ASN489     -0.1240
     50  CA         6.9640    2.2400  -30.0460 C.3   489  ASN489      0.1653
     51  C          7.5780    3.5340  -29.5310 C.2   489  ASN489      0.2266
     52  O          8.4530    3.5090  -28.6720 O.2   489  ASN489     -0.2867
     53  CB         7.9090    1.5930  -31.0590 C.3   489  ASN489      0.1155
     54  CG         9.3160    1.4260  -30.5160 C.2   489  ASN489      0.2627
     55  OD1        9.6190    0.4470  -29.8330 O.2   489  ASN489     -0.2716
     56  ND2       10.1800    2.3910  -30.8070 N.am  489  ASN489     -0.0877
     57  N          8.3650   -4.4070  -26.8330 N.3   499  PHE499     -0.1241
     58  CA         9.1390   -4.4670  -28.0700 C.3   499  PHE499      0.1605
     59  C         10.6040   -4.7500  -27.7670 C.2   499  PHE499      0.2264
     60  O         11.3040   -5.3710  -28.5680 O.2   499  PHE499     -0.2867
     61  CB         9.0090   -3.1660  -28.8680 C.3   499  PHE499      0.0534
     62  CG         7.6510   -2.9580  -29.4830 C.ar  499  PHE499     -0.0203
     63  CD1        6.7010   -3.9660  -29.4710 C.ar  499  PHE499     -0.0042
     64  CD2        7.3280   -1.7500  -30.0780 C.ar  499  PHE499     -0.0042
     65  CE1        5.4540   -3.7690  -30.0370 C.ar  499  PHE499     -0.0003
     66  CE2        6.0850   -1.5480  -30.6460 C.ar  499  PHE499     -0.0003
     67  CZ         5.1470   -2.5580  -30.6250 C.ar  499  PHE499     -0.0000
     68  N         13.0660   -9.3600  -27.8040 N.3   503  PHE503     -0.1241
     69  CA        14.3730   -9.6750  -28.3670 C.3   503  PHE503      0.1605
     70  C         15.3250  -10.2070  -27.3020 C.2   503  PHE503      0.2264
     71  O         16.5200   -9.9110  -27.3190 O.2   503  PHE503     -0.2867
     72  CB        14.9700   -8.4380  -29.0380 C.3   503  PHE503      0.0534
     73  CG        14.1200   -7.8810  -30.1430 C.ar  503  PHE503     -0.0203
     74  CD1       13.4240   -8.7260  -30.9920 C.ar  503  PHE503     -0.0042
     75  CD2       14.0070   -6.5130  -30.3270 C.ar  503  PHE503     -0.0042
     76  CE1       12.6380   -8.2180  -32.0080 C.ar  503  PHE503     -0.0003
     77  CE2       13.2210   -5.9980  -31.3410 C.ar  503  PHE503     -0.0003
     78  CZ        12.5360   -6.8520  -32.1820 C.ar  503  PHE503     -0.0000
@<TRIPOS>BOND
     1     6     5    1
     2     1     2    1
     3     7     5    1
     4     5     2    1
     5     2     3    1
     6     8     3   am
     7     8     9    1
     8     3     4    2
     9    14    12    1
    10    12     9    1
    11    12    13    1
    12     9    10    1
    13    10    11    2
    14    15    16    1
    15    20    19    1
    16    48    46    1
    17    21    19    1
    18    19    16    1
    19    16    17    1
    20    22    17   am
    21    22    23    1
    22    46    45    1
    23    40    39    1
    24    40    34    1
    25    17    18    2
    26    39    38    1
    27    23    24    1
    28    45    47    1
    29    45    42    1
    30    34    35    1
    31    24    25    2
    32    38    35    1
    33    41    42    1
    34    41    36   am
    35    42    43    1
    36    35    36    1
    37    36    37    2
    38    43    44    2
    39    26    27    1
    40    31    32    1
    41    31    30    1
    42    31    33    1
    43    30    27    1
    44    27    28    1
    45    78    76   ar
    46    78    77   ar
    47    76    74   ar
    48    28    29    2
    49    77    75   ar
    50    53    54    1
    51    53    50    1
    52    74    73   ar
    53    56    54   am
    54    66    67   ar
    55    66    64   ar
    56    49    50    1
    57    67    65   ar
    58    54    55    2
    59    75    73   ar
    60    73    72    1
    61    64    62   ar
    62    50    51    1
    63    65    63   ar
    64    51    52    2
    65    62    63   ar
    66    62    61    1
    67    72    69    1
    68    61    58    1
    69    60    59    2
    70    69    68    1
    71    69    70    1
    72    58    59    1
    73    58    57    1
    74    71    70    2
