@<TRIPOS>MOLECULE
tmp/4zjbA01.pdb
 117 118 0 0 0
SMALL
GASTEIGER

@<TRIPOS>ATOM
      1  N        -36.7350  -35.4820  -23.4590 N.3    50  HIS50      -0.1226
      2  CA       -37.1520  -35.9840  -22.1590 C.3    50  HIS50       0.1752
      3  C        -36.0530  -36.8420  -21.4950 C.2    50  HIS50       0.2596
      4  O        -36.0980  -38.0990  -21.5160 O.2    50  HIS50      -0.2718
      5  CB       -38.4530  -36.7910  -22.3290 C.3    50  HIS50       0.0759
      6  CG       -39.2020  -37.0350  -21.0500 C.ar   50  HIS50       0.0818
      7  ND1      -38.8000  -37.9660  -20.1150 N.ar   50  HIS50      -0.2268
      8  CD2      -40.3410  -36.4840  -20.5610 C.ar   50  HIS50       0.1154
      9  CE1      -39.6560  -37.9750  -19.1050 C.ar   50  HIS50       0.1986
     10  NE2      -40.5990  -37.0840  -19.3510 N.ar   50  HIS50      -0.2212
     11  N        -35.0420  -36.1900  -20.9280 N.am   51  PHE51      -0.1976
     12  CA       -34.8420  -34.7540  -20.9980 C.3    51  PHE51       0.1639
     13  C        -33.4590  -34.5820  -21.5790 C.2    51  PHE51       0.2290
     14  O        -32.6490  -35.4960  -21.4800 O.2    51  PHE51      -0.2864
     15  CB       -34.9340  -34.0940  -19.6110 C.3    51  PHE51       0.0560
     16  CG       -36.2420  -34.3120  -18.9240 C.ar   51  PHE51      -0.0200
     17  CD1      -37.3070  -33.4440  -19.1460 C.ar   51  PHE51      -0.0042
     18  CD2      -36.4120  -35.3810  -18.0510 C.ar   51  PHE51      -0.0042
     19  CE1      -38.5230  -33.6410  -18.5290 C.ar   51  PHE51      -0.0003
     20  CE2      -37.6290  -35.5700  -17.4180 C.ar   51  PHE51      -0.0003
     21  CZ       -38.6880  -34.6960  -17.6640 C.ar   51  PHE51      -0.0000
     22  N        -34.8410  -40.2520  -19.8010 N.3    56  ILE56      -0.1231
     23  CA       -35.7630  -40.9650  -18.9390 C.3    56  ILE56       0.1692
     24  C        -36.9700  -41.3470  -19.7760 C.2    56  ILE56       0.2592
     25  O        -37.5720  -40.5060  -20.4420 O.2    56  ILE56      -0.2718
     26  CB       -36.2020  -40.0990  -17.7110 C.3    56  ILE56       0.0266
     27  CG1      -34.9980  -39.7950  -16.8090 C.3    56  ILE56       0.0019
     28  CG2      -37.3020  -40.8050  -16.9100 C.3    56  ILE56       0.0020
     29  CD1      -35.3170  -38.8270  -15.7130 C.3    56  ILE56       0.0001
     30  N        -37.3280  -42.6160  -19.7740 N.am   57  PHE57      -0.1963
     31  CA       -38.4650  -43.0120  -20.5770 C.3    57  PHE57       0.1756
     32  C        -39.7470  -42.4740  -19.9290 C.2    57  PHE57       0.2461
     33  O        -40.0110  -42.7080  -18.7540 O.2    57  PHE57      -0.2730
     34  CB       -38.4990  -44.5270  -20.7530 C.3    57  PHE57       0.0574
     35  CG       -39.4370  -44.9840  -21.8430 C.ar   57  PHE57      -0.0200
     36  CD1      -39.1480  -44.7310  -23.1840 C.ar   57  PHE57      -0.0042
     37  CD2      -40.6130  -45.6650  -21.5260 C.ar   57  PHE57      -0.0042
     38  CE1      -40.0100  -45.1640  -24.1830 C.ar   57  PHE57      -0.0003
     39  CE2      -41.4820  -46.0870  -22.5220 C.ar   57  PHE57      -0.0003
     40  CZ       -41.1830  -45.8350  -23.8500 C.ar   57  PHE57      -0.0000
     41  N        -40.5400  -41.7140  -20.6930 N.am   58  PRO58      -0.2716
     42  CA       -41.7050  -41.0590  -20.0760 C.3    58  PRO58       0.1536
     43  C        -42.7040  -42.0580  -19.4970 C.2    58  PRO58       0.2599
     44  O        -43.0760  -43.0430  -20.1620 O.2    58  PRO58      -0.2715
     45  CB       -42.3190  -40.2640  -21.2340 C.3    58  PRO58       0.0310
     46  CG       -41.1560  -40.0150  -22.1630 C.3    58  PRO58       0.0237
     47  CD       -40.2980  -41.2510  -22.0700 C.3    58  PRO58       0.0939
     48  N        -43.1200  -41.7900  -18.2600 N.am   59  GLY59      -0.1941
     49  CA       -44.1400  -42.5610  -17.5750 C.3    59  GLY59       0.2014
     50  C        -45.3760  -42.8060  -18.4030 C.2    59  GLY59       0.2638
     51  O        -45.8960  -43.9240  -18.4310 O.2    59  GLY59      -0.2714
     52  N        -45.8600  -41.7940  -19.1080 N.am   60  VAL60      -0.1977
     53  CA       -47.0520  -42.0180  -19.9260 C.3    60  VAL60       0.1596
     54  C        -46.8230  -43.0240  -21.0760 C.2    60  VAL60       0.2287
     55  O        -47.7650  -43.6590  -21.5430 O.2    60  VAL60      -0.2864
     56  CB       -47.5920  -40.6810  -20.4930 C.3    60  VAL60       0.0276
     57  CG1      -48.0140  -39.7600  -19.3380 C.3    60  VAL60       0.0022
     58  CG2      -46.5440  -39.9860  -21.3770 C.3    60  VAL60       0.0022
     59  N        -44.7530  -45.7110  -20.7260 N.3    62  ILE62      -0.1245
     60  CA       -44.8250  -46.9820  -20.0190 C.3    62  ILE62       0.1561
     61  C        -46.2850  -47.4820  -19.9860 C.2    62  ILE62       0.2260
     62  O        -46.5720  -48.6270  -20.3640 O.2    62  ILE62      -0.2867
     63  CB       -44.2920  -46.8780  -18.6100 C.3    62  ILE62       0.0252
     64  CG1      -42.8080  -46.5030  -18.6580 C.3    62  ILE62       0.0019
     65  CG2      -44.5030  -48.1990  -17.8890 C.3    62  ILE62       0.0019
     66  CD1      -42.2270  -46.1710  -17.3330 C.3    62  ILE62       0.0001
     67  N        -45.6710  -44.6110  -10.4680 N.3   101  PHE101     -0.1227
     68  CA       -44.3320  -44.6670  -11.0300 C.3   101  PHE101      0.1736
     69  C        -43.2970  -44.7310   -9.9130 C.2   101  PHE101      0.2595
     70  O        -43.1630  -43.7900   -9.1410 O.2   101  PHE101     -0.2718
     71  CB       -44.0880  -43.4560  -11.9410 C.3   101  PHE101      0.0547
     72  CG       -45.0310  -43.3780  -13.1270 C.ar  101  PHE101     -0.0202
     73  CD1      -45.0740  -44.3930  -14.0610 C.ar  101  PHE101     -0.0042
     74  CD2      -45.8460  -42.2800  -13.3130 C.ar  101  PHE101     -0.0042
     75  CE1      -45.9190  -44.3260  -15.1510 C.ar  101  PHE101     -0.0003
     76  CE2      -46.6890  -42.2060  -14.3990 C.ar  101  PHE101     -0.0003
     77  CZ       -46.7350  -43.2350  -15.3220 C.ar  101  PHE101     -0.0000
     78  N        -42.5590  -45.8370   -9.8360 N.am  102  ARG102     -0.1966
     79  CA       -41.6360  -46.0680   -8.7180 C.3   102  ARG102      0.1729
     80  C        -40.1550  -45.9080   -9.0860 C.2   102  ARG102      0.2616
     81  O        -39.3610  -45.4120   -8.2960 O.2   102  ARG102     -0.2715
     82  CB       -41.8560  -47.4690   -8.1360 C.3   102  ARG102      0.0348
     83  CG       -43.2820  -47.7330   -7.6990 C.3   102  ARG102      0.0492
     84  CD       -43.4530  -49.1040   -7.0530 C.3   102  ARG102      0.2205
     85  NE       -44.8510  -49.3340   -6.7010 N.pl3 102  ARG102     -0.0865
     86  CZ       -45.4260  -48.8690   -5.5940 C.cat 102  ARG102      0.5346
     87  NH1      -44.7180  -48.1630   -4.7180 N.pl3 102  ARG102      0.1354
     88  NH2      -46.7110  -49.1080   -5.3680 N.pl3 102  ARG102      0.1354
     89  N        -39.7720  -46.3510  -10.2770 N.am  103  ILE103     -0.1964
     90  CA       -38.3630  -46.3130  -10.6600 C.3   103  ILE103      0.1712
     91  C        -38.2250  -45.7100  -12.0620 C.2   103  ILE103      0.2458
     92  O        -38.9220  -46.1180  -12.9920 O.2   103  ILE103     -0.2730
     93  CB       -37.7300  -47.7460  -10.5850 C.3   103  ILE103      0.0289
     94  CG1      -37.8460  -48.3110   -9.1590 C.3   103  ILE103      0.0022
     95  CG2      -36.2690  -47.7330  -11.0000 C.3   103  ILE103      0.0023
     96  CD1      -37.7740  -49.8390   -9.0550 C.3   103  ILE103      0.0001
     97  N        -37.3600  -44.7020  -12.2130 N.am  104  PRO104     -0.2716
     98  CA       -37.1110  -44.1830  -13.5680 C.3   104  PRO104      0.1536
     99  C        -36.5720  -45.2620  -14.5200 C.2   104  PRO104      0.2598
    100  O        -35.7700  -46.1260  -14.1350 O.2   104  PRO104     -0.2715
    101  CB       -36.0790  -43.0680  -13.3500 C.3   104  PRO104      0.0310
    102  CG       -35.5590  -43.2590  -11.9480 C.3   104  PRO104      0.0237
    103  CD       -36.6550  -43.9320  -11.1770 C.3   104  PRO104      0.0939
    104  N        -37.0740  -45.2290  -15.7510 N.am  105  VAL105     -0.1978
    105  CA       -36.6920  -46.1810  -16.7730 C.3   105  VAL105      0.1596
    106  C        -35.7400  -45.4420  -17.7070 C.2   105  VAL105      0.2287
    107  O        -36.0200  -44.2970  -18.0760 O.2   105  VAL105     -0.2864
    108  CB       -37.9240  -46.7240  -17.5200 C.3   105  VAL105      0.0276
    109  CG1      -37.5090  -47.5660  -18.7310 C.3   105  VAL105      0.0022
    110  CG2      -38.8330  -47.5220  -16.5540 C.3   105  VAL105      0.0022
    111  N        -41.2830  -51.0960  -11.7740 N.3   138  VAL138     -0.1245
    112  CA       -40.9880  -49.6810  -12.0190 C.3   138  VAL138      0.1561
    113  C        -42.2710  -48.8750  -12.0640 C.2   138  VAL138      0.2260
    114  O        -42.2700  -47.6870  -11.7590 O.2   138  VAL138     -0.2867
    115  CB       -40.1870  -49.4400  -13.3350 C.3   138  VAL138      0.0252
    116  CG1      -38.7990  -50.0290  -13.2280 C.3   138  VAL138      0.0019
    117  CG2      -40.9270  -49.9920  -14.5500 C.3   138  VAL138      0.0019
@<TRIPOS>BOND
     1    38    40   ar
     2    38    36   ar
     3    40    39   ar
     4     1     2    1
     5    36    35   ar
     6    39    37   ar
     7     5     2    1
     8     5     6    1
     9    46    47    1
    10    46    45    1
    11     2     3    1
    12    47    41    1
    13    35    37   ar
    14    35    34    1
    15    13    14    2
    16    13    12    1
    17    55    54    2
    18     4     3    2
    19     3    11   am
    20    58    56    1
    21    45    42    1
    22    54    53    1
    23     6     8   ar
    24     6     7   ar
    25    12    11    1
    26    12    15    1
    27    34    31    1
    28    59    60    1
    29    41    42    1
    30    41    32   am
    31    31    32    1
    32    31    30    1
    33     8    10   ar
    34    56    53    1
    35    56    57    1
    36    25    24    2
    37    62    61    2
    38    44    43    2
    39     7     9   ar
    40    42    43    1
    41    60    61    1
    42    60    63    1
    43    32    33    2
    44    53    52    1
    45    22    23    1
    46    24    30   am
    47    24    23    1
    48    15    16    1
    49    43    48   am
    50    10     9   ar
    51    17    16   ar
    52    17    19   ar
    53    52    50   am
    54    23    26    1
    55    16    18   ar
    56   109   108    1
    57    64    63    1
    58    64    66    1
    59    63    65    1
    60    19    21   ar
    61    51    50    2
    62    50    49    1
    63    48    49    1
    64   107   106    2
    65    18    20   ar
    66    26    28    1
    67    26    27    1
    68   106   105    1
    69    21    20   ar
    70   108   105    1
    71   108   110    1
    72    27    29    1
    73   105   104    1
    74   104    99   am
    75    77    75   ar
    76    77    76   ar
    77    75    73   ar
    78   117   115    1
    79    99   100    2
    80    99    98    1
    81    76    74   ar
    82    73    72   ar
    83    98   101    1
    84    98    97    1
    85   101   102    1
    86   115   116    1
    87   115   112    1
    88    74    72   ar
    89    72    71    1
    90    92    91    2
    91    97    91   am
    92    97   103    1
    93   113   112    1
    94   113   114    2
    95    91    90    1
    96   112   111    1
    97   102   103    1
    98    71    68    1
    99    68    67    1
   100    68    69    1
   101    95    93    1
   102    90    93    1
   103    90    89    1
   104    93    94    1
   105    89    80   am
   106    69    78   am
   107    69    70    2
   108    78    79    1
   109    94    96    1
   110    80    79    1
   111    80    81    2
   112    79    82    1
   113    82    83    1
   114    83    84    1
   115    84    85    1
   116    85    86    2
   117    86    88    1
   118    86    87    1
