@<TRIPOS>MOLECULE
tmp/4zjcA00.pdb
 208 197 0 0 0
SMALL
GASTEIGER

@<TRIPOS>ATOM
      1  N         -2.4070   -7.6490  -50.2670 N.3    74  CYS74      -0.1235
      2  CA        -2.5910   -6.5520  -51.2160 C.3    74  CYS74       0.1677
      3  C         -1.2970   -5.8600  -51.6510 C.2    74  CYS74       0.2270
      4  O         -1.1990   -5.3890  -52.7840 O.2    74  CYS74      -0.2867
      5  CB        -3.5470   -5.5140  -50.6260 C.3    74  CYS74       0.0956
      6  SG        -5.2350   -6.1140  -50.3830 S.3    74  CYS74      -0.0801
      7  N          0.7720   -7.5720  -54.7330 N.3    77  ALA77      -0.1231
      8  CA        -0.0200   -7.4030  -55.9450 C.3    77  ALA77       0.1694
      9  C          0.0780   -5.9700  -56.4530 C.2    77  ALA77       0.2592
     10  O          0.2650   -5.7310  -57.6480 O.2    77  ALA77      -0.2718
     11  CB        -1.4720   -7.7800  -55.6860 C.3    77  ALA77       0.0304
     12  N         -0.0400   -5.0200  -55.5320 N.am   78  SER78      -0.1952
     13  CA         0.0450   -3.6050  -55.8720 C.3    78  SER78       0.1924
     14  C          1.4300   -3.2320  -56.3810 C.2    78  SER78       0.2314
     15  O          1.5610   -2.4090  -57.2850 O.2    78  SER78      -0.2863
     16  CB        -0.3120   -2.7440  -54.6640 C.3    78  SER78       0.2116
     17  OG        -0.1260   -1.3690  -54.9510 O.3    78  SER78      -0.2180
     18  N          1.6810   -4.6570  -59.9540 N.3    81  VAL81      -0.1245
     19  CA         0.8630   -3.8650  -60.8670 C.3    81  VAL81       0.1561
     20  C          1.4930   -2.5010  -61.1380 C.2    81  VAL81       0.2260
     21  O          1.5390   -2.0440  -62.2770 O.2    81  VAL81      -0.2867
     22  CB        -0.5650   -3.6680  -60.3200 C.3    81  VAL81       0.0252
     23  CG1       -1.3320   -2.6580  -61.1630 C.3    81  VAL81       0.0019
     24  CG2       -1.2970   -4.9940  -60.2870 C.3    81  VAL81       0.0019
     25  N         -1.7640   -7.0620  -64.6540 N.3    87  TRP87      -0.1241
     26  CA        -2.2790   -7.9480  -63.6150 C.3    87  TRP87       0.1605
     27  C         -1.8010   -9.3760  -63.8560 C.2    87  TRP87       0.2264
     28  O         -2.2360  -10.0370  -64.8000 O.2    87  TRP87      -0.2867
     29  CB        -3.8070   -7.8950  -63.5670 C.3    87  TRP87       0.0550
     30  CG        -4.3860   -8.6610  -62.4200 C.ar   87  TRP87       0.0003
     31  CD1       -4.9700   -9.8930  -62.4660 C.ar   87  TRP87       0.0946
     32  CD2       -4.4250   -8.2490  -61.0490 C.ar   87  TRP87       0.0152
     33  NE1       -5.3760  -10.2710  -61.2070 N.ar   87  TRP87      -0.2442
     34  CE2       -5.0520   -9.2790  -60.3200 C.ar   87  TRP87       0.0810
     35  CE3       -3.9940   -7.1070  -60.3680 C.ar   87  TRP87       0.0012
     36  CZ2       -5.2560   -9.2010  -58.9440 C.ar   87  TRP87       0.0191
     37  CZ3       -4.1970   -7.0320  -59.0020 C.ar   87  TRP87       0.0001
     38  CH2       -4.8230   -8.0710  -58.3050 C.ar   87  TRP87       0.0015
     39  N         -8.5810   -9.5350  -54.3150 N.3    97  ILE97      -0.1231
     40  CA        -7.5860   -8.6410  -53.7160 C.3    97  ILE97       0.1678
     41  C         -8.0660   -7.1830  -53.5360 C.2    97  ILE97       0.2434
     42  O         -7.9190   -6.6250  -52.4430 O.2    97  ILE97      -0.2733
     43  CB        -6.2660   -8.6640  -54.5300 C.3    97  ILE97       0.0265
     44  CG1       -5.6420  -10.0610  -54.4770 C.3    97  ILE97       0.0019
     45  CG2       -5.2900   -7.6190  -54.0080 C.3    97  ILE97       0.0020
     46  CD1       -4.3340  -10.1830  -55.2230 C.3    97  ILE97       0.0001
     47  N         -8.6490   -6.5610  -54.5830 N.am   98  PRO98      -0.2729
     48  CA        -9.1470   -5.1970  -54.3530 C.3    98  PRO98       0.1401
     49  C        -10.2880   -5.1460  -53.3360 C.2    98  PRO98       0.2269
     50  O        -10.4180   -4.1700  -52.5850 O.2    98  PRO98      -0.2865
     51  CB        -9.6380   -4.7660  -55.7390 C.3    98  PRO98       0.0296
     52  CG        -8.8840   -5.6240  -56.6920 C.3    98  PRO98       0.0237
     53  CD        -8.7800   -6.9440  -56.0000 C.3    98  PRO98       0.0939
     54  N         -8.8090   -5.1570  -50.0700 N.3   101  GLN101     -0.1231
     55  CA        -8.2520   -3.8210  -49.8780 C.3   101  GLN101      0.1698
     56  C         -9.3050   -2.8870  -49.2820 C.2   101  GLN101      0.2592
     57  O         -9.0950   -2.2820  -48.2190 O.2   101  GLN101     -0.2718
     58  CB        -7.7300   -3.2620  -51.2050 C.3   101  GLN101      0.0381
     59  CG        -7.0960   -1.8870  -51.1010 C.3   101  GLN101      0.0905
     60  CD        -5.6910   -1.9300  -50.5320 C.2   101  GLN101      0.2608
     61  OE1       -4.7870   -2.5190  -51.1250 O.2   101  GLN101     -0.2717
     62  NE2       -5.4990   -1.3020  -49.3780 N.am  101  GLN101     -0.0878
     63  N        -10.4440   -2.7910  -49.9660 N.am  102  ALA102     -0.1980
     64  CA       -11.5460   -1.9430  -49.5140 C.3   102  ALA102      0.1597
     65  C        -12.0020   -2.3110  -48.1020 C.2   102  ALA102      0.2287
     66  O        -12.1090   -1.4450  -47.2220 O.2   102  ALA102     -0.2864
     67  CB       -12.7100   -2.0390  -50.4830 C.3   102  ALA102      0.0319
     68  N         -9.4620   -1.2480  -45.4550 N.3   105  VAL105     -0.1245
     69  CA        -9.5630    0.1860  -45.1870 C.3   105  VAL105      0.1561
     70  C        -10.7370    0.4640  -44.2510 C.2   105  VAL105      0.2260
     71  O        -10.5860    1.1410  -43.2230 O.2   105  VAL105     -0.2867
     72  CB        -9.7340    1.0040  -46.4830 C.3   105  VAL105      0.0252
     73  CG1       -9.9180    2.4800  -46.1570 C.3   105  VAL105      0.0019
     74  CG2       -8.5370    0.8020  -47.3990 C.3   105  VAL105      0.0019
     75  N        -17.5000   -3.6290  -54.7670 N.3   154  GLN154     -0.1245
     76  CA       -16.1050   -3.5740  -55.1900 C.3   154  GLN154      0.1566
     77  C        -15.6940   -4.8960  -55.8230 C.2   154  GLN154      0.2260
     78  O        -15.1100   -4.9250  -56.9040 O.2   154  GLN154     -0.2867
     79  CB       -15.1900   -3.2520  -54.0070 C.3   154  GLN154      0.0367
     80  CG       -13.7800   -2.8560  -54.4070 C.3   154  GLN154      0.0905
     81  CD       -13.7190   -1.4540  -54.9760 C.2   154  GLN154      0.2608
     82  OE1      -13.2450   -1.2420  -56.0920 O.2   154  GLN154     -0.2717
     83  NE2      -14.2010   -0.4850  -54.2080 N.am  154  GLN154     -0.0878
     84  N        -15.2030   -5.6380  -60.2730 N.3   158  MET158     -0.1245
     85  CA       -13.8300   -5.9080  -60.6850 C.3   158  MET158      0.1570
     86  C        -13.7850   -6.8940  -61.8460 C.2   158  MET158      0.2261
     87  O        -14.3280   -7.9940  -61.7610 O.2   158  MET158     -0.2867
     88  CB       -12.9990   -6.4360  -59.5150 C.3   158  MET158      0.0387
     89  CG       -12.5060   -5.3460  -58.5820 C.3   158  MET158      0.0595
     90  SD       -11.9710   -3.8860  -59.4950 S.3   158  MET158     -0.1393
     91  CE       -11.4130   -2.8300  -58.1640 C.3   158  MET158      0.0692
     92  N         -6.5060   -5.2070  -64.4500 N.3   177  CYS177     -0.1235
     93  CA        -7.6530   -5.3820  -63.5710 C.3   177  CYS177      0.1677
     94  C         -8.2620   -4.0280  -63.2370 C.2   177  CYS177      0.2270
     95  O         -7.6020   -3.1790  -62.6360 O.2   177  CYS177     -0.2867
     96  CB        -7.2460   -6.1140  -62.2890 C.3   177  CYS177      0.0956
     97  SG        -8.6180   -6.5030  -61.1770 S.3   177  CYS177     -0.0801
     98  N        -12.3130   -1.5550  -62.8510 N.3   179  GLU179     -0.1245
     99  CA       -13.7310   -1.5550  -62.5140 C.3   179  GLU179      0.1567
    100  C        -14.6170   -1.4740  -63.7520 C.2   179  GLU179      0.2260
    101  O        -14.4720   -0.5700  -64.5740 O.2   179  GLU179     -0.2867
    102  CB       -14.0420   -0.3950  -61.5690 C.3   179  GLU179      0.0388
    103  CG       -13.1800   -0.3810  -60.3170 C.3   179  GLU179      0.1160
    104  CD       -13.4680    0.8010  -59.4150 C.2   179  GLU179      0.3649
    105  OE1      -14.4600    1.5170  -59.6680 O.co2 179  GLU179     -0.2457
    106  OE2      -12.7000    1.0130  -58.4530 O.co2 179  GLU179     -0.2457
    107  N        -18.3860    5.5690  -55.4640 N.3   191  HIS191     -0.1241
    108  CA       -17.0980    6.1220  -55.0570 C.3   191  HIS191      0.1621
    109  C        -17.2400    7.3920  -54.2210 C.2   191  HIS191      0.2264
    110  O        -16.4080    7.6580  -53.3540 O.2   191  HIS191     -0.2867
    111  CB       -16.2210    6.3830  -56.2810 C.3   191  HIS191      0.0745
    112  CG       -15.5810    5.1470  -56.8310 C.ar  191  HIS191      0.0817
    113  ND1      -14.4600    4.5770  -56.2660 N.ar  191  HIS191     -0.2268
    114  CD2      -15.9090    4.3640  -57.8860 C.ar  191  HIS191      0.1154
    115  CE1      -14.1220    3.5000  -56.9530 C.ar  191  HIS191      0.1986
    116  NE2      -14.9850    3.3490  -57.9410 N.ar  191  HIS191     -0.2212
    117  N        -18.1360    5.9310  -51.0670 N.3   194  PHE194     -0.1241
    118  CA       -16.9420    5.2970  -50.5170 C.3   194  PHE194      0.1605
    119  C        -16.0700    6.3340  -49.8270 C.2   194  PHE194      0.2264
    120  O        -15.6180    6.1270  -48.7000 O.2   194  PHE194     -0.2867
    121  CB       -16.1450    4.5820  -51.6130 C.3   194  PHE194      0.0534
    122  CG       -14.9560    3.8140  -51.0990 C.ar  194  PHE194     -0.0203
    123  CD1      -13.7120    4.4190  -50.9940 C.ar  194  PHE194     -0.0042
    124  CD2      -15.0810    2.4840  -50.7290 C.ar  194  PHE194     -0.0042
    125  CE1      -12.6200    3.7140  -50.5230 C.ar  194  PHE194     -0.0003
    126  CE2      -13.9920    1.7750  -50.2600 C.ar  194  PHE194     -0.0003
    127  CZ       -12.7610    2.3910  -50.1560 C.ar  194  PHE194     -0.0000
    128  N        -15.6660    6.0490  -45.7930 N.3   198  THR198     -0.1218
    129  CA       -14.3890    5.5570  -45.2800 C.3   198  THR198      0.1862
    130  C        -13.3730    6.6540  -44.9680 C.2   198  THR198      0.2287
    131  O        -12.2540    6.3560  -44.5540 O.2   198  THR198     -0.2866
    132  CB       -13.7310    4.5710  -46.2670 C.3   198  THR198      0.1770
    133  OG1      -13.4880    5.2290  -47.5160 O.3   198  THR198     -0.2211
    134  CG2      -14.6240    3.3620  -46.4970 C.3   198  THR198      0.0375
    135  N         -3.8650    8.3090  -46.0840 N.3   441  TYR441     -0.1241
    136  CA        -4.9600    7.9430  -46.9780 C.3   441  TYR441      0.1605
    137  C         -5.5500    9.1350  -47.7280 C.2   441  TYR441      0.2264
    138  O         -6.4960    8.9730  -48.4950 O.2   441  TYR441     -0.2867
    139  CB        -6.0680    7.2290  -46.1990 C.3   441  TYR441      0.0534
    140  CG        -5.7990    5.7610  -45.9550 C.ar  441  TYR441     -0.0201
    141  CD1       -5.0890    5.3400  -44.8370 C.ar  441  TYR441     -0.0009
    142  CD2       -6.2570    4.7950  -46.8430 C.ar  441  TYR441     -0.0009
    143  CE1       -4.8410    3.9970  -44.6110 C.ar  441  TYR441      0.0417
    144  CE2       -6.0160    3.4500  -46.6250 C.ar  441  TYR441      0.0417
    145  CZ        -5.3070    3.0560  -45.5070 C.ar  441  TYR441      0.1957
    146  OH        -5.0600    1.7210  -45.2810 O.3   441  TYR441     -0.2866
    147  N         -4.5210    9.2940  -52.0680 N.3   444  ILE444     -0.1231
    148  CA        -5.2090    8.2670  -52.8330 C.3   444  ILE444      0.1692
    149  C         -6.7130    8.5250  -52.8390 C.2   444  ILE444      0.2592
    150  O         -7.4070    8.1280  -53.7680 O.2   444  ILE444     -0.2718
    151  CB        -4.9240    6.8530  -52.2830 C.3   444  ILE444      0.0266
    152  CG1       -5.2470    5.7960  -53.3410 C.3   444  ILE444      0.0019
    153  CG2       -5.7040    6.6040  -51.0000 C.3   444  ILE444      0.0020
    154  CD1       -4.6070    6.0610  -54.6870 C.3   444  ILE444      0.0001
    155  N         -7.2050    9.2120  -51.8110 N.am  445  SER445     -0.1952
    156  CA        -8.6290    9.4960  -51.6990 C.3   445  SER445      0.1924
    157  C         -9.0360   10.6360  -52.6190 C.2   445  SER445      0.2314
    158  O        -10.0620   10.5500  -53.2950 O.2   445  SER445     -0.2863
    159  CB        -9.0070    9.8250  -50.2540 C.3   445  SER445      0.2116
    160  OG        -8.9280    8.6700  -49.4370 O.3   445  SER445     -0.2180
    161  N         -8.6730    9.2980  -56.1050 N.3   448  ASN448     -0.1240
    162  CA        -9.7580    8.3640  -56.3920 C.3   448  ASN448      0.1653
    163  C        -11.0650    9.0930  -56.6780 C.2   448  ASN448      0.2266
    164  O        -11.7710    8.7720  -57.6370 O.2   448  ASN448     -0.2867
    165  CB        -9.9530    7.3910  -55.2270 C.3   448  ASN448      0.1155
    166  CG       -10.6280    6.1000  -55.6450 C.2   448  ASN448      0.2627
    167  OD1      -11.3470    6.0540  -56.6410 O.2   448  ASN448     -0.2716
    168  ND2      -10.3960    5.0400  -54.8800 N.am  448  ASN448     -0.0877
    169  N          0.0740    8.3640  -58.6010 N.3   470  PHE470     -0.1241
    170  CA        -0.7720    7.2400  -58.2130 C.3   470  PHE470      0.1605
    171  C          0.0270    6.1550  -57.4920 C.2   470  PHE470      0.2264
    172  O         -0.3910    5.6650  -56.4380 O.2   470  PHE470     -0.2867
    173  CB        -1.4810    6.6520  -59.4350 C.3   470  PHE470      0.0534
    174  CG        -2.9200    7.0700  -59.5580 C.ar  470  PHE470     -0.0203
    175  CD1       -3.9210    6.3590  -58.9140 C.ar  470  PHE470     -0.0042
    176  CD2       -3.2720    8.1770  -60.3110 C.ar  470  PHE470     -0.0042
    177  CE1       -5.2480    6.7450  -59.0240 C.ar  470  PHE470     -0.0003
    178  CE2       -4.5950    8.5670  -60.4270 C.ar  470  PHE470     -0.0003
    179  CZ        -5.5840    7.8500  -59.7820 C.ar  470  PHE470     -0.0000
    180  N         -0.4330    4.9330  -53.6040 N.3   474  HIS474     -0.1241
    181  CA        -0.5670    3.5240  -53.2390 C.3   474  HIS474      0.1621
    182  C          0.4620    3.1370  -52.1810 C.2   474  HIS474      0.2264
    183  O          0.1100    2.6200  -51.1050 O.2   474  HIS474     -0.2867
    184  CB        -0.4100    2.6320  -54.4730 C.3   474  HIS474      0.0745
    185  CG        -1.4550    2.8600  -55.5210 C.ar  474  HIS474      0.0817
    186  ND1       -1.1620    2.8970  -56.8670 N.ar  474  HIS474     -0.2268
    187  CD2       -2.7910    3.0550  -55.4210 C.ar  474  HIS474      0.1154
    188  CE1       -2.2720    3.1090  -57.5520 C.ar  474  HIS474      0.1986
    189  NE2       -3.2750    3.2080  -56.6980 N.ar  474  HIS474     -0.2212
    190  N         -0.3990    4.4930  -48.8380 N.3   477  VAL477     -0.1231
    191  CA        -1.4630    3.6760  -48.2640 C.3   477  VAL477      0.1692
    192  C         -0.8950    2.4570  -47.5570 C.2   477  VAL477      0.2592
    193  O         -1.2490    2.1720  -46.4110 O.2   477  VAL477     -0.2718
    194  CB        -2.4650    3.2020  -49.3360 C.3   477  VAL477      0.0266
    195  CG1       -3.4170    2.1650  -48.7570 C.3   477  VAL477      0.0020
    196  CG2       -3.2320    4.3750  -49.8950 C.3   477  VAL477      0.0020
    197  N          0.0010    1.7440  -48.2310 N.am  478  TYR478     -0.1976
    198  CA         0.5940    0.5600  -47.6090 C.3   478  TYR478      0.1639
    199  C          1.5960    0.9200  -46.5110 C.2   478  TYR478      0.2290
    200  O          1.8540    0.1230  -45.6090 O.2   478  TYR478     -0.2864
    201  CB         1.2570   -0.3210  -48.6680 C.3   478  TYR478      0.0560
    202  CG         0.2670   -0.8760  -49.6580 C.ar  478  TYR478     -0.0198
    203  CD1       -0.5910   -1.9050  -49.3030 C.ar  478  TYR478     -0.0009
    204  CD2        0.1790   -0.3620  -50.9410 C.ar  478  TYR478     -0.0009
    205  CE1       -1.5070   -2.4110  -50.2020 C.ar  478  TYR478      0.0417
    206  CE2       -0.7340   -0.8560  -51.8460 C.ar  478  TYR478      0.0417
    207  CZ        -1.5740   -1.8830  -51.4730 C.ar  478  TYR478      0.1957
    208  OH        -2.4860   -2.3850  -52.3720 O.3   478  TYR478     -0.2866
@<TRIPOS>BOND
     1    28    27    2
     2    25    26    1
     3   101   100    2
     4    92    93    1
     5    27    26    1
     6   100    99    1
     7    26    29    1
     8    93    94    1
     9    93    96    1
    10    29    30    1
    11    94    95    2
    12    98    99    1
    13    99   102    1
    14    31    30   ar
    15    31    33   ar
    16    30    32   ar
    17    96    97    1
    18    21    20    2
    19    86    87    2
    20    86    85    1
    21   102   103    1
    22    33    34   ar
    23    23    22    1
    24    20    19    1
    25    32    35   ar
    26    32    34   ar
    27    19    22    1
    28    19    18    1
    29    85    84    1
    30    85    88    1
    31   178   176   ar
    32   178   179   ar
    33    35    37   ar
    34    22    24    1
    35    34    36   ar
    36   103   104    1
    37   176   174   ar
    38   179   177   ar
    39   105   104   ar
    40   174   173    1
    41   174   175   ar
    42    88    89    1
    43    90    89    1
    44    90    91    1
    45   173   170    1
    46   104   106   ar
    47   177   175   ar
    48    37    38   ar
    49    36    38   ar
    50   169   170    1
    51   170   171    1
    52   116   114   ar
    53   116   115   ar
    54   114   112   ar
    55    10     9    2
    56   164   163    2
    57   188   186   ar
    58   188   189   ar
    59   171   172    2
    60    15    14    2
    61   115   113   ar
    62    78    77    2
    63   186   185   ar
    64   112   111    1
    65   112   113   ar
    66   189   187   ar
    67    52    53    1
    68    52    51    1
    69   163   162    1
    70   167   166    2
    71     9     8    1
    72     9    12   am
    73   162   161    1
    74   162   165    1
    75    14    13    1
    76   111   108    1
    77    82    81    2
    78    53    47    1
    79     8    11    1
    80     8     7    1
    81    13    12    1
    82    13    16    1
    83    77    76    1
    84    51    48    1
    85   166   165    1
    86   166   168   am
    87   185   187   ar
    88   185   184    1
    89   107   108    1
    90    46    44    1
    91    76    75    1
    92    76    79    1
    93   108   109    1
    94    81    80    1
    95    81    83   am
    96    17    16    1
    97   154   152    1
    98    47    48    1
    99    47    41   am
   100    43    44    1
   101    43    45    1
   102    43    40    1
   103   184   181    1
   104    80    79    1
   105    48    49    1
   106    39    40    1
   107   109   110    2
   108   150   149    2
   109    40    41    1
   110   180   181    1
   111    41    42    2
   112   152   151    1
   113    49    50    2
   114   158   157    2
   115   181   182    1
   116   149   148    1
   117   149   155   am
   118   148   151    1
   119   148   147    1
   120     4     3    2
   121   157   156    1
   122   208   207    1
   123   151   153    1
   124   182   183    2
   125   206   207   ar
   126   206   204   ar
   127   155   156    1
   128   156   159    1
   129     3     2    1
   130   121   122    1
   131   121   118    1
   132   207   205   ar
   133     2     5    1
   134     2     1    1
   135    58    59    1
   136    58    55    1
   137    61    60    2
   138    59    60    1
   139   122   123   ar
   140   122   124   ar
   141   117   118    1
   142   123   125   ar
   143   204   202   ar
   144   124   126   ar
   145     5     6    1
   146    60    62   am
   147   125   127   ar
   148   118   119    1
   149    67    64    1
   150   126   127   ar
   151   159   160    1
   152   205   203   ar
   153    54    55    1
   154    63    64    1
   155    63    56   am
   156   196   194    1
   157    55    56    1
   158   119   120    2
   159   202   203   ar
   160   202   201    1
   161    64    65    1
   162   194   195    1
   163   194   191    1
   164    56    57    2
   165   190   191    1
   166   201   198    1
   167   138   137    2
   168   191   192    1
   169   197   198    1
   170   197   192   am
   171    65    66    2
   172   137   136    1
   173   198   199    1
   174   192   193    2
   175   133   132    1
   176    74    72    1
   177   136   139    1
   178   136   135    1
   179   142   144   ar
   180   142   140   ar
   181   144   145   ar
   182   199   200    2
   183   134   132    1
   184    72    73    1
   185    72    69    1
   186   132   129    1
   187   139   140    1
   188   140   141   ar
   189   128   129    1
   190   145   146    1
   191   145   143   ar
   192    68    69    1
   193   129   130    1
   194    69    70    1
   195   130   131    2
   196   141   143   ar
   197    70    71    2
