@<TRIPOS>MOLECULE
tmp/4zjfD01.pdb
 98 92 0 0 0
SMALL
GASTEIGER

@<TRIPOS>ATOM
      1  N          8.1070  -11.3350  -29.1380 N.3    17  VAL17      -0.1245
      2  CA         8.4280  -12.7400  -29.3710 C.3    17  VAL17       0.1561
      3  C          9.7170  -12.9300  -30.1650 C.2    17  VAL17       0.2260
      4  O         10.6720  -13.5340  -29.6790 O.2    17  VAL17      -0.2867
      5  CB         7.2930  -13.4560  -30.1170 C.3    17  VAL17       0.0252
      6  CG1        7.6730  -14.9030  -30.4020 C.3    17  VAL17       0.0019
      7  CG2        6.0060  -13.3760  -29.3170 C.3    17  VAL17       0.0019
      8  N          9.6050   -9.1890  -34.6740 N.3    21  THR21      -0.1203
      9  CA         8.1610   -9.4250  -34.6430 C.3    21  THR21       0.1994
     10  C          7.6830   -9.7100  -33.2260 C.2    21  THR21       0.2618
     11  O          8.4890   -9.9110  -32.3130 O.2    21  THR21      -0.2717
     12  CB         7.7240  -10.5940  -35.5570 C.3    21  THR21       0.1784
     13  OG1        8.2870  -11.8240  -35.0780 O.3    21  THR21      -0.2211
     14  CG2        8.1590  -10.3550  -36.9960 C.3    21  THR21       0.0376
     15  N          6.3660   -9.7180  -33.0470 N.am   22  GLY22      -0.1942
     16  CA         5.7700  -10.0160  -31.7580 C.3    22  GLY22       0.2014
     17  C          4.2520   -9.9960  -31.7840 C.2    22  GLY22       0.2638
     18  O          3.6470   -9.9850  -32.8560 O.2    22  GLY22      -0.2714
     19  N          3.6270  -10.0000  -30.6090 N.am   23  LEU23      -0.1977
     20  CA         2.1660  -10.0140  -30.5290 C.3    23  LEU23       0.1596
     21  C          1.6040   -8.8110  -29.7780 C.2    23  LEU23       0.2287
     22  O          2.0310   -8.5100  -28.6590 O.2    23  LEU23      -0.2864
     23  CB         1.6710  -11.3030  -29.8620 C.3    23  LEU23       0.0297
     24  CG         2.0520  -12.6500  -30.4820 C.3    23  LEU23       0.0022
     25  CD1        1.5150  -13.7930  -29.6320 C.3    23  LEU23       0.0001
     26  CD2        1.5460  -12.7500  -31.9090 C.3    23  LEU23       0.0001
     27  N          1.0140  -24.7110  -42.7190 N.3    44  HIS44      -0.1241
     28  CA         1.7760  -23.5170  -42.3860 C.3    44  HIS44       0.1621
     29  C          0.9670  -22.5850  -41.4920 C.2    44  HIS44       0.2264
     30  O          1.4630  -22.1020  -40.4760 O.2    44  HIS44      -0.2867
     31  CB         2.2080  -22.7870  -43.6590 C.3    44  HIS44       0.0745
     32  CG         3.1120  -21.6190  -43.4100 C.ar   44  HIS44       0.0817
     33  ND1        4.3300  -21.7460  -42.7760 N.ar   44  HIS44      -0.2268
     34  CD2        2.9800  -20.3050  -43.7110 C.ar   44  HIS44       0.1154
     35  CE1        4.9070  -20.5600  -42.6940 C.ar   44  HIS44       0.1986
     36  NE2        4.1090  -19.6690  -43.2540 N.ar   44  HIS44      -0.2212
     37  N          1.6390  -21.3380  -37.6050 N.3    48  LEU48      -0.1245
     38  CA         1.6510  -19.9340  -37.2240 C.3    48  LEU48       0.1561
     39  C          0.6580  -19.7130  -36.0840 C.2    48  LEU48       0.2260
     40  O          0.9140  -18.9380  -35.1610 O.2    48  LEU48      -0.2867
     41  CB         1.3090  -19.0430  -38.4190 C.3    48  LEU48       0.0270
     42  CG         2.3350  -18.9320  -39.5520 C.3    48  LEU48       0.0019
     43  CD1        1.7320  -18.2440  -40.7620 C.3    48  LEU48       0.0001
     44  CD2        3.5700  -18.1850  -39.0850 C.3    48  LEU48       0.0001
     45  N          2.2240  -21.2340  -32.9850 N.3    51  HIS51      -0.1226
     46  CA         3.3550  -20.4190  -32.5560 C.3    51  HIS51       0.1752
     47  C          2.8960  -19.1960  -31.7660 C.2    51  HIS51       0.2595
     48  O          3.5410  -18.7880  -30.7970 O.2    51  HIS51      -0.2718
     49  CB         4.1800  -19.9820  -33.7620 C.3    51  HIS51       0.0759
     50  CG         5.4320  -19.2450  -33.4040 C.ar   51  HIS51       0.0818
     51  ND1        6.3280  -19.7110  -32.4650 N.ar   51  HIS51      -0.2268
     52  CD2        5.9500  -18.0860  -33.8760 C.ar   51  HIS51       0.1154
     53  CE1        7.3390  -18.8660  -32.3680 C.ar   51  HIS51       0.1986
     54  NE2        7.1350  -17.8720  -33.2140 N.ar   51  HIS51      -0.2212
     55  N          1.7800  -18.6110  -32.1920 N.am   52  ALA52      -0.1980
     56  CA         1.2390  -17.4240  -31.5440 C.3    52  ALA52       0.1597
     57  C          0.7330  -17.7410  -30.1400 C.2    52  ALA52       0.2287
     58  O          1.0590  -17.0410  -29.1790 O.2    52  ALA52      -0.2864
     59  CB         0.1290  -16.8160  -32.3890 C.3    52  ALA52       0.0319
     60  N          3.5020  -18.7130  -27.7260 N.3    55  SER55      -0.1217
     61  CA         4.2370  -17.5190  -27.3160 C.3    55  SER55       0.1889
     62  C          3.5580  -16.8560  -26.1240 C.2    55  SER55       0.2288
     63  O          4.2180  -16.4200  -25.1780 O.2    55  SER55      -0.2866
     64  CB         4.3450  -16.5150  -28.4670 C.3    55  SER55       0.2089
     65  OG         5.1930  -16.9940  -29.4920 O.3    55  SER55      -0.2183
     66  N         -0.8710  -12.3600  -45.3410 N.3    79  GLY79      -0.1210
     67  CA         0.4710  -12.6000  -45.8360 C.3    79  GLY79       0.1956
     68  C          1.4220  -13.1130  -44.7710 C.2    79  GLY79       0.2612
     69  O          2.4880  -12.5340  -44.5490 O.2    79  GLY79      -0.2717
     70  N          1.0240  -14.1920  -44.1030 N.am   80  GLY80      -0.1942
     71  CA         1.8620  -14.8460  -43.1150 C.3    80  GLY80       0.2014
     72  C          1.6980  -14.3140  -41.7030 C.2    80  GLY80       0.2639
     73  O          2.2010  -14.9050  -40.7460 O.2    80  GLY80      -0.2714
     74  N          0.9920  -13.1980  -41.5640 N.am   81  LYS81      -0.1963
     75  CA         0.7410  -12.6220  -40.2480 C.3    81  LYS81       0.1728
     76  C         -0.7010  -12.8200  -39.7960 C.2    81  LYS81       0.2616
     77  O         -1.6420  -12.2990  -40.3980 O.2    81  LYS81      -0.2715
     78  CB         1.1300  -11.1470  -40.2420 C.3    81  LYS81       0.0311
     79  CG         2.6250  -10.9710  -40.4520 C.3    81  LYS81       0.0038
     80  CD         3.0750   -9.5300  -40.4310 C.3    81  LYS81       0.0206
     81  CE         4.5790   -9.4680  -40.6340 C.3    81  LYS81       0.1093
     82  NZ         4.9910  -10.0400  -41.9540 N.3    81  LYS81      -0.1314
     83  N         -0.8480  -13.5830  -38.7170 N.am   82  ILE82      -0.1977
     84  CA        -2.1440  -14.0230  -38.2250 C.3    82  ILE82       0.1596
     85  C         -2.8290  -12.9840  -37.3350 C.2    82  ILE82       0.2287
     86  O         -2.1710  -12.1990  -36.6480 O.2    82  ILE82      -0.2864
     87  CB        -1.9950  -15.3560  -37.4480 C.3    82  ILE82       0.0276
     88  CG1       -3.3550  -16.0140  -37.1980 C.3    82  ILE82       0.0022
     89  CG2       -1.2200  -15.1490  -36.1550 C.3    82  ILE82       0.0022
     90  CD1       -3.2660  -17.3090  -36.4250 C.3    82  ILE82       0.0001
     91  N         -0.1340  -10.5330  -34.9810 N.3   144  ASN144     -0.1240
     92  CA         1.2840  -10.4970  -35.3220 C.3   144  ASN144      0.1653
     93  C          1.6090   -9.1270  -35.8990 C.2   144  ASN144      0.2266
     94  O          1.0940   -8.7400  -36.9480 O.2   144  ASN144     -0.2867
     95  CB         1.6410  -11.6070  -36.3170 C.3   144  ASN144      0.1155
     96  CG         3.1330  -11.6760  -36.6360 C.2   144  ASN144      0.2627
     97  OD1        3.8820  -10.7180  -36.4490 O.2   144  ASN144     -0.2716
     98  ND2        3.5580  -12.8290  -37.1310 N.am  144  ASN144     -0.0877
@<TRIPOS>BOND
     1    67    66    1
     2    67    68    1
     3    68    69    2
     4    68    70   am
     5    70    71    1
     6    34    32   ar
     7    34    36   ar
     8    31    32    1
     9    31    28    1
    10    32    33   ar
    11    36    35   ar
    12    71    72    1
    13    33    35   ar
    14    27    28    1
    15    28    29    1
    16    82    81    1
    17    72    74   am
    18    72    73    2
    19    74    75    1
    20    29    30    2
    21    43    42    1
    22    81    80    1
    23    79    80    1
    24    79    78    1
    25    77    76    2
    26    75    78    1
    27    75    76    1
    28    76    83   am
    29    42    44    1
    30    42    41    1
    31    83    84    1
    32    41    38    1
    33    84    87    1
    34    84    85    1
    35    37    38    1
    36    87    88    1
    37    87    89    1
    38    85    86    2
    39    38    39    1
    40    88    90    1
    41    98    96   am
    42    14    12    1
    43    94    93    2
    44    96    97    2
    45    96    95    1
    46    95    92    1
    47    39    40    2
    48    93    92    1
    49    12    13    1
    50    12     9    1
    51    92    91    1
    52     8     9    1
    53     9    10    1
    54    52    50   ar
    55    52    54   ar
    56    49    50    1
    57    49    46    1
    58    50    51   ar
    59    10    15   am
    60    10    11    2
    61    54    53   ar
    62    15    16    1
    63    45    46    1
    64    18    17    2
    65    46    47    1
    66    51    53   ar
    67    59    56    1
    68    55    47   am
    69    55    56    1
    70    26    24    1
    71    17    16    1
    72    17    19   am
    73    47    48    2
    74    56    57    1
    75    19    20    1
    76    20    23    1
    77    20    21    1
    78    24    23    1
    79    24    25    1
    80     6     5    1
    81     3     4    2
    82     3     2    1
    83    57    58    2
    84     5     2    1
    85     5     7    1
    86    21    22    2
    87    65    64    1
    88     2     1    1
    89    64    61    1
    90    60    61    1
    91    61    62    1
    92    62    63    2
