@<TRIPOS>MOLECULE
tmp/4zjiB00.pdb
 173 163 0 0 0
SMALL
GASTEIGER

@<TRIPOS>ATOM
      1  N        -40.0020   40.5750    8.9210 N.3    46  LYS46      -0.1245
      2  CA       -39.8870   39.7190   10.0850 C.3    46  LYS46       0.1561
      3  C        -41.2540   39.6060   10.7400 C.2    46  LYS46       0.2260
      4  O        -41.9110   40.6260   10.9630 O.2    46  LYS46      -0.2867
      5  CB       -38.9030   40.3030   11.0910 C.3    46  LYS46       0.0271
      6  CG       -37.4580   39.9860   10.7760 C.3    46  LYS46       0.0035
      7  CD       -36.5860   40.6490   11.8060 C.3    46  LYS46       0.0206
      8  CE       -35.2110   40.0630   11.8230 C.3    46  LYS46       0.1093
      9  NZ       -34.4190   40.6510   12.9370 N.3    46  LYS46      -0.1314
     10  N        -43.0070   38.2000   14.1820 N.3    48  MET48      -0.1245
     11  CA       -42.6710   37.7440   15.5330 C.3    48  MET48       0.1570
     12  C        -43.8990   37.7000   16.4290 C.2    48  MET48       0.2261
     13  O        -44.6300   38.6840   16.5070 O.2    48  MET48      -0.2867
     14  CB       -41.5920   38.6460   16.1550 C.3    48  MET48       0.0387
     15  CG       -40.2950   38.6780   15.3650 C.3    48  MET48       0.0595
     16  SD       -39.3870   40.2420   15.4670 S.3    48  MET48      -0.1393
     17  CE       -40.4150   41.2910   14.4670 C.3    48  MET48       0.0692
     18  N        -37.5220   49.1740   21.1600 N.3    57  GLU57      -0.1245
     19  CA       -36.8810   48.5700   19.9910 C.3    57  GLU57       0.1567
     20  C        -37.4200   49.1720   18.6700 C.2    57  GLU57       0.2260
     21  O        -36.6210   49.5930   17.8340 O.2    57  GLU57      -0.2867
     22  CB       -36.9840   47.0250   20.0390 C.3    57  GLU57       0.0388
     23  CG       -36.1390   46.3420   21.1230 C.3    57  GLU57       0.1160
     24  CD       -34.6200   46.1960   21.0390 C.2    57  GLU57       0.3649
     25  OE1      -33.9710   46.8060   20.1590 O.co2  57  GLU57      -0.2457
     26  OE2      -34.0680   45.4740   21.8980 O.co2  57  GLU57      -0.2457
     27  N        -36.4170   53.0320   18.3990 N.3    60  VAL60      -0.1231
     28  CA       -34.9910   53.1790   18.0810 C.3    60  VAL60       0.1692
     29  C        -34.7470   52.9240   16.5660 C.2    60  VAL60       0.2591
     30  O        -34.0360   53.7170   15.9330 O.2    60  VAL60      -0.2718
     31  CB       -34.1000   52.3410   19.0370 C.3    60  VAL60       0.0266
     32  CG1      -32.6590   52.2590   18.5570 C.3    60  VAL60       0.0020
     33  CG2      -34.1370   52.9270   20.4430 C.3    60  VAL60       0.0020
     34  N        -35.4280   51.9020   15.9830 N.am   61  MET61      -0.1979
     35  CA       -35.3500   51.5530   14.5450 C.3    61  MET61       0.1605
     36  C        -35.9670   52.6530   13.6680 C.2    61  MET61       0.2287
     37  O        -35.4410   52.9650   12.5940 O.2    61  MET61      -0.2864
     38  CB       -36.1670   50.2820   14.2510 C.3    61  MET61       0.0413
     39  CG       -35.6140   49.0410   14.7630 C.3    61  MET61       0.0598
     40  SD       -36.5010   47.7020   13.9720 S.3    61  MET61      -0.1393
     41  CE       -37.9260   47.5180   15.0110 C.3    61  MET61       0.0692
     42  N        -33.8110   56.1160   13.8620 N.3    64  ASN64      -0.1240
     43  CA       -32.4100   56.0770   13.4600 C.3    64  ASN64       0.1653
     44  C        -32.1760   55.2390   12.2170 C.2    64  ASN64       0.2266
     45  O        -32.5070   54.0490   12.1730 O.2    64  ASN64      -0.2867
     46  CB       -31.5450   55.6010   14.6130 C.3    64  ASN64       0.1155
     47  CG       -31.6690   56.4670   15.8410 C.2    64  ASN64       0.2627
     48  OD1      -32.3790   56.1380   16.7960 O.2    64  ASN64      -0.2716
     49  ND2      -30.8950   57.5360   15.8940 N.am   64  ASN64      -0.0877
     50  N        -27.1760   49.3730    6.9570 N.3    69  ILE69      -0.1231
     51  CA       -28.0570   48.3910    7.5680 C.3    69  ILE69       0.1692
     52  C        -29.3060   48.3360    6.7050 C.2    69  ILE69       0.2592
     53  O        -29.5880   49.2880    5.9620 O.2    69  ILE69      -0.2718
     54  CB       -28.4170   48.7170    9.0620 C.3    69  ILE69       0.0266
     55  CG1      -29.1300   50.0940    9.2080 C.3    69  ILE69       0.0019
     56  CG2      -27.1870   48.5960    9.9970 C.3    69  ILE69       0.0020
     57  CD1      -30.0790   50.2150   10.3950 C.3    69  ILE69       0.0001
     58  N        -30.0780   47.2480    6.8310 N.am   70  VAL70      -0.1966
     59  CA       -31.4080   47.1820    6.2220 C.3    70  VAL70       0.1727
     60  C        -32.2720   48.0300    7.1780 C.2    70  VAL70       0.2616
     61  O        -32.3650   47.7210    8.3600 O.2    70  VAL70      -0.2715
     62  CB       -31.9390   45.7430    5.9850 C.3    70  VAL70       0.0290
     63  CG1      -31.1890   45.0760    4.8350 C.3    70  VAL70       0.0023
     64  CG2      -31.9070   44.8770    7.2580 C.3    70  VAL70       0.0023
     65  N        -32.7260   49.1990    6.7140 N.am   71  ASN71      -0.1958
     66  CA       -33.4590   50.1200    7.5750 C.3    71  ASN71       0.1819
     67  C        -34.9090   49.7350    7.7640 C.2    71  ASN71       0.2621
     68  O        -35.5090   49.1310    6.8770 O.2    71  ASN71      -0.2715
     69  CB       -33.3630   51.5720    7.0450 C.3    71  ASN71       0.1195
     70  CG       -32.0160   52.1820    7.2600 C.2    71  ASN71       0.2630
     71  OD1      -31.6000   52.4420    8.3880 O.2    71  ASN71      -0.2716
     72  ND2      -31.2830   52.3790    6.1920 N.am   71  ASN71      -0.0877
     73  N        -35.4720   50.0990    8.9380 N.am   72  TYR72      -0.1974
     74  CA       -36.8860   49.9380    9.2670 C.3    72  TYR72       0.1639
     75  C        -37.6780   50.7300    8.2350 C.2    72  TYR72       0.2290
     76  O        -37.3270   51.8830    7.9480 O.2    72  TYR72      -0.2864
     77  CB       -37.1410   50.5320   10.6720 C.3    72  TYR72       0.0560
     78  CG       -38.5950   50.6490   11.0810 C.ar   72  TYR72      -0.0198
     79  CD1      -39.2040   49.6620   11.8530 C.ar   72  TYR72      -0.0009
     80  CD2      -39.3380   51.7840   10.7670 C.ar   72  TYR72      -0.0009
     81  CE1      -40.5190   49.7930   12.2900 C.ar   72  TYR72       0.0417
     82  CE2      -40.6640   51.9180   11.1770 C.ar   72  TYR72       0.0417
     83  CZ       -41.2420   50.9250   11.9510 C.ar   72  TYR72       0.1957
     84  OH       -42.5470   51.0420   12.3400 O.3    72  TYR72      -0.2866
     85  N        -38.5860   45.8620    6.4370 N.3    86  MET86      -0.1245
     86  CA       -37.3000   46.5080    6.2870 C.3    86  MET86       0.1570
     87  C        -36.7700   46.4030    4.8720 C.2    86  MET86       0.2261
     88  O        -37.2990   45.6360    4.0630 O.2    86  MET86      -0.2867
     89  CB       -36.2860   45.9510    7.3260 C.3    86  MET86       0.0387
     90  CG       -36.0320   44.4310    7.2190 C.3    86  MET86       0.0595
     91  SD       -35.3310   43.6840    8.7290 S.3    86  MET86      -0.1393
     92  CE       -36.6440   43.9080    9.8220 C.3    86  MET86       0.0692
     93  N        -22.5380   52.6980   13.9180 N.3   121  PHE121     -0.1227
     94  CA       -23.9020   53.2080   14.0000 C.3   121  PHE121      0.1736
     95  C        -24.7040   52.4760   15.0910 C.2   121  PHE121      0.2595
     96  O        -25.2580   53.1240   15.9740 O.2   121  PHE121     -0.2718
     97  CB       -24.6050   53.0810   12.6390 C.3   121  PHE121      0.0547
     98  CG       -26.0960   53.3040   12.7300 C.ar  121  PHE121     -0.0202
     99  CD1      -26.6160   54.5900   12.8490 C.ar  121  PHE121     -0.0042
    100  CD2      -26.9830   52.2290   12.6930 C.ar  121  PHE121     -0.0042
    101  CE1      -27.9950   54.7980   12.9320 C.ar  121  PHE121     -0.0003
    102  CE2      -28.3650   52.4390   12.7910 C.ar  121  PHE121     -0.0003
    103  CZ       -28.8600   53.7210   12.9040 C.ar  121  PHE121     -0.0000
    104  N        -24.7640   51.1300   15.0300 N.am  122  LEU122     -0.1980
    105  CA       -25.5060   50.3570   16.0200 C.3   122  LEU122      0.1596
    106  C        -24.9810   50.5750   17.4280 C.2   122  LEU122      0.2287
    107  O        -25.7810   50.8300   18.3360 O.2   122  LEU122     -0.2864
    108  CB       -25.5200   48.8440   15.6710 C.3   122  LEU122      0.0297
    109  CG       -26.3040   48.4130   14.4110 C.3   122  LEU122      0.0022
    110  CD1      -26.1330   46.8960   14.1630 C.3   122  LEU122      0.0001
    111  CD2      -27.7940   48.7650   14.5280 C.3   122  LEU122      0.0001
    112  N        -25.9130   53.6360   19.2240 N.3   125  ASN125     -0.1240
    113  CA       -27.3070   53.5900   19.6480 C.3   125  ASN125      0.1653
    114  C        -27.5400   52.5600   20.7510 C.2   125  ASN125      0.2266
    115  O        -28.6930   52.2150   21.0320 O.2   125  ASN125     -0.2867
    116  CB       -28.2150   53.3370   18.4560 C.3   125  ASN125      0.1155
    117  CG       -28.4430   54.5910   17.6630 C.2   125  ASN125      0.2627
    118  OD1      -29.1010   55.5330   18.1160 O.2   125  ASN125     -0.2716
    119  ND2      -27.8200   54.6770   16.5110 N.am  125  ASN125     -0.0877
    120  N        -26.8250   49.4330   20.7500 N.3   127  VAL127     -0.1245
    121  CA       -27.2900   48.1650   20.1930 C.3   127  VAL127      0.1561
    122  C        -26.0730   47.2890   19.8940 C.2   127  VAL127      0.2260
    123  O        -25.1350   47.7570   19.2560 O.2   127  VAL127     -0.2867
    124  CB       -28.1700   48.3740   18.9240 C.3   127  VAL127      0.0252
    125  CG1      -28.4370   47.0450   18.2100 C.3   127  VAL127      0.0019
    126  CG2      -29.4840   49.0750   19.2660 C.3   127  VAL127      0.0019
    127  N        -25.0670   43.7040   18.0310 N.3   129  HIS129     -0.1241
    128  CA       -25.6330   42.8090   17.0230 C.3   129  HIS129      0.1621
    129  C        -25.6560   41.3440   17.5070 C.2   129  HIS129      0.2264
    130  O        -26.7080   40.7090   17.4850 O.2   129  HIS129     -0.2867
    131  CB       -24.8860   42.9610   15.6820 C.3   129  HIS129      0.0745
    132  CG       -25.5710   42.2850   14.5470 C.ar  129  HIS129      0.0817
    133  ND1      -25.5220   40.9070   14.3890 N.ar  129  HIS129     -0.2268
    134  CD2      -26.2970   42.8200   13.5460 C.ar  129  HIS129      0.1154
    135  CE1      -26.2190   40.6530   13.2990 C.ar  129  HIS129      0.1986
    136  NE2      -26.6840   41.7810   12.7490 N.ar  129  HIS129     -0.2212
    137  N        -26.0100   45.3460    6.4560 N.3   147  LEU147     -0.1231
    138  CA       -26.0370   44.3740    7.5380 C.3   147  LEU147      0.1693
    139  C        -27.4920   44.0570    7.8930 C.2   147  LEU147      0.2593
    140  O        -28.3200   44.9680    7.9400 O.2   147  LEU147     -0.2718
    141  CB       -25.2920   44.9860    8.7450 C.3   147  LEU147      0.0284
    142  CG       -25.2540   44.2150   10.0630 C.3   147  LEU147      0.0019
    143  CD1      -24.6240   42.8240    9.8830 C.3   147  LEU147      0.0001
    144  CD2      -24.5240   45.0300   11.1420 C.3   147  LEU147      0.0001
    145  N        -27.7910   42.7580    8.1420 N.am  148  THR148     -0.1939
    146  CA       -29.0950   42.2380    8.5810 C.3   148  THR148      0.2028
    147  C        -28.9290   41.4710    9.8990 C.2   148  THR148      0.2642
    148  O        -27.8070   41.1850   10.3130 O.2   148  THR148     -0.2714
    149  CB       -29.7050   41.2810    7.5320 C.3   148  THR148      0.1808
    150  OG1      -28.9040   40.1010    7.3850 O.3   148  THR148     -0.2208
    151  CG2      -29.8990   41.9260    6.2180 C.3   148  THR148      0.0379
    152  N        -30.0450   41.1280   10.5450 N.am  149  ASP149     -0.1971
    153  CA       -30.0510   40.3350   11.7740 C.3   149  ASP149      0.1709
    154  C        -31.1470   39.2850   11.6100 C.2   149  ASP149      0.2293
    155  O        -32.1390   39.3020   12.3340 O.2   149  ASP149     -0.2864
    156  CB       -30.2810   41.2420   13.0050 C.3   149  ASP149      0.1436
    157  CG       -30.3610   40.4630   14.3020 C.2   149  ASP149      0.3671
    158  OD1      -31.1570   40.8460   15.1670 O.co2 149  ASP149     -0.2456
    159  OD2      -29.7320   39.3820   14.3850 O.co2 149  ASP149     -0.2456
    160  N        -29.8240   40.7560   17.6460 N.3   154  ALA154     -0.1231
    161  CA       -29.5230   42.1260   18.0620 C.3   154  ALA154      0.1694
    162  C        -30.4720   42.6650   19.0780 C.2   154  ALA154      0.2591
    163  O        -31.6610   42.3370   19.0620 O.2   154  ALA154     -0.2718
    164  CB       -29.4340   43.0560   16.8620 C.3   154  ALA154      0.0304
    165  N        -29.9510   43.5030   19.9650 N.am  155  GLN155     -0.1979
    166  CA       -30.7770   44.1300   20.9780 C.3   155  GLN155      0.1601
    167  C        -30.1260   45.3540   21.5960 C.2   155  GLN155      0.2287
    168  O        -28.8930   45.4750   21.6190 O.2   155  GLN155     -0.2864
    169  CB       -31.1840   43.1160   22.0700 C.3   155  GLN155      0.0394
    170  CG       -30.0570   42.4810   22.8620 C.3   155  GLN155      0.0908
    171  CD       -30.5830   41.6910   24.0550 C.2   155  GLN155      0.2608
    172  OE1      -31.7870   41.3540   24.1680 O.2   155  GLN155     -0.2717
    173  NE2      -29.6750   41.3450   24.9590 N.am  155  GLN155     -0.0878
@<TRIPOS>BOND
     1    88    87    2
     2    63    62    1
     3    87    86    1
     4    53    52    2
     5    62    59    1
     6    62    64    1
     7    72    70   am
     8   151   149    1
     9    59    58    1
    10    59    60    1
    11    86    85    1
    12    86    89    1
    13   137   138    1
    14    52    58   am
    15    52    51    1
    16    65    60   am
    17    65    66    1
    18    68    67    2
    19    50    51    1
    20    69    70    1
    21    69    66    1
    22    60    61    2
    23    90    89    1
    24    90    91    1
    25    70    71    2
    26   150   149    1
    27   149   146    1
    28   138   139    1
    29   138   141    1
    30    51    54    1
    31    66    67    1
    32    67    73   am
    33   139   140    2
    34   139   145   am
    35    76    75    2
    36   145   146    1
    37    75    74    1
    38   146   147    1
    39    91    92    1
    40   141   142    1
    41     1     2    1
    42    73    74    1
    43    54    55    1
    44    54    56    1
    45    55    57    1
    46    74    77    1
    47   143   142    1
    48   147   148    2
    49   147   152   am
    50   142   144    1
    51     2     3    1
    52     2     5    1
    53   152   153    1
    54    77    78    1
    55     3     4    2
    56    80    78   ar
    57    80    82   ar
    58     6     5    1
    59     6     7    1
    60    78    79   ar
    61    82    83   ar
    62   154   153    1
    63   154   155    2
    64   153   156    1
    65     7     8    1
    66     8     9    1
    67    79    81   ar
    68    83    81   ar
    69    83    84    1
    70    45    44    2
    71    44    43    1
    72    37    36    2
    73    97    98    1
    74    97    94    1
    75   100    98   ar
    76   100   102   ar
    77    98    99   ar
    78   136   135   ar
    79   136   134   ar
    80   102   103   ar
    81    99   101   ar
    82   103   101   ar
    83   156   157    1
    84   135   133   ar
    85    43    42    1
    86    43    46    1
    87   134   132   ar
    88    36    35    1
    89    93    94    1
    90    40    39    1
    91    40    41    1
    92    94    95    1
    93   110   109    1
    94    10    11    1
    95    38    35    1
    96    38    39    1
    97   157   159   ar
    98   157   158   ar
    99   133   132   ar
   100   109   111    1
   101   109   108    1
   102    17    16    1
   103    35    34    1
   104   132   131    1
   105    46    47    1
   106   104    95   am
   107   104   105    1
   108    95    96    2
   109    15    16    1
   110    15    14    1
   111    11    14    1
   112    11    12    1
   113   108   105    1
   114   131   128    1
   115    47    49   am
   116    47    48    2
   117    30    29    2
   118    34    29   am
   119   105   106    1
   120    12    13    2
   121   119   117   am
   122    29    28    1
   123   164   161    1
   124   128   129    1
   125   128   127    1
   126   106   107    2
   127   130   129    2
   128   160   161    1
   129   117   118    2
   130   117   116    1
   131    21    20    2
   132   161   162    1
   133    28    27    1
   134    28    31    1
   135   125   124    1
   136   116   113    1
   137    32    31    1
   138    20    19    1
   139   124   126    1
   140   124   121    1
   141    31    33    1
   142   163   162    2
   143   162   165   am
   144   112   113    1
   145   123   122    2
   146   113   114    1
   147   122   121    1
   148   165   166    1
   149    19    22    1
   150    19    18    1
   151    22    23    1
   152    25    24   ar
   153   121   120    1
   154   114   115    2
   155   166   167    1
   156   166   169    1
   157    24    23    1
   158    24    26   ar
   159   167   168    2
   160   169   170    1
   161   170   171    1
   162   171   172    2
   163   171   173   am
