@<TRIPOS>MOLECULE
tmp/4zjjB00.pdb
 215 201 0 0 0
SMALL
GASTEIGER

@<TRIPOS>ATOM
      1  N        -39.4480   40.5110    9.0650 N.3    49  LYS49      -0.1245
      2  CA       -39.3050   39.6830   10.2440 C.3    49  LYS49       0.1561
      3  C        -40.6800   39.5910   10.9080 C.2    49  LYS49       0.2260
      4  O        -41.3540   40.6160   11.0700 O.2    49  LYS49      -0.2867
      5  CB       -38.3250   40.3220   11.2160 C.3    49  LYS49       0.0271
      6  CG       -36.8730   40.0850   10.9090 C.3    49  LYS49       0.0035
      7  CD       -36.0710   40.7300   12.0040 C.3    49  LYS49       0.0206
      8  CE       -34.6920   40.1580   12.1180 C.3    49  LYS49       0.1093
      9  NZ       -33.9770   40.7690   13.2560 N.3    49  LYS49      -0.1314
     10  N        -42.5260   38.1960   14.3720 N.3    51  MET51      -0.1245
     11  CA       -42.2650   37.7570   15.7440 C.3    51  MET51       0.1570
     12  C        -43.5500   37.6420   16.5470 C.2    51  MET51       0.2261
     13  O        -44.3430   38.5830   16.5480 O.2    51  MET51      -0.2867
     14  CB       -41.2920   38.7190   16.4260 C.3    51  MET51       0.0387
     15  CG       -39.9420   38.7720   15.7570 C.3    51  MET51       0.0595
     16  SD       -39.1810   40.4040   15.8810 S.3    51  MET51      -0.1393
     17  CE       -39.9520   41.2510   14.5430 C.3    51  MET51       0.0692
     18  N        -40.0910   46.9950   23.4100 N.3    57  ILE57      -0.1245
     19  CA       -40.4640   46.9080   21.9940 C.3    57  ILE57       0.1561
     20  C        -40.6800   48.3160   21.4320 C.2    57  ILE57       0.2260
     21  O        -40.0710   48.6690   20.4230 O.2    57  ILE57      -0.2867
     22  CB       -41.7080   45.9890   21.7910 C.3    57  ILE57       0.0252
     23  CG1      -41.3730   44.5220   22.1730 C.3    57  ILE57       0.0019
     24  CG2      -42.2530   46.0790   20.3540 C.3    57  ILE57       0.0019
     25  CD1      -42.6080   43.5500   22.2950 C.3    57  ILE57       0.0001
     26  N        -37.4340   50.2210   21.1130 N.3    60  GLU60      -0.1231
     27  CA       -36.6450   49.5610   20.0860 C.3    60  GLU60       0.1699
     28  C        -37.1090   49.9680   18.6920 C.2    60  GLU60       0.2592
     29  O        -36.2750   50.3160   17.8670 O.2    60  GLU60      -0.2718
     30  CB       -36.6780   48.0460   20.2760 C.3    60  GLU60       0.0402
     31  CG       -35.8770   47.5750   21.4780 C.3    60  GLU60       0.1161
     32  CD       -35.9980   46.1050   21.8360 C.2    60  GLU60       0.3649
     33  OE1      -36.5240   45.3240   21.0110 O.co2  60  GLU60      -0.2457
     34  OE2      -35.5230   45.7230   22.9290 O.co2  60  GLU60      -0.2457
     35  N        -38.4350   49.9920   18.4460 N.am   61  ILE61      -0.1980
     36  CA       -39.0080   50.4090   17.1610 C.3    61  ILE61       0.1595
     37  C        -38.7090   51.8880   16.8920 C.2    61  ILE61       0.2287
     38  O        -38.2770   52.2420   15.7860 O.2    61  ILE61      -0.2864
     39  CB       -40.5250   50.0820   17.0740 C.3    61  ILE61       0.0276
     40  CG1      -40.6820   48.5180   17.0520 C.3    61  ILE61       0.0022
     41  CG2      -41.1220   50.6850   15.8130 C.3    61  ILE61       0.0022
     42  CD1      -42.0260   48.0340   16.6540 C.3    61  ILE61       0.0001
     43  N        -36.2330   53.7480   18.1420 N.3    63  VAL63      -0.1231
     44  CA       -34.7920   53.8610   17.8930 C.3    63  VAL63       0.1692
     45  C        -34.4440   53.5190   16.4250 C.2    63  VAL63       0.2591
     46  O        -33.7610   54.3080   15.7810 O.2    63  VAL63      -0.2718
     47  CB       -33.9320   53.0560   18.9040 C.3    63  VAL63       0.0266
     48  CG1      -32.4770   52.9520   18.4120 C.3    63  VAL63       0.0020
     49  CG2      -33.9930   53.7030   20.2810 C.3    63  VAL63       0.0020
     50  N        -34.9620   52.3990   15.8790 N.am   64  MET64      -0.1979
     51  CA       -34.6630   52.0420   14.4860 C.3    64  MET64       0.1605
     52  C        -35.3730   52.9190   13.4700 C.2    64  MET64       0.2287
     53  O        -34.8440   53.1050   12.3800 O.2    64  MET64      -0.2864
     54  CB       -34.8750   50.5540   14.1750 C.3    64  MET64       0.0413
     55  CG       -36.2570   50.0110   14.4270 C.3    64  MET64       0.0598
     56  SD       -36.3010   48.2260   14.0640 S.3    64  MET64      -0.1393
     57  CE       -35.1200   47.6040   15.2040 C.3    64  MET64       0.0692
     58  N        -33.2290   56.2730   13.6490 N.3    67  ASN67      -0.1240
     59  CA       -31.8020   56.1260   13.3550 C.3    67  ASN67       0.1653
     60  C        -31.5570   55.2340   12.1740 C.2    67  ASN67       0.2266
     61  O        -31.8910   54.0430   12.1880 O.2    67  ASN67      -0.2867
     62  CB       -31.0300   55.6730   14.5870 C.3    67  ASN67       0.1155
     63  CG       -31.1840   56.6180   15.7380 C.2    67  ASN67       0.2627
     64  OD1      -32.0440   56.4440   16.6010 O.2    67  ASN67      -0.2716
     65  ND2      -30.4160   57.6810   15.7340 N.am   67  ASN67      -0.0877
     66  N        -26.6590   49.2750    7.0010 N.3    72  ILE72      -0.1231
     67  CA       -27.5880   48.3290    7.6200 C.3    72  ILE72       0.1692
     68  C        -28.8290   48.2750    6.7390 C.2    72  ILE72       0.2591
     69  O        -29.0950   49.2270    5.9970 O.2    72  ILE72      -0.2718
     70  CB       -27.9660   48.6760    9.1090 C.3    72  ILE72       0.0266
     71  CG1      -28.7190   50.0290    9.2140 C.3    72  ILE72       0.0019
     72  CG2      -26.7400   48.6120   10.0660 C.3    72  ILE72       0.0020
     73  CD1      -29.6330   50.1870   10.3840 C.3    72  ILE72       0.0001
     74  N        -29.6110   47.1900    6.8490 N.am   73  VAL73      -0.1980
     75  CA       -30.9340   47.1030    6.2140 C.3    73  VAL73       0.1595
     76  C        -31.7970   47.9220    7.1750 C.2    73  VAL73       0.2287
     77  O        -31.9510   47.5670    8.3590 O.2    73  VAL73      -0.2864
     78  CB       -31.4620   45.6600    5.9970 C.3    73  VAL73       0.0276
     79  CG1      -30.7470   44.9860    4.8210 C.3    73  VAL73       0.0022
     80  CG2      -31.3910   44.8060    7.2770 C.3    73  VAL73       0.0022
     81  N        -34.9090   50.0340    8.9270 N.3    75  TYR75      -0.1241
     82  CA       -36.3230   49.8750    9.2440 C.3    75  TYR75       0.1605
     83  C        -37.1180   50.6690    8.1820 C.2    75  TYR75       0.2264
     84  O        -36.7490   51.8050    7.8630 O.2    75  TYR75      -0.2867
     85  CB       -36.6010   50.4420   10.6500 C.3    75  TYR75       0.0534
     86  CG       -38.0690   50.6100   10.9850 C.ar   75  TYR75      -0.0201
     87  CD1      -38.7540   49.6410   11.7130 C.ar   75  TYR75      -0.0009
     88  CD2      -38.7570   51.7730   10.6360 C.ar   75  TYR75      -0.0009
     89  CE1      -40.0950   49.8100   12.0640 C.ar   75  TYR75       0.0417
     90  CE2      -40.1070   51.9360   10.9460 C.ar   75  TYR75       0.0417
     91  CZ       -40.7660   50.9610   11.6770 C.ar   75  TYR75       0.1957
     92  OH       -42.0860   51.1410   11.9980 O.3    75  TYR75      -0.2866
     93  N        -45.8750   40.6840   15.5930 N.3    85  LEU85      -0.1245
     94  CA       -45.2540   41.9430   15.2040 C.3    85  LEU85       0.1561
     95  C        -44.4140   41.6810   13.9370 C.2    85  LEU85       0.2260
     96  O        -43.5130   40.8270   13.9440 O.2    85  LEU85      -0.2867
     97  CB       -44.3700   42.5060   16.3340 C.3    85  LEU85       0.0270
     98  CG       -43.4520   43.6890   15.9790 C.3    85  LEU85       0.0019
     99  CD1      -44.2360   44.9790   15.7600 C.3    85  LEU85       0.0001
    100  CD2      -42.3490   43.8710   17.0260 C.3    85  LEU85       0.0001
    101  N        -41.8560   43.3800   11.1040 N.3    87  VAL87      -0.1245
    102  CA       -40.9460   44.4960   10.8800 C.3    87  VAL87       0.1561
    103  C        -40.4170   44.3940    9.4590 C.2    87  VAL87       0.2260
    104  O        -39.7870   43.3950    9.0910 O.2    87  VAL87      -0.2867
    105  CB       -39.8140   44.6070   11.9570 C.3    87  VAL87       0.0252
    106  CG1      -38.8640   45.7620   11.6470 C.3    87  VAL87       0.0019
    107  CG2      -40.3990   44.7950   13.3530 C.3    87  VAL87       0.0019
    108  N        -38.0280   45.8210    6.4770 N.3    89  MET89      -0.1245
    109  CA       -36.7280   46.4440    6.3570 C.3    89  MET89       0.1570
    110  C        -36.1810   46.3170    4.9410 C.2    89  MET89       0.2261
    111  O        -36.7020   45.5310    4.1440 O.2    89  MET89      -0.2867
    112  CB       -35.7590   45.8910    7.4330 C.3    89  MET89       0.0387
    113  CG       -35.3490   44.4200    7.2380 C.3    89  MET89       0.0595
    114  SD       -34.7250   43.6220    8.7460 S.3    89  MET89      -0.1393
    115  CE       -36.2220   43.6580    9.7750 C.3    89  MET89       0.0692
    116  N        -22.1150   52.5110   13.9040 N.3   124  PHE124     -0.1227
    117  CA       -23.4680   53.0490   13.9890 C.3   124  PHE124      0.1736
    118  C        -24.2940   52.3360   15.0870 C.2   124  PHE124      0.2595
    119  O        -24.8690   53.0020   15.9550 O.2   124  PHE124     -0.2718
    120  CB       -24.1870   52.9420   12.6370 C.3   124  PHE124      0.0547
    121  CG       -25.6780   53.1740   12.7380 C.ar  124  PHE124     -0.0202
    122  CD1      -26.1910   54.4610   12.8750 C.ar  124  PHE124     -0.0042
    123  CD2      -26.5690   52.1040   12.7100 C.ar  124  PHE124     -0.0042
    124  CE1      -27.5680   54.6750   12.9530 C.ar  124  PHE124     -0.0003
    125  CE2      -27.9490   52.3220   12.7970 C.ar  124  PHE124     -0.0003
    126  CZ       -28.4370   53.6040   12.9070 C.ar  124  PHE124     -0.0000
    127  N        -24.3690   50.9960   15.0300 N.am  125  LEU125     -0.1980
    128  CA       -25.1290   50.2150   16.0060 C.3   125  LEU125      0.1596
    129  C        -24.6220   50.4150   17.4290 C.2   125  LEU125      0.2287
    130  O        -25.4300   50.6780   18.3250 O.2   125  LEU125     -0.2864
    131  CB       -25.1230   48.7130   15.6380 C.3   125  LEU125      0.0297
    132  CG       -25.9200   48.2950   14.3720 C.3   125  LEU125      0.0022
    133  CD1      -25.7590   46.8050   14.1180 C.3   125  LEU125      0.0001
    134  CD2      -27.3800   48.6210   14.5010 C.3   125  LEU125      0.0001
    135  N        -25.5750   53.4480   19.2110 N.3   128  ASN128     -0.1240
    136  CA       -26.9690   53.4140   19.6230 C.3   128  ASN128      0.1653
    137  C        -27.1740   52.3620   20.6940 C.2   128  ASN128      0.2266
    138  O        -28.3150   52.0340   21.0140 O.2   128  ASN128     -0.2867
    139  CB       -27.8700   53.1800   18.4170 C.3   128  ASN128      0.1155
    140  CG       -28.0440   54.4150   17.5700 C.2   128  ASN128      0.2627
    141  OD1      -28.7160   55.3580   17.9650 O.2   128  ASN128     -0.2716
    142  ND2      -27.4020   54.4540   16.4190 N.am  128  ASN128     -0.0877
    143  N        -26.4480   49.2150   20.5750 N.3   130  VAL130     -0.1245
    144  CA       -26.9140   47.9570   20.0420 C.3   130  VAL130      0.1561
    145  C        -25.7060   47.0830   19.7300 C.2   130  VAL130      0.2260
    146  O        -24.8230   47.4950   18.9760 O.2   130  VAL130     -0.2867
    147  CB       -27.8990   48.1200   18.8500 C.3   130  VAL130      0.0252
    148  CG1      -28.2480   46.7770   18.2430 C.3   130  VAL130      0.0019
    149  CG2      -29.1720   48.8450   19.2910 C.3   130  VAL130      0.0019
    150  N        -24.6370   43.5430   18.0470 N.3   132  HIS132     -0.1241
    151  CA       -25.1920   42.6460   17.0300 C.3   132  HIS132      0.1621
    152  C        -25.2430   41.1870   17.4940 C.2   132  HIS132      0.2264
    153  O        -26.2930   40.5600   17.3960 O.2   132  HIS132     -0.2867
    154  CB       -24.4390   42.8100   15.7020 C.3   132  HIS132      0.0745
    155  CG       -25.1200   42.1630   14.5440 C.ar  132  HIS132      0.0817
    156  ND1      -25.0770   40.7930   14.3550 N.ar  132  HIS132     -0.2268
    157  CD2      -25.8230   42.7260   13.5410 C.ar  132  HIS132      0.1154
    158  CE1      -25.7500   40.5670   13.2430 C.ar  132  HIS132      0.1986
    159  NE2      -26.2090   41.7030   12.7130 N.ar  132  HIS132     -0.2212
    160  N        -25.5800   45.2140    6.4830 N.3   150  LEU150     -0.1231
    161  CA       -25.5760   44.2570    7.5610 C.3   150  LEU150      0.1693
    162  C        -27.0260   43.9830    7.9250 C.2   150  LEU150      0.2593
    163  O        -27.8220   44.9170    8.0210 O.2   150  LEU150     -0.2718
    164  CB       -24.7950   44.8650    8.7370 C.3   150  LEU150      0.0284
    165  CG       -24.7820   44.1260   10.0760 C.3   150  LEU150      0.0019
    166  CD1      -24.1980   42.7240    9.9140 C.3   150  LEU150      0.0001
    167  CD2      -23.9730   44.9030   11.1000 C.3   150  LEU150      0.0001
    168  N        -27.3690   42.7000    8.1070 N.am  151  THR151     -0.1939
    169  CA       -28.6960   42.2290    8.5500 C.3   151  THR151      0.2028
    170  C        -28.5680   41.4480    9.8670 C.2   151  THR151      0.2642
    171  O        -27.4590   41.1290   10.2940 O.2   151  THR151     -0.2714
    172  CB       -29.3530   41.3030    7.4990 C.3   151  THR151      0.1808
    173  OG1      -28.5920   40.1100    7.3750 O.3   151  THR151     -0.2208
    174  CG2      -29.4490   41.9350    6.1680 C.3   151  THR151      0.0379
    175  N        -29.7040   41.1210   10.4970 N.am  152  ASP152     -0.1971
    176  CA       -29.7250   40.3280   11.7170 C.3   152  ASP152      0.1709
    177  C        -30.8330   39.2880   11.6030 C.2   152  ASP152      0.2293
    178  O        -31.8010   39.3040   12.3560 O.2   152  ASP152     -0.2864
    179  CB       -29.8530   41.2400   12.9450 C.3   152  ASP152      0.1436
    180  CG       -29.9840   40.5140   14.2680 C.2   152  ASP152      0.3671
    181  OD1      -30.7940   40.9620   15.0970 O.co2 152  ASP152     -0.2456
    182  OD2      -29.4870   39.3710   14.3700 O.co2 152  ASP152     -0.2456
    183  N        -31.9610   37.0650   14.6210 N.3   155  PHE155     -0.1241
    184  CA       -32.5880   37.8070   15.7370 C.3   155  PHE155      0.1605
    185  C        -31.6760   37.8790   16.9650 C.2   155  PHE155      0.2264
    186  O        -32.1130   37.5450   18.0750 O.2   155  PHE155     -0.2867
    187  CB       -33.9680   37.1900   16.1410 C.3   155  PHE155      0.0534
    188  CG       -35.0010   37.0710   15.0440 C.ar  155  PHE155     -0.0203
    189  CD1      -36.0290   37.9980   14.9340 C.ar  155  PHE155     -0.0042
    190  CD2      -34.9490   36.0280   14.1250 C.ar  155  PHE155     -0.0042
    191  CE1      -36.9840   37.8820   13.9250 C.ar  155  PHE155     -0.0003
    192  CE2      -35.8850   35.9380   13.0930 C.ar  155  PHE155     -0.0003
    193  CZ       -36.8910   36.8650   12.9960 C.ar  155  PHE155     -0.0000
    194  N        -29.3850   40.7890   17.6870 N.3   157  ALA157     -0.1231
    195  CA       -29.1020   42.1470   18.1250 C.3   157  ALA157      0.1694
    196  C        -29.9820   42.5910   19.2690 C.2   157  ALA157      0.2592
    197  O        -31.1780   42.2960   19.3010 O.2   157  ALA157     -0.2718
    198  CB       -29.1850   43.1300   16.9580 C.3   157  ALA157      0.0304
    199  N        -29.3700   43.2550   20.2390 N.am  158  GLN158     -0.1966
    200  CA       -30.0740   43.7340   21.4160 C.3   158  GLN158      0.1733
    201  C        -29.4210   44.9820   21.9850 C.2   158  GLN158      0.2616
    202  O        -28.2120   45.1760   21.8350 O.2   158  GLN158     -0.2715
    203  CB       -30.1790   42.6210   22.4870 C.3   158  GLN158      0.0408
    204  CG       -28.8280   42.1250   23.0190 C.3   158  GLN158      0.0908
    205  CD       -28.8710   41.6500   24.4550 C.2   158  GLN158      0.2608
    206  OE1      -29.9330   41.3750   25.0250 O.2   158  GLN158     -0.2717
    207  NE2      -27.6970   41.5250   25.0640 N.am  158  GLN158     -0.0878
    208  N        -30.2220   45.8030   22.6760 N.am  159  ILE159     -0.1977
    209  CA       -29.7310   46.9900   23.3630 C.3   159  ILE159      0.1596
    210  C        -28.9340   46.5660   24.6160 C.2   159  ILE159      0.2287
    211  O        -29.2040   45.5130   25.1950 O.2   159  ILE159     -0.2864
    212  CB       -30.8760   47.9890   23.6830 C.3   159  ILE159      0.0276
    213  CG1      -31.8960   47.4130   24.6750 C.3   159  ILE159      0.0022
    214  CG2      -31.5350   48.4060   22.3860 C.3   159  ILE159      0.0022
    215  CD1      -32.9150   48.4370   25.1310 C.3   159  ILE159      0.0001
@<TRIPOS>BOND
     1   111   110    2
     2    79    78    1
     3   110   109    1
     4    69    68    2
     5    78    75    1
     6    78    80    1
     7   174   172    1
     8    75    74    1
     9    75    76    1
    10   109   108    1
    11   109   112    1
    12   160   161    1
    13    68    74   am
    14    68    67    1
    15    66    67    1
    16    76    77    2
    17   113   112    1
    18   113   114    1
    19   173   172    1
    20   172   169    1
    21   161   162    1
    22   161   164    1
    23    67    70    1
    24    84    83    2
    25   162   163    2
    26   162   168   am
    27   168   169    1
    28    83    82    1
    29   169   170    1
    30   164   165    1
    31   114   115    1
    32    81    82    1
    33     1     2    1
    34   104   103    2
    35    70    71    1
    36    70    72    1
    37    71    73    1
    38    82    85    1
    39   103   102    1
    40   170   171    2
    41   170   175   am
    42   166   165    1
    43   165   167    1
    44     2     3    1
    45     2     5    1
    46   175   176    1
    47    88    90   ar
    48    88    86   ar
    49    85    86    1
    50   102   101    1
    51   102   105    1
    52     3     4    2
    53     6     5    1
    54     6     7    1
    55    90    91   ar
    56    86    87   ar
    57   177   176    1
    58   177   178    2
    59   106   105    1
    60    91    92    1
    61    91    89   ar
    62    87    89   ar
    63   176   179    1
    64   105   107    1
    65     7     8    1
    66     8     9    1
    67    60    61    2
    68    60    59    1
    69    53    52    2
    70   120   121    1
    71   120   117    1
    72   123   121   ar
    73   123   125   ar
    74   159   158   ar
    75   159   157   ar
    76   121   122   ar
    77   125   126   ar
    78   122   124   ar
    79   126   124   ar
    80   179   180    1
    81   193   192   ar
    82   193   191   ar
    83   192   190   ar
    84   158   156   ar
    85    59    58    1
    86    59    62    1
    87    52    51    1
    88   157   155   ar
    89   116   117    1
    90   191   189   ar
    91    95    96    2
    92    95    94    1
    93   117   118    1
    94    56    55    1
    95    56    57    1
    96   133   132    1
    97   190   188   ar
    98    54    55    1
    99    54    51    1
   100   180   182   ar
   101   180   181   ar
   102   156   155   ar
   103    10    11    1
   104   132   134    1
   105   132   131    1
   106    51    50    1
   107    17    16    1
   108   155   154    1
   109    62    63    1
   110   183   184    1
   111   189   188   ar
   112   127   118   am
   113   127   128    1
   114   188   187    1
   115   118   119    2
   116    94    93    1
   117    94    97    1
   118   131   128    1
   119   154   151    1
   120    65    63   am
   121   184   187    1
   122   184   185    1
   123    63    64    2
   124    11    14    1
   125    11    12    1
   126    15    16    1
   127    15    14    1
   128    99    98    1
   129    46    45    2
   130    38    37    2
   131    41    39    1
   132    50    45   am
   133    98    97    1
   134    98   100    1
   135   128   129    1
   136   142   140   am
   137    45    44    1
   138    12    13    2
   139    42    40    1
   140    37    36    1
   141   198   195    1
   142   185   186    2
   143   151   152    1
   144   151   150    1
   145    40    39    1
   146    39    36    1
   147    36    35    1
   148   153   152    2
   149   129   130    2
   150   140   141    2
   151   140   139    1
   152   194   195    1
   153    29    28    2
   154    44    43    1
   155    44    47    1
   156   195   196    1
   157   148   147    1
   158    48    47    1
   159   139   136    1
   160    35    28   am
   161    28    27    1
   162   147   149    1
   163   147   144    1
   164    47    49    1
   165   146   145    2
   166   135   136    1
   167   196   197    2
   168   196   199   am
   169   136   137    1
   170   145   144    1
   171   144   143    1
   172    27    30    1
   173    27    26    1
   174   199   200    1
   175    30    31    1
   176    24    22    1
   177    21    20    2
   178   137   138    2
   179    33    32   ar
   180   200   201    1
   181   200   203    1
   182    20    19    1
   183    31    32    1
   184    22    19    1
   185    22    23    1
   186   202   201    2
   187    32    34   ar
   188   201   208   am
   189    19    18    1
   190    23    25    1
   191   214   212    1
   192   203   204    1
   193   208   209    1
   194   204   205    1
   195   209   212    1
   196   209   210    1
   197   212   213    1
   198   205   206    2
   199   205   207   am
   200   210   211    2
   201   213   215    1
