@<TRIPOS>MOLECULE
tmp/4zjpA00.pdb
 101 95 0 0 0
SMALL
GASTEIGER

@<TRIPOS>ATOM
      1  N         16.9560   -3.1200   49.7720 N.3    13  ASN13      -0.1240
      2  CA        18.2540   -3.1690   50.4390 C.3    13  ASN13       0.1653
      3  C         18.7750   -1.7390   50.5530 C.2    13  ASN13       0.2266
      4  O         18.8930   -1.0490   49.5450 O.2    13  ASN13      -0.2867
      5  CB        19.2020   -4.0640   49.6260 C.3    13  ASN13       0.1155
      6  CG        20.6200   -4.1320   50.1860 C.2    13  ASN13       0.2627
      7  OD1       21.0100   -3.3740   51.0720 O.2    13  ASN13      -0.2716
      8  ND2       21.3990   -5.0570   49.6430 N.am   13  ASN13      -0.0877
      9  N         21.5720   -0.4520   50.7890 N.3    15  PHE15      -0.1227
     10  CA        22.7220   -0.1730   49.9260 C.3    15  PHE15       0.1736
     11  C         22.2970    0.3940   48.5830 C.2    15  PHE15       0.2595
     12  O         22.8980    1.3470   48.0820 O.2    15  PHE15      -0.2718
     13  CB        23.5480   -1.4440   49.7260 C.3    15  PHE15       0.0547
     14  CG        24.6950   -1.2870   48.7720 C.ar   15  PHE15      -0.0202
     15  CD1       24.5390   -1.5740   47.4250 C.ar   15  PHE15      -0.0042
     16  CD2       25.9360   -0.8480   49.2240 C.ar   15  PHE15      -0.0042
     17  CE1       25.5950   -1.4300   46.5400 C.ar   15  PHE15      -0.0003
     18  CE2       26.9980   -0.7150   48.3450 C.ar   15  PHE15      -0.0003
     19  CZ        26.8240   -1.0020   47.0030 C.ar   15  PHE15      -0.0000
     20  N         21.2480   -0.1810   48.0060 N.am   16  PHE16      -0.1976
     21  CA        20.8310    0.2290   46.6740 C.3    16  PHE16       0.1639
     22  C         19.9840    1.4860   46.6910 C.2    16  PHE16       0.2290
     23  O         19.9960    2.2480   45.7230 O.2    16  PHE16      -0.2864
     24  CB        20.1280   -0.9360   45.9880 C.3    16  PHE16       0.0560
     25  CG        21.0790   -2.0160   45.6120 C.ar   16  PHE16      -0.0200
     26  CD1       22.1020   -1.7430   44.7240 C.ar   16  PHE16      -0.0042
     27  CD2       20.9940   -3.2780   46.1730 C.ar   16  PHE16      -0.0042
     28  CE1       23.0270   -2.7140   44.3740 C.ar   16  PHE16      -0.0003
     29  CE2       21.9170   -4.2600   45.8330 C.ar   16  PHE16      -0.0003
     30  CZ        22.9420   -3.9700   44.9360 C.ar   16  PHE16      -0.0000
     31  N         28.3190   -1.6060   40.3060 N.3    89  ASP89      -0.1225
     32  CA        28.4160   -2.4960   41.4750 C.3    89  ASP89       0.1805
     33  C         28.5620   -3.9770   41.1400 C.2    89  ASP89       0.2597
     34  O         29.3350   -4.6790   41.7840 O.2    89  ASP89      -0.2718
     35  CB        27.2050   -2.2660   42.3880 C.3    89  ASP89       0.1424
     36  CG        27.1170   -3.2660   43.5120 C.2    89  ASP89       0.3668
     37  OD1       28.0000   -3.2370   44.3920 O.co2  89  ASP89      -0.2456
     38  OD2       26.1370   -4.0490   43.5310 O.co2  89  ASP89      -0.2456
     39  N         27.8040   -4.4530   40.1560 N.am   90  ARG90      -0.1979
     40  CA        27.9500   -5.8040   39.6360 C.3    90  ARG90       0.1597
     41  C         28.1900   -5.7250   38.1410 C.2    90  ARG90       0.2287
     42  O         27.5880   -4.8970   37.4670 O.2    90  ARG90      -0.2864
     43  CB        26.6970   -6.6450   39.9080 C.3    90  ARG90       0.0334
     44  CG        26.3650   -6.8240   41.3730 C.3    90  ARG90       0.0492
     45  CD        24.9230   -7.2790   41.5040 C.3    90  ARG90       0.2205
     46  NE        24.5050   -7.4490   42.8910 N.pl3  90  ARG90      -0.0865
     47  CZ        23.2770   -7.8270   43.2290 C.cat  90  ARG90       0.5346
     48  NH1       22.3730   -8.0680   42.2730 N.pl3  90  ARG90       0.1354
     49  NH2       22.9560   -7.9630   44.5040 N.pl3  90  ARG90       0.1354
     50  N         29.9160   -9.4220   42.5400 N.3   136  ALA136     -0.1245
     51  CA        30.1910   -8.9360   43.8900 C.3   136  ALA136      0.1562
     52  C         30.3790  -10.0890   44.8660 C.2   136  ALA136      0.2260
     53  O         31.3300  -10.1080   45.6450 O.2   136  ALA136     -0.2867
     54  CB        29.0680   -8.0060   44.3700 C.3   136  ALA136      0.0290
     55  N         34.0570  -11.4080   46.4210 N.3   140  ARG140     -0.1245
     56  CA        34.2490  -11.4170   47.8720 C.3   140  ARG140      0.1563
     57  C         34.6720  -12.7930   48.3420 C.2   140  ARG140      0.2260
     58  O         35.5110  -12.9060   49.2400 O.2   140  ARG140     -0.2867
     59  CB        32.9860  -10.9640   48.6010 C.3   140  ARG140      0.0307
     60  CG        32.7910   -9.4700   48.4420 C.3   140  ARG140      0.0489
     61  CD        31.4310   -8.9840   48.8650 C.3   140  ARG140      0.2205
     62  NE        31.2260   -7.6910   48.2300 N.pl3 140  ARG140     -0.0865
     63  CZ        30.0590   -7.0740   48.1230 C.cat 140  ARG140      0.5346
     64  NH1       28.9650   -7.6070   48.6530 N.pl3 140  ARG140      0.1354
     65  NH2       30.0030   -5.9110   47.4930 N.pl3 140  ARG140      0.1354
     66  N         22.2080  -12.2630   49.8740 N.3   163  PHE163     -0.1241
     67  CA        22.2430  -10.8480   50.2570 C.3   163  PHE163      0.1605
     68  C         20.9960  -10.4110   51.0410 C.2   163  PHE163      0.2264
     69  O         20.7240   -9.2110   51.1810 O.2   163  PHE163     -0.2867
     70  CB        22.4170   -9.9690   49.0140 C.3   163  PHE163      0.0534
     71  CG        23.8050  -10.0100   48.4160 C.ar  163  PHE163     -0.0203
     72  CD1       24.9340   -9.9580   49.2290 C.ar  163  PHE163     -0.0042
     73  CD2       23.9690  -10.1080   47.0360 C.ar  163  PHE163     -0.0042
     74  CE1       26.2060   -9.9730   48.6700 C.ar  163  PHE163     -0.0003
     75  CE2       25.2460  -10.1340   46.4690 C.ar  163  PHE163     -0.0003
     76  CZ        26.3580  -10.0580   47.2960 C.ar  163  PHE163     -0.0000
     77  N         27.2400   -9.3190   52.9560 N.3   189  ASN189     -0.1240
     78  CA        26.7050   -7.9530   53.0840 C.3   189  ASN189      0.1653
     79  C         26.1010   -7.7220   54.4780 C.2   189  ASN189      0.2266
     80  O         25.9570   -8.6570   55.2680 O.2   189  ASN189     -0.2867
     81  CB        25.6990   -7.6130   51.9510 C.3   189  ASN189      0.1155
     82  CG        24.2940   -8.1980   52.1580 C.2   189  ASN189      0.2627
     83  OD1       24.0960   -9.1660   52.8870 O.2   189  ASN189     -0.2716
     84  ND2       23.3130   -7.6250   51.4490 N.am  189  ASN189     -0.0877
     85  N         29.4560   -3.4370   53.3900 N.3   212  ASP212     -0.1239
     86  CA        28.6370   -2.3300   52.8690 C.3   212  ASP212      0.1674
     87  C         28.7660   -1.0570   53.6880 C.2   212  ASP212      0.2266
     88  O         28.8170    0.0440   53.1280 O.2   212  ASP212     -0.2867
     89  CB        27.1310   -2.6510   52.8000 C.3   212  ASP212      0.1410
     90  CG        26.7700   -3.5930   51.6640 C.2   212  ASP212      0.3668
     91  OD1       27.6500   -3.9030   50.8270 O.co2 212  ASP212     -0.2456
     92  OD2       25.5950   -4.0250   51.6340 O.co2 212  ASP212     -0.2456
     93  N         31.4570    0.3090   51.9400 N.3   232  GLN232     -0.1245
     94  CA        31.4630    0.7580   50.5550 C.3   232  GLN232      0.1566
     95  C         30.9120    2.1690   50.4760 C.2   232  GLN232      0.2260
     96  O         30.4210    2.7110   51.4670 O.2   232  GLN232     -0.2867
     97  CB        30.6040   -0.1540   49.6710 C.3   232  GLN232      0.0367
     98  CG        31.0360   -1.6060   49.5750 C.3   232  GLN232      0.0905
     99  CD        30.3410   -2.3050   48.4210 C.2   232  GLN232      0.2608
    100  OE1       30.7330   -2.1540   47.2620 O.2   232  GLN232     -0.2717
    101  NE2       29.2770   -3.0590   48.7300 N.am  232  GLN232     -0.0878
@<TRIPOS>BOND
     1    42    41    2
     2    41    40    1
     3    40    43    1
     4    40    39    1
     5    43    44    1
     6    39    33   am
     7    31    32    1
     8    33    32    1
     9    33    34    2
    10    44    45    1
    11    32    35    1
    12    45    46    1
    13    48    47    1
    14    35    36    1
    15    50    51    1
    16    46    47    2
    17    47    49    1
    18    36    38   ar
    19    36    37   ar
    20    51    54    1
    21    51    52    1
    22    28    26   ar
    23    28    30   ar
    24    26    25   ar
    25    52    53    2
    26    30    29   ar
    27    25    24    1
    28    25    27   ar
    29    23    22    2
    30    29    27   ar
    31    24    21    1
    32    55    56    1
    33    75    73   ar
    34    75    76   ar
    35    17    19   ar
    36    17    15   ar
    37    21    22    1
    38    21    20    1
    39    19    18   ar
    40    73    71   ar
    41   100    99    2
    42    76    74   ar
    43    15    14   ar
    44    65    63    1
    45    56    57    1
    46    56    59    1
    47    20    11   am
    48    12    11    2
    49    63    62    2
    50    63    64    1
    51    62    61    1
    52    57    58    2
    53    18    16   ar
    54    71    70    1
    55    71    72   ar
    56    99   101   am
    57    99    98    1
    58    60    59    1
    59    60    61    1
    60    11    10    1
    61    74    72   ar
    62    14    16   ar
    63    14    13    1
    64    70    67    1
    65     4     3    2
    66    98    97    1
    67     5     6    1
    68     5     2    1
    69     8     6   am
    70    97    94    1
    71    13    10    1
    72     1     2    1
    73    66    67    1
    74    10     9    1
    75     6     7    2
    76    67    68    1
    77     2     3    1
    78    95    94    1
    79    95    96    2
    80    94    93    1
    81    91    90   ar
    82    68    69    2
    83    84    82   am
    84    92    90   ar
    85    90    89    1
    86    81    82    1
    87    81    78    1
    88    82    83    2
    89    89    86    1
    90    86    85    1
    91    86    87    1
    92    77    78    1
    93    78    79    1
    94    88    87    2
    95    79    80    2
