@<TRIPOS>MOLECULE
tmp/4zjrA00.pdb
 187 181 0 0 0
SMALL
GASTEIGER

@<TRIPOS>ATOM
      1  N        -19.7930   34.2740    4.7750 N.3    22  GLN22      -0.1231
      2  CA       -18.6090   34.6000    5.5720 C.3    22  GLN22       0.1698
      3  C        -17.6570   35.6590    5.0780 C.2    22  GLN22       0.2592
      4  O        -17.4280   36.6360    5.7440 O.2    22  GLN22      -0.2718
      5  CB       -17.8270   33.3450    5.9060 C.3    22  GLN22       0.0381
      6  CG       -16.6890   33.6140    6.8620 C.3    22  GLN22       0.0905
      7  CD       -16.0020   32.3660    7.3270 C.2    22  GLN22       0.2608
      8  OE1      -16.4190   31.2800    7.0210 O.2    22  GLN22      -0.2717
      9  NE2      -14.9360   32.5280    8.0530 N.am   22  GLN22      -0.0878
     10  N        -17.0840   35.4330    3.9180 N.am   23  LEU23      -0.1980
     11  CA       -16.2180   36.3950    3.2930 C.3    23  LEU23       0.1596
     12  C        -16.8000   36.7570    1.9300 C.2    23  LEU23       0.2287
     13  O        -17.1470   35.8800    1.1600 O.2    23  LEU23      -0.2864
     14  CB       -14.8080   35.8220    3.1570 C.3    23  LEU23       0.0297
     15  CG       -13.7930   36.1190    4.2800 C.3    23  LEU23       0.0022
     16  CD1      -12.5960   35.1880    4.1010 C.3    23  LEU23       0.0001
     17  CD2      -13.3650   37.5860    4.2900 C.3    23  LEU23       0.0001
     18  N         -2.2060   24.7910   13.3070 N.3    53  TRP53      -0.1241
     19  CA        -3.4090   24.0090   13.4230 C.3    53  TRP53       0.1605
     20  C         -4.4830   24.7650   14.0980 C.2    53  TRP53       0.2264
     21  O         -5.6210   24.8310   13.6330 O.2    53  TRP53      -0.2867
     22  CB        -3.1680   22.7960   14.2630 C.3    53  TRP53       0.0550
     23  CG        -4.4380   22.2540   14.8480 C.ar   53  TRP53       0.0003
     24  CD1       -4.7530   22.1750   16.1730 C.ar   53  TRP53       0.0946
     25  CD2       -5.5640   21.7360   14.1300 C.ar   53  TRP53       0.0152
     26  NE1       -5.9920   21.6160   16.3280 N.ar   53  TRP53      -0.2442
     27  CE2       -6.5210   21.3400   15.0920 C.ar   53  TRP53       0.0810
     28  CE3       -5.8650   21.5800   12.7710 C.ar   53  TRP53       0.0012
     29  CZ2       -7.7730   20.7820   14.7370 C.ar   53  TRP53       0.0191
     30  CZ3       -7.1100   21.0100   12.4140 C.ar   53  TRP53       0.0001
     31  CH2       -8.0420   20.6250   13.3990 C.ar   53  TRP53       0.0015
     32  N         -5.8060   27.5090   11.7690 N.3    56  CYS56      -0.1235
     33  CA        -6.6870   26.9290   10.7910 C.3    56  CYS56       0.1677
     34  C         -8.0000   26.4240   11.4510 C.2    56  CYS56       0.2270
     35  O         -9.0850   26.5340   10.8890 O.2    56  CYS56      -0.2867
     36  CB        -5.9290   25.8250   10.0220 C.3    56  CYS56       0.0956
     37  SG        -4.5050   26.3860    9.0140 S.3    56  CYS56      -0.0801
     38  N        -10.5670   29.2700   11.9670 N.3    59  HIS59      -0.1226
     39  CA       -11.3050   29.5770   10.7440 C.3    59  HIS59       0.1752
     40  C        -12.2750   28.4090   10.3380 C.2    59  HIS59       0.2595
     41  O        -13.4340   28.6400    9.8780 O.2    59  HIS59      -0.2718
     42  CB       -10.3460   29.8980    9.6070 C.3    59  HIS59       0.0759
     43  CG        -9.2650   30.8800    9.9400 C.ar   59  HIS59       0.0818
     44  ND1       -9.5220   32.1640   10.3740 N.ar   59  HIS59      -0.2268
     45  CD2       -7.9150   30.7860    9.8220 C.ar   59  HIS59       0.1154
     46  CE1       -8.3750   32.8100   10.5360 C.ar   59  HIS59       0.1986
     47  NE2       -7.3850   31.9930   10.2170 N.ar   59  HIS59      -0.2212
     48  N        -11.8620   27.1810   10.5540 N.am   60  LEU60      -0.1980
     49  CA       -12.6990   26.0630   10.2670 C.3    60  LEU60       0.1596
     50  C        -13.9430   26.0790   11.1090 C.2    60  LEU60       0.2287
     51  O        -15.0050   25.8460   10.6470 O.2    60  LEU60      -0.2864
     52  CB       -11.9330   24.7960   10.4870 C.3    60  LEU60       0.0297
     53  CG       -11.2770   24.3480    9.2070 C.3    60  LEU60       0.0022
     54  CD1      -10.5130   23.0740    9.3570 C.3    60  LEU60       0.0001
     55  CD2      -12.2970   24.2000    8.1300 C.3    60  LEU60       0.0001
     56  N        -16.0520   28.8370    9.9500 N.3    63  ALA63      -0.1245
     57  CA       -16.6500   28.5250    8.6920 C.3    63  ALA63       0.1562
     58  C        -17.7750   27.4940    8.8470 C.2    63  ALA63       0.2260
     59  O        -18.7420   27.4940    8.0860 O.2    63  ALA63      -0.2867
     60  CB       -15.5730   28.0310    7.7600 C.3    63  ALA63       0.0290
     61  N        -17.8150   23.3440    3.0360 N.3    97  VAL97      -0.1245
     62  CA       -16.7200   24.2510    3.2930 C.3    97  VAL97       0.1561
     63  C        -15.6680   24.0640    2.2400 C.2    97  VAL97       0.2260
     64  O        -15.1270   25.0580    1.7720 O.2    97  VAL97      -0.2867
     65  CB       -16.1270   24.0260    4.6870 C.3    97  VAL97       0.0252
     66  CG1      -14.6760   24.4690    4.7880 C.3    97  VAL97       0.0019
     67  CG2      -16.9570   24.7600    5.7000 C.3    97  VAL97       0.0019
     68  N        -14.3840   26.8710   -0.6410 N.3   101  MET101     -0.1245
     69  CA       -12.9890   27.2870   -0.7410 C.3   101  MET101      0.1570
     70  C        -12.6130   27.7090   -2.1370 C.2   101  MET101      0.2261
     71  O        -11.8740   28.6250   -2.3140 O.2   101  MET101     -0.2867
     72  CB       -12.0620   26.2000   -0.2510 C.3   101  MET101      0.0387
     73  CG       -11.5480   26.4010    1.1650 C.3   101  MET101      0.0595
     74  SD       -10.8610   24.9000    1.8420 S.3   101  MET101     -0.1393
     75  CE       -10.9790   25.1380    3.5830 C.3   101  MET101      0.0692
     76  N         -4.2870   30.9960   -2.8580 N.3   112  VAL112     -0.1231
     77  CA        -5.5480   31.0030   -2.1470 C.3   112  VAL112      0.1692
     78  C         -5.4730   32.1030   -1.1140 C.2   112  VAL112      0.2592
     79  O         -4.4140   32.3240   -0.5560 O.2   112  VAL112     -0.2718
     80  CB        -5.7890   29.6090   -1.4930 C.3   112  VAL112      0.0266
     81  CG1       -4.9360   29.4050   -0.2390 C.3   112  VAL112      0.0020
     82  CG2       -7.2510   29.3950   -1.1650 C.3   112  VAL112      0.0020
     83  N         -6.5710   32.7960   -0.8710 N.am  113  PHE113     -0.1962
     84  CA        -6.6380   33.7090    0.2570 C.3   113  PHE113      0.1771
     85  C         -6.4660   32.9900    1.6050 C.2   113  PHE113      0.2620
     86  O         -7.2580   32.1330    1.9530 O.2   113  PHE113     -0.2715
     87  CB        -7.9800   34.3770    0.2460 C.3   113  PHE113      0.0574
     88  CG        -8.1590   35.4460    1.2670 C.ar  113  PHE113     -0.0200
     89  CD1       -7.7550   36.7770    1.0030 C.ar  113  PHE113     -0.0042
     90  CD2       -8.8290   35.1820    2.4390 C.ar  113  PHE113     -0.0042
     91  CE1       -7.9710   37.7990    1.9450 C.ar  113  PHE113     -0.0003
     92  CE2       -9.0450   36.2030    3.3800 C.ar  113  PHE113     -0.0003
     93  CZ        -8.6070   37.5130    3.1370 C.ar  113  PHE113     -0.0000
     94  N         -5.4220   33.3440    2.3540 N.am  114  PHE114     -0.1960
     95  CA        -5.2840   32.9650    3.7630 C.3   114  PHE114      0.1771
     96  C         -4.9990   34.1990    4.5800 C.2   114  PHE114      0.2619
     97  O         -4.1870   35.0320    4.1710 O.2   114  PHE114     -0.2715
     98  CB        -4.1510   31.9950    3.9750 C.3   114  PHE114      0.0574
     99  CG        -4.2400   31.2110    5.2790 C.ar  114  PHE114     -0.0200
    100  CD1       -5.2490   30.2560    5.4660 C.ar  114  PHE114     -0.0042
    101  CD2       -3.2770   31.3670    6.2770 C.ar  114  PHE114     -0.0042
    102  CE1       -5.3200   29.5260    6.6220 C.ar  114  PHE114     -0.0003
    103  CE2       -3.3390   30.6300    7.4570 C.ar  114  PHE114     -0.0003
    104  CZ        -4.3570   29.7140    7.6200 C.ar  114  PHE114     -0.0000
    105  N         -5.6910   34.3110    5.7120 N.am  115  GLU115     -0.1963
    106  CA        -5.4440   35.3380    6.6940 C.3   115  GLU115      0.1733
    107  C         -5.0340   36.6660    6.0790 C.2   115  GLU115      0.2616
    108  O         -3.9070   37.1420    6.2150 O.2   115  GLU115     -0.2715
    109  CB        -4.4180   34.8290    7.6870 C.3   115  GLU115      0.0429
    110  CG        -4.9690   33.7140    8.5340 C.3   115  GLU115      0.1163
    111  CD        -4.1980   33.4890    9.8130 C.2   115  GLU115      0.3649
    112  OE1       -2.9850   33.8870    9.8740 O.co2 115  GLU115     -0.2457
    113  OE2       -4.8220   32.8990   10.7460 O.co2 115  GLU115     -0.2457
    114  N         -5.9620   37.2230    5.3260 N.am  116  GLY116     -0.1955
    115  CA        -5.8230   38.5720    4.8150 C.3   116  GLY116      0.1869
    116  C         -5.1700   38.6740    3.4690 C.2   116  GLY116      0.2309
    117  O         -5.3890   39.6380    2.7740 O.2   116  GLY116     -0.2863
    118  N          1.5080   26.3310    3.8860 N.3   124  PHE124     -0.1241
    119  CA         1.0130   25.3660    4.8540 C.3   124  PHE124      0.1605
    120  C          1.9850   24.2270    5.0630 C.2   124  PHE124      0.2264
    121  O          1.6060   23.1530    5.5190 O.2   124  PHE124     -0.2867
    122  CB        -0.3440   24.8140    4.3870 C.3   124  PHE124      0.0534
    123  CG        -1.3230   25.8820    4.0470 C.ar  124  PHE124     -0.0203
    124  CD1       -2.1130   26.4540    5.0420 C.ar  124  PHE124     -0.0042
    125  CD2       -1.4100   26.3860    2.7410 C.ar  124  PHE124     -0.0042
    126  CE1       -2.9990   27.4690    4.7530 C.ar  124  PHE124     -0.0003
    127  CE2       -2.3160   27.3990    2.4500 C.ar  124  PHE124     -0.0003
    128  CZ        -3.1090   27.9420    3.4640 C.ar  124  PHE124     -0.0000
    129  N          2.1900   22.0440    8.3390 N.3   127  LEU127     -0.1245
    130  CA         1.2310   20.9640    8.6360 C.3   127  LEU127      0.1561
    131  C          1.6640   19.5800    8.1470 C.2   127  LEU127      0.2260
    132  O          1.1520   18.5640    8.6540 O.2   127  LEU127     -0.2867
    133  CB        -0.1720   21.3120    8.1850 C.3   127  LEU127      0.0270
    134  CG        -0.8260   22.5750    8.7420 C.3   127  LEU127      0.0019
    135  CD1       -1.9860   22.9370    7.8510 C.3   127  LEU127      0.0001
    136  CD2       -1.3260   22.4210   10.1650 C.3   127  LEU127      0.0001
    137  N          1.0910   18.2170    5.4400 N.3   129  CYS129     -0.1235
    138  CA        -0.0600   17.6680    4.7340 C.3   129  CYS129      0.1677
    139  C          0.0020   18.1250    3.2860 C.2   129  CYS129      0.2270
    140  O         -0.9120   18.7420    2.7840 O.2   129  CYS129     -0.2867
    141  CB        -1.3670   18.1700    5.3590 C.3   129  CYS129      0.0956
    142  SG        -1.6450   17.6480    7.0650 S.3   129  CYS129     -0.0801
    143  N         -2.6810   16.2290    0.8130 N.3   132  LEU132     -0.1231
    144  CA        -3.9810   16.8130    1.0970 C.3   132  LEU132      0.1693
    145  C         -4.1100   18.2380    0.6010 C.2   132  LEU132      0.2591
    146  O         -5.0610   18.5550   -0.0990 O.2   132  LEU132     -0.2718
    147  CB        -4.2760   16.7770    2.5820 C.3   132  LEU132      0.0284
    148  CG        -5.7110   17.1230    2.9810 C.3   132  LEU132      0.0019
    149  CD1       -6.6990   16.1930    2.2840 C.3   132  LEU132      0.0001
    150  CD2       -5.8890   17.0730    4.5070 C.3   132  LEU132      0.0001
    151  N         -3.1600   19.1010    0.9190 N.am  133  ILE133     -0.1980
    152  CA        -3.3110   20.4940    0.5120 C.3   133  ILE133      0.1595
    153  C         -3.3680   20.5450   -0.9910 C.2   133  ILE133      0.2287
    154  O         -4.1670   21.2950   -1.5550 O.2   133  ILE133     -0.2864
    155  CB        -2.1790   21.4120    1.0050 C.3   133  ILE133      0.0276
    156  CG1       -2.1880   21.5050    2.5330 C.3   133  ILE133      0.0022
    157  CG2       -2.2820   22.8110    0.3450 C.3   133  ILE133      0.0022
    158  CD1       -3.4570   22.0170    3.1000 C.3   133  ILE133      0.0001
    159  N         -6.5210   19.8640   -2.4970 N.3   136  ILE136     -0.1231
    160  CA        -7.5080   20.9080   -2.2390 C.3   136  ILE136      0.1692
    161  C         -7.2980   21.9520   -3.3010 C.2   136  ILE136      0.2592
    162  O         -8.2580   22.4560   -3.8720 O.2   136  ILE136     -0.2718
    163  CB        -7.4460   21.4040   -0.7650 C.3   136  ILE136      0.0266
    164  CG1       -8.2390   20.4230    0.1160 C.3   136  ILE136      0.0019
    165  CG2       -7.9620   22.8160   -0.5790 C.3   136  ILE136      0.0020
    166  CD1       -7.9620   20.5070    1.6110 C.3   136  ILE136      0.0001
    167  N         -6.0430   22.1900   -3.6500 N.am  137  PHE137     -0.1976
    168  CA        -5.7480   23.1580   -4.6990 C.3   137  PHE137      0.1639
    169  C         -6.3210   22.6820   -6.0330 C.2   137  PHE137      0.2290
    170  O         -6.9290   23.4530   -6.7340 O.2   137  PHE137     -0.2864
    171  CB        -4.2470   23.5090   -4.7170 C.3   137  PHE137      0.0560
    172  CG        -3.9060   24.5720   -3.7290 C.ar  137  PHE137     -0.0200
    173  CD1       -4.1120   24.3590   -2.3800 C.ar  137  PHE137     -0.0042
    174  CD2       -3.4720   25.8150   -4.1460 C.ar  137  PHE137     -0.0042
    175  CE1       -3.8710   25.3490   -1.4500 C.ar  137  PHE137     -0.0003
    176  CE2       -3.2210   26.8260   -3.2230 C.ar  137  PHE137     -0.0003
    177  CZ        -3.4180   26.5910   -1.8670 C.ar  137  PHE137     -0.0000
    178  N         -9.5970   14.7880    4.4710 N.3   215  HIS215     -0.1241
    179  CA        -9.5840   16.0500    5.2500 C.3   215  HIS215      0.1621
    180  C         -9.9240   15.8690    6.7500 C.2   215  HIS215      0.2264
    181  O         -9.2290   16.4060    7.6330 O.2   215  HIS215     -0.2867
    182  CB       -10.5660   17.0580    4.6100 C.3   215  HIS215      0.0745
    183  CG       -10.4460   18.4580    5.1340 C.ar  215  HIS215      0.0817
    184  ND1      -11.5440   19.2240    5.4550 N.ar  215  HIS215     -0.2268
    185  CD2       -9.3600   19.2350    5.3810 C.ar  215  HIS215      0.1154
    186  CE1      -11.1430   20.4120    5.8750 C.ar  215  HIS215      0.1986
    187  NE2       -9.8230   20.4460    5.8390 N.ar  215  HIS215     -0.2212
@<TRIPOS>BOND
     1   170   169    2
     2   169   168    1
     3   171   168    1
     4   171   172    1
     5   168   167    1
     6   174   172   ar
     7   174   176   ar
     8   162   161    2
     9   172   173   ar
    10   167   161   am
    11   161   160    1
    12   176   177   ar
    13    76    77    1
    14   159   160    1
    15   173   175   ar
    16    71    70    2
    17   160   163    1
    18    77    80    1
    19    77    78    1
    20    70    69    1
    21   177   175   ar
    22   154   153    2
    23    80    82    1
    24    80    81    1
    25    78    83   am
    26    78    79    2
    27   153   152    1
    28    83    84    1
    29   163   165    1
    30   163   164    1
    31    69    68    1
    32    69    72    1
    33    72    73    1
    34   146   145    2
    35   164   166    1
    36    87    84    1
    37    87    88    1
    38    84    85    1
    39   157   155    1
    40   152   151    1
    41   152   155    1
    42   145   151   am
    43   145   144    1
    44   143   144    1
    45    89    88   ar
    46    89    91   ar
    47   155   156    1
    48   144   147    1
    49    13    12    2
    50    73    74    1
    51    88    90   ar
    52    85    86    2
    53    85    94   am
    54    64    63    2
    55    74    75    1
    56    12    11    1
    57    91    93   ar
    58    63    62    1
    59   149   148    1
    60    94    95    1
    61    90    92   ar
    62   127   125   ar
    63   127   128   ar
    64   156   158    1
    65   147   148    1
    66   125   123   ar
    67   117   116    2
    68   140   139    2
    69   148   150    1
    70    61    62    1
    71    93    92   ar
    72    14    11    1
    73    14    15    1
    74   139   138    1
    75    11    10    1
    76    62    65    1
    77   128   126   ar
    78   116   115    1
    79    95    98    1
    80    95    96    1
    81   118   119    1
    82    10     3   am
    83    98    99    1
    84   123   122    1
    85   123   124   ar
    86    16    15    1
    87    97    96    2
    88    15    17    1
    89   122   119    1
    90   178   179    1
    91    96   105   am
    92   182   183    1
    93   182   179    1
    94    65    66    1
    95    65    67    1
    96   138   141    1
    97   138   137    1
    98   126   124   ar
    99     1     2    1
   100   115   114    1
   101   119   120    1
   102   120   121    2
   103     3     2    1
   104     3     4    2
   105   183   185   ar
   106   183   184   ar
   107   179   180    1
   108    99   100   ar
   109    99   101   ar
   110   114   107   am
   111   141   142    1
   112   185   187   ar
   113   184   186   ar
   114   100   102   ar
   115     2     5    1
   116   105   106    1
   117   187   186   ar
   118     5     6    1
   119   107   108    2
   120   107   106    1
   121   101   103   ar
   122   102   104   ar
   123   106   109    1
   124   180   181    2
   125     6     7    1
   126     8     7    2
   127     7     9   am
   128   103   104   ar
   129   109   110    1
   130    60    57    1
   131   135   134    1
   132    59    58    2
   133    55    53    1
   134   131   130    1
   135   131   132    2
   136   133   130    1
   137   133   134    1
   138   129   130    1
   139   110   111    1
   140    57    58    1
   141    57    56    1
   142   134   136    1
   143    37    36    1
   144    53    54    1
   145    53    52    1
   146    42    43    1
   147    42    39    1
   148   111   112   ar
   149   111   113   ar
   150    45    43   ar
   151    45    47   ar
   152    41    40    2
   153    43    44   ar
   154    36    33    1
   155    47    46   ar
   156    49    52    1
   157    49    48    1
   158    49    50    1
   159    40    48   am
   160    40    39    1
   161    44    46   ar
   162    51    50    2
   163    39    38    1
   164    33    34    1
   165    33    32    1
   166    35    34    2
   167    30    28   ar
   168    30    31   ar
   169    28    25   ar
   170    18    19    1
   171    31    29   ar
   172    19    20    1
   173    19    22    1
   174    21    20    2
   175    25    23   ar
   176    25    27   ar
   177    22    23    1
   178    29    27   ar
   179    23    24   ar
   180    27    26   ar
   181    24    26   ar
