@<TRIPOS>MOLECULE
tmp/4zjwA00.pdb
 208 200 0 0 0
SMALL
GASTEIGER

@<TRIPOS>ATOM
      1  N        -30.9330   14.1450   38.6160 N.3    19  GLN19      -0.1231
      2  CA       -29.7890   13.4190   38.1290 C.3    19  GLN19       0.1698
      3  C        -30.3260   12.0560   37.6700 C.2    19  GLN19       0.2592
      4  O        -30.0500   11.6180   36.5660 O.2    19  GLN19      -0.2718
      5  CB       -28.8240   13.3100   39.3030 C.3    19  GLN19       0.0381
      6  CG       -27.3970   12.8810   39.0440 C.3    19  GLN19       0.0905
      7  CD       -26.5980   12.9130   40.3490 C.2    19  GLN19       0.2608
      8  OE1      -27.1680   13.0770   41.4430 O.2    19  GLN19      -0.2717
      9  NE2      -25.2830   12.7680   40.2480 N.am   19  GLN19      -0.0878
     10  N        -31.1650   11.4550   38.5170 N.am   20  LEU20      -0.1980
     11  CA       -31.7100   10.1080   38.3650 C.3    20  LEU20       0.1596
     12  C        -33.2490   10.1690   38.2130 C.2    20  LEU20       0.2287
     13  O        -33.9290   10.8140   39.0030 O.2    20  LEU20      -0.2864
     14  CB       -31.3340    9.3190   39.6250 C.3    20  LEU20       0.0297
     15  CG       -29.8430    9.3470   40.0210 C.3    20  LEU20       0.0022
     16  CD1      -29.5680    9.1990   41.5260 C.3    20  LEU20       0.0001
     17  CD2      -29.0840    8.2890   39.2310 C.3    20  LEU20       0.0001
     18  N        -12.9290    7.9740   48.4140 N.3    50  TRP50      -0.1241
     19  CA       -13.2810    9.4050   48.4500 C.3    50  TRP50       0.1605
     20  C        -13.2830    9.9970   47.0500 C.2    50  TRP50       0.2264
     21  O        -14.1710   10.7980   46.7170 O.2    50  TRP50      -0.2867
     22  CB       -12.3590   10.2460   49.3840 C.3    50  TRP50       0.0550
     23  CG       -12.7910   10.1660   50.8080 C.ar   50  TRP50       0.0003
     24  CD1      -12.2780    9.3640   51.7850 C.ar   50  TRP50       0.0946
     25  CD2      -13.9090   10.8410   51.4010 C.ar   50  TRP50       0.0152
     26  NE1      -12.9750    9.5260   52.9580 N.ar   50  TRP50      -0.2442
     27  CE2      -13.9930   10.4140   52.7470 C.ar   50  TRP50       0.0810
     28  CE3      -14.8550   11.7630   50.9230 C.ar   50  TRP50       0.0012
     29  CZ2      -14.9680   10.9070   53.6310 C.ar   50  TRP50       0.0191
     30  CZ3      -15.8180   12.2620   51.8130 C.ar   50  TRP50       0.0001
     31  CH2      -15.8650   11.8350   53.1410 C.ar   50  TRP50       0.0015
     32  N        -16.4510    9.0110   45.5190 N.3    53  CYS53      -0.1235
     33  CA       -17.5840    9.6510   46.1380 C.3    53  CYS53       0.1677
     34  C        -17.6170   11.1610   45.9110 C.2    53  CYS53       0.2270
     35  O        -18.6850   11.7280   45.7220 O.2    53  CYS53      -0.2867
     36  CB       -17.6590    9.3120   47.6250 C.3    53  CYS53       0.0956
     37  SG       -18.1710    7.6010   47.9000 S.3    53  CYS53      -0.0801
     38  N        -18.9780   11.8210   42.4060 N.3    56  HIS56      -0.1226
     39  CA       -20.4450   11.7080   42.2820 C.3    56  HIS56       0.1752
     40  C        -21.1420   12.9160   42.8960 C.2    56  HIS56       0.2595
     41  O        -22.2040   13.3450   42.4730 O.2    56  HIS56      -0.2718
     42  CB       -20.9890   10.4580   42.9700 C.3    56  HIS56       0.0759
     43  CG       -20.5930    9.1930   42.3080 C.ar   56  HIS56       0.0818
     44  ND1      -20.8180    8.9500   40.9700 N.ar   56  HIS56      -0.2268
     45  CD2      -19.9890    8.0870   42.7960 C.ar   56  HIS56       0.1154
     46  CE1      -20.3530    7.7520   40.6580 C.ar   56  HIS56       0.1986
     47  NE2      -19.8550    7.2050   41.7510 N.ar   56  HIS56      -0.2212
     48  N        -20.5250   13.4340   43.9230 N.am   57  LEU57      -0.1980
     49  CA       -21.1040   14.4940   44.6810 C.3    57  LEU57       0.1596
     50  C        -21.0100   15.8190   43.9040 C.2    57  LEU57       0.2287
     51  O        -21.9050   16.6310   43.9550 O.2    57  LEU57      -0.2864
     52  CB       -20.4010   14.4770   46.0130 C.3    57  LEU57       0.0297
     53  CG       -20.8220   15.2240   47.2400 C.3    57  LEU57       0.0022
     54  CD1      -20.2530   14.4350   48.4140 C.3    57  LEU57       0.0001
     55  CD2      -20.2620   16.6440   47.1840 C.3    57  LEU57       0.0001
     56  N        -23.6360   15.6560   41.2760 N.3    60  ALA60      -0.1245
     57  CA       -24.9200   15.8890   41.9510 C.3    60  ALA60       0.1562
     58  C        -25.1660   17.3960   42.2260 C.2    60  ALA60       0.2260
     59  O        -26.2950   17.8930   42.0600 O.2    60  ALA60      -0.2867
     60  CB       -25.0150   15.0770   43.2440 C.3    60  ALA60       0.0290
     61  N        -25.1110   21.2570   48.8710 N.3    91  MET91      -0.1245
     62  CA       -24.8390   19.9750   49.4640 C.3    91  MET91       0.1570
     63  C        -26.0650   19.4900   50.2320 C.2    91  MET91       0.2261
     64  O        -26.4100   18.2920   50.2370 O.2    91  MET91      -0.2867
     65  CB       -23.6840   20.1090   50.4400 C.3    91  MET91       0.0387
     66  CG       -23.1520   18.7960   50.9790 C.3    91  MET91       0.0595
     67  SD       -22.0690   18.0360   49.7700 S.3    91  MET91      -0.1393
     68  CE       -20.6870   19.1870   49.8130 C.3    91  MET91       0.0692
     69  N        -28.5710   18.1760   47.8430 N.3    94  VAL94      -0.1231
     70  CA       -28.1620   16.8490   47.3790 C.3    94  VAL94       0.1692
     71  C        -28.5240   15.7970   48.4320 C.2    94  VAL94       0.2591
     72  O        -29.0500   14.7660   48.1130 O.2    94  VAL94      -0.2718
     73  CB       -26.6510   16.7690   47.1140 C.3    94  VAL94       0.0266
     74  CG1      -26.1610   15.3040   47.0320 C.3    94  VAL94       0.0020
     75  CG2      -26.3190   17.5050   45.8410 C.3    94  VAL94       0.0020
     76  N        -28.2300   16.0800   49.6860 N.am   95  LEU95      -0.1980
     77  CA       -28.5640   15.1570   50.7380 C.3    95  LEU95       0.1596
     78  C        -30.0820   14.8630   50.7610 C.2    95  LEU95       0.2287
     79  O        -30.5060   13.7070   50.7850 O.2    95  LEU95      -0.2864
     80  CB       -28.1110   15.7180   52.0590 C.3    95  LEU95       0.0297
     81  CG       -28.2570   14.7590   53.2220 C.3    95  LEU95       0.0022
     82  CD1      -27.3490   13.5520   53.0320 C.3    95  LEU95       0.0001
     83  CD2      -27.9170   15.5020   54.5050 C.3    95  LEU95       0.0001
     84  N        -31.0640   12.6900   47.8450 N.3    98  MET98      -0.1245
     85  CA       -30.6950   11.2740   47.9630 C.3    98  MET98       0.1570
     86  C        -31.7400   10.3420   48.6160 C.2    98  MET98       0.2261
     87  O        -31.7240    9.1690   48.3340 O.2    98  MET98      -0.2867
     88  CB       -29.2830   11.0700   48.5350 C.3    98  MET98       0.0387
     89  CG       -28.1620   11.0950   47.4620 C.3    98  MET98       0.0595
     90  SD       -28.3640   10.2240   45.8390 S.3    98  MET98      -0.1393
     91  CE       -29.0130   11.5100   44.7450 C.3    98  MET98       0.0692
     92  N        -29.0830    1.9990   49.5070 N.3   109  VAL109     -0.1231
     93  CA       -29.0270    3.1890   48.7340 C.3   109  VAL109      0.1692
     94  C        -28.4430    2.8920   47.3480 C.2   109  VAL109      0.2592
     95  O        -27.5450    2.0280   47.1920 O.2   109  VAL109     -0.2718
     96  CB       -28.2170    4.2480   49.4970 C.3   109  VAL109      0.0266
     97  CG1      -26.7130    3.8950   49.5260 C.3   109  VAL109      0.0020
     98  CG2      -28.4380    5.6060   48.8810 C.3   109  VAL109      0.0020
     99  N        -28.9350    3.6290   46.3500 N.am  110  PHE110     -0.1962
    100  CA       -28.4930    3.4320   44.9910 C.3   110  PHE110      0.1771
    101  C        -27.0900    4.0200   44.8140 C.2   110  PHE110      0.2620
    102  O        -26.8330    5.1470   45.1910 O.2   110  PHE110     -0.2715
    103  CB       -29.4600    4.0080   43.9910 C.3   110  PHE110      0.0574
    104  CG       -29.0540    3.7310   42.5850 C.ar  110  PHE110     -0.0200
    105  CD1      -29.4260    2.5420   41.9490 C.ar  110  PHE110     -0.0042
    106  CD2      -28.2220    4.6180   41.9100 C.ar  110  PHE110     -0.0042
    107  CE1      -29.0140    2.2680   40.6600 C.ar  110  PHE110     -0.0003
    108  CE2      -27.8050    4.3500   40.6190 C.ar  110  PHE110     -0.0003
    109  CZ       -28.2110    3.1830   39.9920 C.ar  110  PHE110     -0.0000
    110  N        -26.1820    3.2320   44.2430 N.am  111  PHE111     -0.1960
    111  CA       -24.7800    3.6270   44.1320 C.3   111  PHE111      0.1771
    112  C        -24.1060    2.8720   43.0100 C.2   111  PHE111      0.2619
    113  O        -23.9140    1.6680   43.1140 O.2   111  PHE111     -0.2715
    114  CB       -24.0480    3.3700   45.4370 C.3   111  PHE111      0.0574
    115  CG       -22.6570    3.9340   45.4730 C.ar  111  PHE111     -0.0200
    116  CD1      -22.4540    5.2730   45.7340 C.ar  111  PHE111     -0.0042
    117  CD2      -21.5560    3.1200   45.2880 C.ar  111  PHE111     -0.0042
    118  CE1      -21.1790    5.8060   45.7760 C.ar  111  PHE111     -0.0003
    119  CE2      -20.2740    3.6410   45.3320 C.ar  111  PHE111     -0.0003
    120  CZ       -20.0830    4.9870   45.5830 C.ar  111  PHE111     -0.0000
    121  N        -23.7730    3.5910   41.9390 N.am  112  GLU112     -0.1963
    122  CA       -22.9970    3.0660   40.8400 C.3   112  GLU112      0.1733
    123  C        -23.6650    1.8430   40.2700 C.2   112  GLU112      0.2616
    124  O        -23.0700    0.7760   40.2340 O.2   112  GLU112     -0.2715
    125  CB       -21.5460    2.8100   41.2660 C.3   112  GLU112      0.0429
    126  CG       -20.8300    4.0890   41.6900 C.3   112  GLU112      0.1163
    127  CD       -19.3720    3.8810   42.0370 C.2   112  GLU112      0.3649
    128  OE1      -18.9850    2.7340   42.3560 O.co2 112  GLU112     -0.2457
    129  OE2      -18.5960    4.8710   42.0150 O.co2 112  GLU112     -0.2457
    130  N        -24.9270    2.0200   39.8560 N.am  113  GLY113     -0.1955
    131  CA       -25.6980    0.9900   39.1760 C.3   113  GLY113      0.1869
    132  C        -26.4830   -0.0140   40.0110 C.2   113  GLY113      0.2309
    133  O        -27.3240   -0.7270   39.4780 O.2   113  GLY113     -0.2863
    134  N        -19.6380    1.5610   52.2500 N.3   121  PHE121     -0.1241
    135  CA       -18.7660    2.7240   52.3530 C.3   121  PHE121      0.1605
    136  C        -17.7460    2.6480   53.4580 C.2   121  PHE121      0.2264
    137  O        -17.3400    3.6840   53.9480 O.2   121  PHE121     -0.2867
    138  CB       -19.6410    3.9600   52.5110 C.3   121  PHE121      0.0534
    139  CG       -20.6120    4.0950   51.4170 C.ar  121  PHE121     -0.0203
    140  CD1      -20.2030    4.5370   50.2020 C.ar  121  PHE121     -0.0042
    141  CD2      -21.9170    3.6650   51.5690 C.ar  121  PHE121     -0.0042
    142  CE1      -21.1040    4.6490   49.1550 C.ar  121  PHE121     -0.0003
    143  CE2      -22.8160    3.7700   50.5200 C.ar  121  PHE121     -0.0003
    144  CZ       -22.4070    4.2640   49.3120 C.ar  121  PHE121     -0.0000
    145  N        -14.2170    4.5720   53.2300 N.3   124  LEU124     -0.1245
    146  CA       -14.2300    5.9730   53.6450 C.3   124  LEU124      0.1561
    147  C        -13.8790    5.9800   55.1070 C.2   124  LEU124      0.2260
    148  O        -13.9270    4.9600   55.7630 O.2   124  LEU124     -0.2867
    149  CB       -15.6000    6.6110   53.4710 C.3   124  LEU124      0.0270
    150  CG       -16.1840    6.6210   52.0780 C.3   124  LEU124      0.0019
    151  CD1      -17.5790    7.2240   52.0760 C.3   124  LEU124      0.0001
    152  CD2      -15.2430    7.3500   51.1390 C.3   124  LEU124      0.0001
    153  N        -20.6250    9.0410   60.3940 N.3   129  LEU129     -0.1231
    154  CA       -21.2320    9.9820   59.4950 C.3   129  LEU129      0.1693
    155  C        -22.1090    9.2420   58.5200 C.2   129  LEU129      0.2591
    156  O        -23.2330    9.6470   58.2820 O.2   129  LEU129     -0.2718
    157  CB       -20.1650   10.7160   58.7160 C.3   129  LEU129      0.0284
    158  CG       -20.6260   11.8160   57.7680 C.3   129  LEU129      0.0019
    159  CD1      -21.1500   12.9880   58.5890 C.3   129  LEU129      0.0001
    160  CD2      -19.4730   12.2130   56.8580 C.3   129  LEU129      0.0001
    161  N        -21.5960    8.1450   57.9790 N.am  130  ILE130     -0.1980
    162  CA       -22.3850    7.3130   57.0890 C.3   130  ILE130      0.1595
    163  C        -23.6690    6.8890   57.7940 C.2   130  ILE130      0.2287
    164  O        -24.7530    7.0220   57.2020 O.2   130  ILE130     -0.2864
    165  CB       -21.5970    6.0800   56.5680 C.3   130  ILE130      0.0276
    166  CG1      -20.3590    6.5040   55.7500 C.3   130  ILE130      0.0022
    167  CG2      -22.4410    5.2240   55.6480 C.3   130  ILE130      0.0022
    168  CD1      -20.5870    7.5470   54.6750 C.3   130  ILE130      0.0001
    169  N        -26.0530    9.7090   58.0430 N.3   133  ILE133     -0.1231
    170  CA       -26.6060   10.0150   56.7000 C.3   133  ILE133      0.1692
    171  C        -27.7180    9.0340   56.3570 C.2   133  ILE133      0.2592
    172  O        -28.7630    9.4350   55.8730 O.2   133  ILE133     -0.2718
    173  CB       -25.5180    9.9470   55.5790 C.3   133  ILE133      0.0266
    174  CG1      -24.3730   10.9720   55.8350 C.3   133  ILE133      0.0019
    175  CG2      -26.1560   10.0360   54.1860 C.3   133  ILE133      0.0020
    176  CD1      -24.4060   12.2530   55.0480 C.3   133  ILE133      0.0001
    177  N        -27.4550    7.7530   56.6080 N.am  134  PHE134     -0.1976
    178  CA       -28.4580    6.6840   56.4310 C.3   134  PHE134      0.1639
    179  C        -29.6840    6.8650   57.3120 C.2   134  PHE134      0.2290
    180  O        -30.7760    6.7540   56.8020 O.2   134  PHE134     -0.2864
    181  CB       -27.8590    5.2800   56.6200 C.3   134  PHE134      0.0560
    182  CG       -27.3050    4.6940   55.3490 C.ar  134  PHE134     -0.0200
    183  CD1      -26.1680    5.2340   54.7420 C.ar  134  PHE134     -0.0042
    184  CD2      -27.9160    3.6060   54.7370 C.ar  134  PHE134     -0.0042
    185  CE1      -25.6670    4.6810   53.5560 C.ar  134  PHE134     -0.0003
    186  CE2      -27.4020    3.0540   53.5640 C.ar  134  PHE134     -0.0003
    187  CZ       -26.2870    3.5940   52.9710 C.ar  134  PHE134     -0.0000
    188  N        -24.8940   17.6430   59.1750 N.3   208  LEU208     -0.1231
    189  CA       -24.5440   16.5000   58.3080 C.3   208  LEU208      0.1693
    190  C        -23.5580   16.8850   57.1980 C.2   208  LEU208      0.2592
    191  O        -22.6610   16.0930   56.8210 O.2   208  LEU208     -0.2718
    192  CB       -25.8070   15.9170   57.6720 C.3   208  LEU208      0.0284
    193  CG       -26.7560   15.2430   58.6640 C.3   208  LEU208      0.0019
    194  CD1      -28.2000   15.2680   58.1870 C.3   208  LEU208      0.0001
    195  CD2      -26.2920   13.8170   58.9490 C.3   208  LEU208      0.0001
    196  N        -23.7280   18.1060   56.6810 N.am  209  CYS209     -0.1970
    197  CA       -22.9860   18.6030   55.5070 C.3   209  CYS209      0.1712
    198  C        -21.7310   19.4150   55.8590 C.2   209  CYS209      0.2296
    199  O        -21.2310   20.1670   55.0240 O.2   209  CYS209     -0.2864
    200  CB       -23.9280   19.4310   54.6060 C.3   209  CYS209      0.0983
    201  SG       -25.2560   18.4500   53.8510 S.3   209  CYS209     -0.0798
    202  N        -17.0020   16.9540   54.8570 N.3   213  VAL213     -0.1245
    203  CA       -17.2820   17.2930   53.4590 C.3   213  VAL213      0.1561
    204  C        -17.1240   18.8050   53.3250 C.2   213  VAL213      0.2260
    205  O        -17.9180   19.5780   53.8700 O.2   213  VAL213     -0.2867
    206  CB       -18.6800   16.8180   53.0020 C.3   213  VAL213      0.0252
    207  CG1      -18.8910   17.1020   51.5290 C.3   213  VAL213      0.0019
    208  CG2      -18.8530   15.3270   53.2340 C.3   213  VAL213      0.0019
@<TRIPOS>BOND
     1     4     3    2
     2     3     2    1
     3     3    10   am
     4     2     1    1
     5     2     5    1
     6    12    11    1
     7    12    13    2
     8    11    10    1
     9    11    14    1
    10     6     5    1
    11     6     7    1
    12   131   130    1
    13   131   132    1
    14    17    15    1
    15   133   132    2
    16    14    15    1
    17   130   123   am
    18   109   108   ar
    19   109   107   ar
    20    15    16    1
    21   124   123    2
    22     9     7   am
    23   123   122    1
    24     7     8    2
    25   108   106   ar
    26    46    44   ar
    27    46    47   ar
    28   107   105   ar
    29   122   125    1
    30   122   121    1
    31    44    43   ar
    32   125   126    1
    33    56    57    1
    34   126   127    1
    35    47    45   ar
    36   106   104   ar
    37   121   112   am
    38   105   104   ar
    39    57    58    1
    40    57    60    1
    41   129   127   ar
    42   127   128   ar
    43    59    58    2
    44    39    38    1
    45    39    40    1
    46    39    42    1
    47    43    45   ar
    48    43    42    1
    49    41    40    2
    50   104   103    1
    51    40    48   am
    52   112   113    2
    53   112   111    1
    54    50    51    2
    55    50    49    1
    56    48    49    1
    57   103   100    1
    58   111   110    1
    59   111   114    1
    60   110   101   am
    61    49    52    1
    62    91    90    1
    63   101   100    1
    64   101   102    2
    65   100    99    1
    66   117   119   ar
    67   117   115   ar
    68   119   120   ar
    69   114   115    1
    70   115   116   ar
    71    32    33    1
    72   120   118   ar
    73    35    34    2
    74   116   118   ar
    75    90    89    1
    76    75    73    1
    77    34    33    1
    78    52    53    1
    79    33    36    1
    80    99    94   am
    81    21    20    2
    82    74    73    1
    83    20    19    1
    84    73    70    1
    85    55    53    1
    86    95    94    2
    87    53    54    1
    88    94    93    1
    89    70    69    1
    90    70    71    1
    91    89    88    1
    92    36    37    1
    93    84    85    1
    94    85    88    1
    95    85    86    1
    96    72    71    2
    97    87    86    2
    98    18    19    1
    99    71    76   am
   100    19    22    1
   101    93    96    1
   102    93    92    1
   103    61    62    1
   104    98    96    1
   105   142   144   ar
   106   142   140   ar
   107   144   143   ar
   108    22    23    1
   109    62    63    1
   110    62    65    1
   111    96    97    1
   112    76    77    1
   113    67    68    1
   114    67    66    1
   115   140   139   ar
   116    63    64    2
   117    65    66    1
   118   143   141   ar
   119    77    78    1
   120    77    80    1
   121    78    79    2
   122    23    25   ar
   123    23    24   ar
   124    28    25   ar
   125    28    30   ar
   126   152   150    1
   127    25    27   ar
   128   139   141   ar
   129   139   138    1
   130   207   206    1
   131    24    26   ar
   132    30    31   ar
   133    80    81    1
   134   151   150    1
   135   150   149    1
   136   134   135    1
   137   135   138    1
   138   135   136    1
   139    27    26   ar
   140    27    29   ar
   141   187   185   ar
   142   187   186   ar
   143   206   208    1
   144   206   203    1
   145    82    81    1
   146    31    29   ar
   147    81    83    1
   148   145   146    1
   149   204   203    1
   150   204   205    2
   151   136   137    2
   152   203   202    1
   153   149   146    1
   154   185   183   ar
   155   186   184   ar
   156   146   147    1
   157   201   200    1
   158   175   173    1
   159   200   197    1
   160   168   166    1
   161   184   182   ar
   162   183   182   ar
   163   199   198    2
   164   176   174    1
   165   147   148    2
   166   182   181    1
   167   197   198    1
   168   197   196    1
   169   173   174    1
   170   173   170    1
   171   167   165    1
   172   166   165    1
   173   172   171    2
   174   171   177   am
   175   171   170    1
   176   178   177    1
   177   178   181    1
   178   178   179    1
   179   165   162    1
   180   196   190   am
   181   170   169    1
   182   180   179    2
   183   191   190    2
   184   160   158    1
   185   162   163    1
   186   162   161    1
   187   190   189    1
   188   164   163    2
   189   192   189    1
   190   192   193    1
   191   158   159    1
   192   158   157    1
   193   161   155   am
   194   194   193    1
   195   156   155    2
   196   189   188    1
   197   155   154    1
   198   193   195    1
   199   157   154    1
   200   154   153    1
