@<TRIPOS>MOLECULE
tmp/4zjxA00.pdb
 246 240 0 0 0
SMALL
GASTEIGER

@<TRIPOS>ATOM
      1  N         31.0270   10.6150   51.8280 N.3    68  VAL68      -0.1231
      2  CA        30.5190   11.3330   52.9760 C.3    68  VAL68       0.1678
      3  C         29.0560   11.1010   53.2100 C.2    68  VAL68       0.2434
      4  O         28.3320   10.8550   52.2960 O.2    68  VAL68      -0.2733
      5  CB        30.9340   12.8390   52.9460 C.3    68  VAL68       0.0265
      6  CG1       29.7710   13.8340   52.8570 C.3    68  VAL68       0.0020
      7  CG2       31.7220   13.1470   54.1910 C.3    68  VAL68       0.0020
      8  N         28.6510   11.1580   54.5510 N.am   69  PRO69      -0.2718
      9  CA        27.2370   10.8100   54.7680 C.3    69  PRO69       0.1535
     10  C         26.1810   11.7370   54.1790 C.2    69  PRO69       0.2598
     11  O         25.2700   11.2030   53.5400 O.2    69  PRO69      -0.2715
     12  CB        27.1060   10.8040   56.2990 C.3    69  PRO69       0.0310
     13  CG        28.4290   10.4270   56.7590 C.3    69  PRO69       0.0237
     14  CD        29.2520   11.3370   55.9620 C.3    69  PRO69       0.0939
     15  N         26.3360   12.9680   54.4230 N.am   70  VAL70      -0.1978
     16  CA        25.3940   13.9050   53.8650 C.3    70  VAL70       0.1596
     17  C         25.9250   14.3020   52.4680 C.2    70  VAL70       0.2287
     18  O         26.5760   15.3160   52.3260 O.2    70  VAL70      -0.2864
     19  CB        25.1430   15.1460   54.7720 C.3    70  VAL70       0.0276
     20  CG1       24.1200   16.1030   54.1260 C.3    70  VAL70       0.0022
     21  CG2       24.6790   14.7630   56.1940 C.3    70  VAL70       0.0022
     22  N         28.9390   16.3400   43.9820 N.3   159  ASP159     -0.1239
     23  CA        28.0680   16.2270   45.0990 C.3   159  ASP159      0.1674
     24  C         26.9440   17.2450   44.9340 C.2   159  ASP159      0.2266
     25  O         27.1490   18.4500   45.0670 O.2   159  ASP159     -0.2867
     26  CB        28.8110   16.4410   46.4110 C.3   159  ASP159      0.1410
     27  CG        27.9390   16.1430   47.6110 C.2   159  ASP159      0.3668
     28  OD1       26.7050   15.9900   47.4900 O.co2 159  ASP159     -0.2456
     29  OD2       28.4450   16.1330   48.7300 O.co2 159  ASP159     -0.2456
     30  N         24.2760   18.0500   46.5840 N.3   161  ILE161     -0.1231
     31  CA        23.8730   18.8780   47.7210 C.3   161  ILE161      0.1692
     32  C         25.0360   19.6000   48.4370 C.2   161  ILE161      0.2592
     33  O         24.9020   20.0880   49.5670 O.2   161  ILE161     -0.2718
     34  CB        23.0880   18.0730   48.7280 C.3   161  ILE161      0.0266
     35  CG1       23.9310   16.9180   49.2510 C.3   161  ILE161      0.0019
     36  CG2       21.7810   17.6010   48.0630 C.3   161  ILE161      0.0020
     37  CD1       23.3370   16.1200   50.3430 C.3   161  ILE161      0.0001
     38  N         26.1170   19.7960   47.7550 N.am  162  GLN162     -0.1966
     39  CA        27.2130   20.5830   48.3890 C.3   162  GLN162      0.1733
     40  C         27.0460   21.9780   47.8890 C.2   162  GLN162      0.2616
     41  O         27.6130   22.3440   46.8750 O.2   162  GLN162     -0.2715
     42  CB        28.5770   20.0060   47.9940 C.3   162  GLN162      0.0408
     43  CG        29.7050   20.9340   48.3470 C.3   162  GLN162      0.0908
     44  CD        30.9980   20.1840   48.6010 C.2   162  GLN162      0.2608
     45  OE1       31.0440   19.2750   49.3930 O.2   162  GLN162     -0.2717
     46  NE2       32.0530   20.5830   47.9200 N.am  162  GLN162     -0.0878
     47  N         26.2690   22.7950   48.5920 N.am  163  PHE163     -0.1960
     48  CA        26.0180   24.1310   48.1030 C.3   163  PHE163      0.1771
     49  C         27.0750   25.0310   48.7780 C.2   163  PHE163      0.2619
     50  O         27.3640   24.8580   49.9410 O.2   163  PHE163     -0.2715
     51  CB        24.6630   24.5970   48.5140 C.3   163  PHE163      0.0574
     52  CG        23.4810   23.8230   47.8870 C.ar  163  PHE163     -0.0200
     53  CD1       23.6120   23.0040   46.7640 C.ar  163  PHE163     -0.0042
     54  CD2       22.2450   23.8570   48.5160 C.ar  163  PHE163     -0.0042
     55  CE1       22.5210   22.3100   46.2720 C.ar  163  PHE163     -0.0003
     56  CE2       21.1350   23.1590   48.0000 C.ar  163  PHE163     -0.0003
     57  CZ        21.2790   22.4110   46.8740 C.ar  163  PHE163     -0.0000
     58  N         27.5860   26.0120   48.0580 N.am  164  GLU164     -0.1963
     59  CA        28.6410   26.8430   48.6240 C.3   164  GLU164      0.1733
     60  C         28.8990   27.9970   47.7620 C.2   164  GLU164      0.2616
     61  O         28.6060   27.9790   46.5640 O.2   164  GLU164     -0.2715
     62  CB        29.9480   26.0460   48.8340 C.3   164  GLU164      0.0429
     63  CG        30.4670   25.3980   47.5700 C.3   164  GLU164      0.1163
     64  CD        31.7150   24.5550   47.8250 C.2   164  GLU164      0.3649
     65  OE1       32.6760   25.0840   48.4320 O.co2 164  GLU164     -0.2457
     66  OE2       31.7050   23.3690   47.4300 O.co2 164  GLU164     -0.2457
     67  N         29.5820   28.9520   48.3470 N.am  165  CYS165     -0.1968
     68  CA        29.8860   30.1950   47.7090 C.3   165  CYS165      0.1712
     69  C         31.4390   30.2390   47.4690 C.2   165  CYS165      0.2296
     70  O         32.1990   30.3410   48.4360 O.2   165  CYS165     -0.2864
     71  CB        29.3950   31.2230   48.7000 C.3   165  CYS165      0.0983
     72  SG        29.2990   32.8270   48.0820 S.3   165  CYS165     -0.0798
     73  N         16.4720   19.8300   51.9410 N.3   194  PHE194     -0.1241
     74  CA        16.9180   19.0010   53.0800 C.3   194  PHE194      0.1605
     75  C         15.7650   18.7870   53.9970 C.2   194  PHE194      0.2264
     76  O         14.9290   19.6530   54.1110 O.2   194  PHE194     -0.2867
     77  CB        18.0370   19.6850   53.8540 C.3   194  PHE194      0.0534
     78  CG        19.2930   19.8290   53.0590 C.ar  194  PHE194     -0.0203
     79  CD1       19.4710   20.9290   52.2270 C.ar  194  PHE194     -0.0042
     80  CD2       20.2780   18.8680   53.1320 C.ar  194  PHE194     -0.0042
     81  CE1       20.6230   21.0800   51.4730 C.ar  194  PHE194     -0.0003
     82  CE2       21.4320   18.9870   52.3670 C.ar  194  PHE194     -0.0003
     83  CZ        21.5900   20.0990   51.5330 C.ar  194  PHE194     -0.0000
     84  N         13.1220   22.0560   54.3740 N.3   215  THR215     -0.1218
     85  CA        13.6640   23.3680   54.2520 C.3   215  THR215      0.1862
     86  C         13.1380   24.0330   53.0000 C.2   215  THR215      0.2287
     87  O         13.1610   23.4790   51.8660 O.2   215  THR215     -0.2866
     88  CB        15.2020   23.3130   54.1960 C.3   215  THR215      0.1770
     89  OG1       15.6410   22.6400   55.3720 O.3   215  THR215     -0.2211
     90  CG2       15.8050   24.6720   54.1650 C.3   215  THR215      0.0375
     91  N         17.6670   28.4250   51.9000 N.3   220  THR220     -0.1218
     92  CA        18.9740   27.8990   51.5340 C.3   220  THR220      0.1862
     93  C         19.7950   28.8160   50.5810 C.2   220  THR220      0.2287
     94  O         21.0590   28.9930   50.7040 O.2   220  THR220     -0.2866
     95  CB        18.7870   26.5210   50.8580 C.3   220  THR220      0.1770
     96  OG1       17.9380   25.7270   51.6750 O.3   220  THR220     -0.2211
     97  CG2       20.1340   25.8550   50.6200 C.3   220  THR220      0.0375
     98  N         21.0150   31.9620   52.4250 N.3   223  HIS223     -0.1226
     99  CA        22.1990   31.6100   53.2470 C.3   223  HIS223      0.1752
    100  C         23.4790   31.7900   52.4650 C.2   223  HIS223      0.2595
    101  O         24.4130   32.4980   52.9040 O.2   223  HIS223     -0.2718
    102  CB        22.0510   30.1700   53.7350 C.3   223  HIS223      0.0759
    103  CG        23.2180   29.6540   54.5040 C.ar  223  HIS223      0.0818
    104  ND1       23.2100   29.5210   55.8820 N.ar  223  HIS223     -0.2268
    105  CD2       24.4260   29.1770   54.0850 C.ar  223  HIS223      0.1154
    106  CE1       24.3860   29.0330   56.2770 C.ar  223  HIS223      0.1986
    107  NE2       25.1260   28.8130   55.2080 N.ar  223  HIS223     -0.2212
    108  N         23.4580   31.2550   51.2540 N.am  224  GLU224     -0.1979
    109  CA        24.5280   31.4020   50.3230 C.3   224  GLU224      0.1602
    110  C         24.7180   32.8620   49.8900 C.2   224  GLU224      0.2287
    111  O         25.8650   33.3260   49.7830 O.2   224  GLU224     -0.2864
    112  CB        24.3880   30.4440   49.1560 C.3   224  GLU224      0.0415
    113  CG        24.4750   28.9660   49.5870 C.3   224  GLU224      0.1163
    114  CD        25.7510   28.6250   50.4340 C.2   224  GLU224      0.3649
    115  OE1       26.8380   29.2460   50.1850 O.co2 224  GLU224     -0.2457
    116  OE2       25.6660   27.7170   51.3280 O.co2 224  GLU224     -0.2457
    117  N         26.4930   34.7200   52.6450 N.3   227  HIS227     -0.1241
    118  CA        27.9800   34.4820   52.5350 C.3   227  HIS227      0.1621
    119  C         28.5460   35.3690   51.4310 C.2   227  HIS227      0.2264
    120  O         29.6600   35.9240   51.5680 O.2   227  HIS227     -0.2867
    121  CB        28.3250   33.0130   52.1390 C.3   227  HIS227      0.0745
    122  CG        28.2320   32.0230   53.2510 C.ar  227  HIS227      0.0817
    123  ND1       28.9390   32.1510   54.4140 N.ar  227  HIS227     -0.2268
    124  CD2       27.5800   30.8380   53.3450 C.ar  227  HIS227      0.1154
    125  CE1       28.6630   31.1370   55.2200 C.ar  227  HIS227      0.1986
    126  NE2       27.9010   30.2850   54.5670 N.ar  227  HIS227     -0.2212
    127  N         38.1840   30.9050   57.5300 N.3   239  PRO239     -0.2116
    128  CA        37.5750   29.6990   58.0940 C.3   239  PRO239      0.1372
    129  C         38.3860   28.9740   59.2040 C.2   239  PRO239      0.2244
    130  O         37.8100   28.1510   59.9070 O.2   239  PRO239     -0.2868
    131  CB        37.3660   28.7890   56.8790 C.3   239  PRO239      0.0268
    132  CG        38.2120   29.4090   55.7870 C.3   239  PRO239      0.0207
    133  CD        38.2120   30.8850   56.0630 C.3   239  PRO239      0.0892
    134  N         32.6460   22.6770   69.3880 N.3   245  VAL245     -0.1245
    135  CA        31.2490   22.3530   69.7020 C.3   245  VAL245      0.1561
    136  C         31.1340   21.5410   71.0140 C.2   245  VAL245      0.2260
    137  O         31.5240   20.3750   71.0560 O.2   245  VAL245     -0.2867
    138  CB        30.5780   21.6280   68.5000 C.3   245  VAL245      0.0252
    139  CG1       29.1460   21.1980   68.8240 C.3   245  VAL245      0.0019
    140  CG2       30.6140   22.5540   67.2900 C.3   245  VAL245      0.0019
    141  N         35.9240   15.8040   68.1680 N.3   249  GLY249     -0.1210
    142  CA        36.5790   17.0670   67.7440 C.3   249  GLY249      0.1956
    143  C         35.7480   17.9470   66.7940 C.2   249  GLY249      0.2612
    144  O         36.2890   18.5920   65.9090 O.2   249  GLY249     -0.2717
    145  N         34.4310   17.9490   66.9870 N.am  250  LEU250     -0.1965
    146  CA        33.4770   18.7600   66.2030 C.3   250  LEU250      0.1728
    147  C         33.6890   20.2550   66.3680 C.2   250  LEU250      0.2616
    148  O         33.6670   20.7960   67.4800 O.2   250  LEU250     -0.2715
    149  CB        32.0320   18.4600   66.6610 C.3   250  LEU250      0.0311
    150  CG        31.4630   17.0610   66.3860 C.3   250  LEU250      0.0022
    151  CD1       30.1500   16.8510   67.1170 C.3   250  LEU250      0.0001
    152  CD2       31.2910   16.8310   64.8840 C.3   250  LEU250      0.0001
    153  N         33.8240   20.9520   65.2620 N.am  251  GLU251     -0.1963
    154  CA        34.0080   22.4020   65.3250 C.3   251  GLU251      0.1733
    155  C         33.0590   23.0600   64.3230 C.2   251  GLU251      0.2616
    156  O         32.5090   22.3990   63.4380 O.2   251  GLU251     -0.2715
    157  CB        35.4410   22.7370   64.9770 C.3   251  GLU251      0.0429
    158  CG        36.4230   22.2690   66.0360 C.3   251  GLU251      0.1163
    159  CD        37.8850   22.4860   65.6750 C.2   251  GLU251      0.3649
    160  OE1       38.2110   22.5990   64.4720 O.co2 251  GLU251     -0.2457
    161  OE2       38.7070   22.5250   66.6150 O.co2 251  GLU251     -0.2457
    162  N         32.8760   24.3590   64.4780 N.am  252  VAL252     -0.1977
    163  CA        32.1200   25.1040   63.4900 C.3   252  VAL252      0.1596
    164  C         32.7710   26.4380   63.2500 C.2   252  VAL252      0.2287
    165  O         33.1000   27.0990   64.1820 O.2   252  VAL252     -0.2864
    166  CB        30.6720   25.3090   63.9970 C.3   252  VAL252      0.0276
    167  CG1       30.6240   25.8800   65.4000 C.3   252  VAL252      0.0022
    168  CG2       29.8730   26.0910   63.0050 C.3   252  VAL252      0.0022
    169  N         30.1850   30.6940   59.6600 N.3   256  GLU256     -0.1245
    170  CA        28.8580   29.9750   59.6030 C.3   256  GLU256      0.1567
    171  C         27.8420   30.3680   60.6630 C.2   256  GLU256      0.2260
    172  O         26.6690   30.6710   60.3440 O.2   256  GLU256     -0.2867
    173  CB        29.0750   28.4580   59.4960 C.3   256  GLU256      0.0388
    174  CG        29.6330   28.0180   58.1340 C.3   256  GLU256      0.1160
    175  CD        28.6760   28.1350   56.9060 C.2   256  GLU256      0.3649
    176  OE1       27.5360   28.5920   57.1340 O.co2 256  GLU256     -0.2457
    177  OE2       29.1530   27.6930   55.8540 O.co2 256  GLU256     -0.2457
    178  N         15.2490   24.8850   60.6370 N.3   357  ARG357     -0.1245
    179  CA        16.1000   24.5010   61.7500 C.3   357  ARG357      0.1563
    180  C         16.3050   25.7040   62.6430 C.2   357  ARG357      0.2260
    181  O         16.3640   26.8350   62.1840 O.2   357  ARG357     -0.2867
    182  CB        17.4210   23.9980   61.1950 C.3   357  ARG357      0.0307
    183  CG        18.2410   25.0930   60.5400 C.3   357  ARG357      0.0489
    184  CD        19.4250   24.4240   59.8480 C.3   357  ARG357      0.2205
    185  NE        20.1350   25.3810   59.0110 N.pl3 357  ARG357     -0.0865
    186  CZ        21.3050   25.1840   58.3900 C.cat 357  ARG357      0.5346
    187  NH1       21.9530   24.0360   58.4560 N.pl3 357  ARG357      0.1354
    188  NH2       21.7690   26.1400   57.6140 N.pl3 357  ARG357      0.1354
    189  N         22.3310   26.2640   63.3260 N.3   360  TYR360     -0.1227
    190  CA        23.1980   25.7420   62.2940 C.3   360  TYR360      0.1736
    191  C         23.7450   24.3840   62.6990 C.2   360  TYR360      0.2595
    192  O         24.0980   23.5610   61.8610 O.2   360  TYR360     -0.2718
    193  CB        24.3640   26.6740   62.1010 C.3   360  TYR360      0.0548
    194  CG        25.2230   26.3130   60.9760 C.ar  360  TYR360     -0.0200
    195  CD1       24.8010   26.5430   59.6650 C.ar  360  TYR360     -0.0009
    196  CD2       26.5100   25.8260   61.1970 C.ar  360  TYR360     -0.0009
    197  CE1       25.6140   26.2040   58.5840 C.ar  360  TYR360      0.0417
    198  CE2       27.3210   25.4750   60.1340 C.ar  360  TYR360      0.0417
    199  CZ        26.9240   25.7060   58.8550 C.ar  360  TYR360      0.1957
    200  OH        27.7750   25.2940   57.8610 O.3   360  TYR360     -0.2866
    201  N         23.7730   24.1080   63.9720 N.am  361  LEU361     -0.1966
    202  CA        24.4660   22.8840   64.4720 C.3   361  LEU361      0.1728
    203  C         23.5690   21.6620   64.5190 C.2   361  LEU361      0.2616
    204  O         23.3750   21.0770   65.5400 O.2   361  LEU361     -0.2715
    205  CB        25.0230   23.1010   65.8500 C.3   361  LEU361      0.0311
    206  CG        26.0300   24.2560   65.9110 C.3   361  LEU361      0.0022
    207  CD1       26.3150   24.6440   67.3370 C.3   361  LEU361      0.0001
    208  CD2       27.2900   23.8060   65.1660 C.3   361  LEU361      0.0001
    209  N         22.9730   21.3170   63.4100 N.am  362  ASN362     -0.1958
    210  CA        22.0470   20.2000   63.4390 C.3   362  ASN362      0.1819
    211  C         22.4780   19.1120   62.5130 C.2   362  ASN362      0.2621
    212  O         23.2500   19.3710   61.5840 O.2   362  ASN362     -0.2715
    213  CB        20.6950   20.6570   62.9950 C.3   362  ASN362      0.1195
    214  CG        20.6390   21.0550   61.5530 C.2   362  ASN362      0.2630
    215  OD1       21.5560   21.6230   60.9930 O.2   362  ASN362     -0.2716
    216  ND2       19.4950   20.8820   60.9820 N.am  362  ASN362     -0.0877
    217  N         21.9330   17.9170   62.7240 N.am  363  PHE363     -0.1960
    218  CA        22.1810   16.7880   61.8590 C.3   363  PHE363      0.1771
    219  C         21.0650   16.6370   60.8390 C.2   363  PHE363      0.2619
    220  O         19.9430   16.2780   61.1700 O.2   363  PHE363     -0.2715
    221  CB        22.3740   15.5250   62.6650 C.3   363  PHE363      0.0574
    222  CG        23.6190   15.5530   63.5220 C.ar  363  PHE363     -0.0200
    223  CD1       24.8270   15.1710   63.0090 C.ar  363  PHE363     -0.0042
    224  CD2       23.5570   15.9930   64.8050 C.ar  363  PHE363     -0.0042
    225  CE1       25.9810   15.2050   63.7940 C.ar  363  PHE363     -0.0003
    226  CE2       24.6870   16.0960   65.5870 C.ar  363  PHE363     -0.0003
    227  CZ        25.9100   15.6670   65.0810 C.ar  363  PHE363     -0.0000
    228  N         21.4080   16.8710   59.5700 N.am  364  ASP364     -0.1971
    229  CA        20.4750   16.6850   58.4440 C.3   364  ASP364      0.1709
    230  C         19.9350   15.2580   58.3980 C.2   364  ASP364      0.2293
    231  O         20.6390   14.2810   58.7210 O.2   364  ASP364     -0.2864
    232  CB        21.1430   17.1190   57.1440 C.3   364  ASP364      0.1436
    233  CG        21.8230   18.4860   57.2800 C.2   364  ASP364      0.3671
    234  OD1       21.0670   19.4620   57.1700 O.co2 364  ASP364     -0.2456
    235  OD2       23.0810   18.5610   57.5360 O.co2 364  ASP364     -0.2456
    236  N         25.8970    8.5960   60.4870 N.3   417  PHE417     -0.1241
    237  CA        26.9550    9.4990   61.0010 C.3   417  PHE417      0.1605
    238  C         28.0440    8.7880   61.8590 C.2   417  PHE417      0.2264
    239  O         29.2530    9.0910   61.7280 O.2   417  PHE417     -0.2867
    240  CB        26.3430   10.6570   61.7980 C.3   417  PHE417      0.0534
    241  CG        25.5240   11.6450   60.9720 C.ar  417  PHE417     -0.0203
    242  CD1       26.1450   12.7530   60.3400 C.ar  417  PHE417     -0.0042
    243  CD2       24.1270   11.5200   60.8790 C.ar  417  PHE417     -0.0042
    244  CE1       25.4050   13.6860   59.6120 C.ar  417  PHE417     -0.0003
    245  CE2       23.3750   12.4790   60.1660 C.ar  417  PHE417     -0.0003
    246  CZ        24.0180   13.5560   59.5370 C.ar  417  PHE417     -0.0000
@<TRIPOS>BOND
     1    22    23    1
     2    24    25    2
     3    24    23    1
     4    23    26    1
     5    55    53   ar
     6    55    57   ar
     7    26    27    1
     8    61    60    2
     9    30    31    1
    10    53    52   ar
    11    57    56   ar
    12    41    40    2
    13    66    64   ar
    14    69    68    1
    15    69    70    2
    16    28    27   ar
    17    63    64    1
    18    63    62    1
    19    27    29   ar
    20    68    67    1
    21    68    71    1
    22    31    32    1
    23    31    34    1
    24    38    39    1
    25    38    32   am
    26    60    67   am
    27    60    59    1
    28    64    65   ar
    29    52    51    1
    30    52    54   ar
    31    40    39    1
    32    40    47   am
    33    46    44   am
    34    42    43    1
    35    42    39    1
    36    56    54   ar
    37    58    59    1
    38    58    49   am
    39    36    34    1
    40    72    71    1
    41    48    51    1
    42    48    47    1
    43    48    49    1
    44    43    44    1
    45    32    33    2
    46    44    45    2
    47    59    62    1
    48    34    35    1
    49    49    50    2
    50   112   113    1
    51   112   109    1
    52    35    37    1
    53   113   114    1
    54   111   110    2
    55   110   109    1
    56   115   114   ar
    57   109   108    1
    58   114   116   ar
    59    93    94    2
    60    93    92    1
    61    97    95    1
    62    95    92    1
    63    95    96    1
    64   108   100   am
    65   119   120    2
    66   119   118    1
    67    81    83   ar
    68    81    79   ar
    69    83    82   ar
    70    92    91    1
    71     1     2    1
    72    87    86    2
    73    73    74    1
    74   121   118    1
    75   121   122    1
    76    79    78   ar
    77     4     3    2
    78    18    17    2
    79    82    80   ar
    80    98    99    1
    81   100   101    2
    82   100    99    1
    83    17    16    1
    84   118   117    1
    85     6     5    1
    86     5     2    1
    87     5     7    1
    88     2     3    1
    89    86    85    1
    90    78    80   ar
    91    78    77    1
    92    74    77    1
    93    74    75    1
    94     3     8   am
    95    99   102    1
    96   122   124   ar
    97   122   123   ar
    98   124   126   ar
    99    11    10    2
   100   102   103    1
   101    16    15    1
   102    16    19    1
   103    75    76    2
   104   105   103   ar
   105   105   107   ar
   106    20    19    1
   107    90    88    1
   108    10    15   am
   109    10     9    1
   110    88    85    1
   111    88    89    1
   112    85    84    1
   113   123   125   ar
   114   103   104   ar
   115     8     9    1
   116     8    14    1
   117   126   125   ar
   118     9    12    1
   119    19    21    1
   120   107   106   ar
   121   132   133    1
   122   132   131    1
   123   177   175   ar
   124   104   106   ar
   125    14    13    1
   126   133   127    1
   127    12    13    1
   128   131   128    1
   129   175   176   ar
   130   175   174    1
   131   232   233    1
   132   232   229    1
   133   234   233   ar
   134   233   235   ar
   135   127   128    1
   136   188   186    1
   137   200   199    1
   138   128   129    1
   139   174   173    1
   140   186   187    1
   141   186   185    2
   142   230   229    1
   143   230   231    2
   144   229   228    1
   145   197   199   ar
   146   197   195   ar
   147   199   198   ar
   148   185   184    1
   149   129   130    2
   150   173   170    1
   151   246   244   ar
   152   246   245   ar
   153   228   219   am
   154   170   169    1
   155   170   171    1
   156   244   242   ar
   157   195   194   ar
   158   184   183    1
   159   198   196   ar
   160   245   243   ar
   161   242   241   ar
   162   172   171    2
   163   236   237    1
   164   183   182    1
   165   178   179    1
   166   219   220    2
   167   219   218    1
   168   243   241   ar
   169   241   240    1
   170   194   196   ar
   171   194   193    1
   172   216   214   am
   173   215   214    2
   174   237   240    1
   175   237   238    1
   176   182   179    1
   177   214   213    1
   178   212   211    2
   179   239   238    2
   180   179   180    1
   181   218   221    1
   182   218   217    1
   183   192   191    2
   184   193   190    1
   185   181   180    2
   186   190   191    1
   187   190   189    1
   188   211   217   am
   189   211   210    1
   190   221   222    1
   191   191   201   am
   192   213   210    1
   193   168   166    1
   194   223   222   ar
   195   223   225   ar
   196   164   163    1
   197   164   165    2
   198   209   210    1
   199   209   203   am
   200   156   155    2
   201   163   166    1
   202   163   162    1
   203   222   224   ar
   204   225   227   ar
   205   201   202    1
   206   166   167    1
   207   155   162   am
   208   155   154    1
   209   160   159   ar
   210   202   203    1
   211   202   205    1
   212   203   204    2
   213   224   226   ar
   214   152   150    1
   215   157   154    1
   216   157   158    1
   217   227   226   ar
   218   208   206    1
   219   153   154    1
   220   153   147   am
   221   159   158    1
   222   159   161   ar
   223   205   206    1
   224   144   143    2
   225   206   207    1
   226   146   147    1
   227   146   149    1
   228   146   145    1
   229   147   148    2
   230   150   149    1
   231   150   151    1
   232   143   145   am
   233   143   142    1
   234   140   138    1
   235   142   141    1
   236   138   139    1
   237   138   135    1
   238   134   135    1
   239   135   136    1
   240   136   137    2
