@<TRIPOS>MOLECULE
tmp/4zjzB01.pdb
 229 223 0 0 0
SMALL
GASTEIGER

@<TRIPOS>ATOM
      1  N         25.0340    5.1070  -28.7110 N.3   176  SER176     -0.1217
      2  CA        23.5680    5.0460  -28.5460 C.3   176  SER176      0.1889
      3  C         22.9550    5.1470  -29.9710 C.2   176  SER176      0.2288
      4  O         23.2580    6.0740  -30.7090 O.2   176  SER176     -0.2866
      5  CB        23.1110    6.2230  -27.6760 C.3   176  SER176      0.2089
      6  OG        21.6670    6.1330  -27.4290 O.3   176  SER176     -0.2183
      7  N         26.7870   -2.2960  -21.8850 N.3   221  PHE221     -0.1227
      8  CA        25.5710   -1.4490  -21.7520 C.3   221  PHE221      0.1736
      9  C         25.8560   -0.4710  -20.6020 C.2   221  PHE221      0.2595
     10  O         26.4350   -0.8550  -19.5900 O.2   221  PHE221     -0.2718
     11  CB        24.3510   -2.2470  -21.2840 C.3   221  PHE221      0.0547
     12  CG        23.8000   -3.1620  -22.3330 C.ar  221  PHE221     -0.0202
     13  CD1       23.0560   -2.6390  -23.3930 C.ar  221  PHE221     -0.0042
     14  CD2       24.0010   -4.5700  -22.2410 C.ar  221  PHE221     -0.0042
     15  CE1       22.5250   -3.5280  -24.3650 C.ar  221  PHE221     -0.0003
     16  CE2       23.4620   -5.4560  -23.1630 C.ar  221  PHE221     -0.0003
     17  CZ        22.7260   -4.9470  -24.2280 C.ar  221  PHE221     -0.0000
     18  N         25.4610    0.7950  -20.7580 N.am  222  ALA222     -0.1966
     19  CA        25.6130    1.6840  -19.6130 C.3   222  ALA222      0.1728
     20  C         25.0360    1.0950  -18.3320 C.2   222  ALA222      0.2616
     21  O         25.6900    1.1790  -17.2480 O.2   222  ALA222     -0.2715
     22  CB        24.9640    2.9950  -19.8760 C.3   222  ALA222      0.0334
     23  N         23.8860    0.4290  -18.4340 N.am  223  TYR223     -0.1974
     24  CA        23.3210   -0.1810  -17.2070 C.3   223  TYR223      0.1639
     25  C         24.3380   -1.1880  -16.5980 C.2   223  TYR223      0.2290
     26  O         24.6250   -1.1080  -15.3730 O.2   223  TYR223     -0.2864
     27  CB        21.9840   -0.8810  -17.6200 C.3   223  TYR223      0.0560
     28  CG        21.1830   -1.5500  -16.4990 C.ar  223  TYR223     -0.0198
     29  CD1       21.0260   -0.9490  -15.2430 C.ar  223  TYR223     -0.0009
     30  CD2       20.6090   -2.8110  -16.7570 C.ar  223  TYR223     -0.0009
     31  CE1       20.2660   -1.6080  -14.2850 C.ar  223  TYR223      0.0417
     32  CE2       19.8270   -3.4450  -15.7950 C.ar  223  TYR223      0.0417
     33  CZ        19.6760   -2.8270  -14.5820 C.ar  223  TYR223      0.1957
     34  OH        18.9310   -3.5080  -13.5810 O.3   223  TYR223     -0.2866
     35  N         16.1660   -2.5940  -15.3470 N.3   297  ALA297     -0.1231
     36  CA        16.1240   -1.3480  -16.1740 C.3   297  ALA297      0.1694
     37  C         16.1760   -1.7630  -17.6430 C.2   297  ALA297      0.2593
     38  O         16.3150   -2.9460  -17.9920 O.2   297  ALA297     -0.2718
     39  CB        17.3890   -0.3820  -15.8140 C.3   297  ALA297      0.0304
     40  N         16.0640   -0.7580  -18.5160 N.am  298  GLY298     -0.1942
     41  CA        16.3010   -0.9040  -19.9530 C.3   298  GLY298      0.2014
     42  C         14.9300   -0.8700  -20.6800 C.2   298  GLY298      0.2639
     43  O         14.8380   -0.4900  -21.8580 O.2   298  GLY298     -0.2714
     44  N         13.8450   -1.2090  -19.9730 N.am  299  GLU299     -0.1963
     45  CA        12.4710   -1.1110  -20.5110 C.3   299  GLU299      0.1733
     46  C         11.5820   -1.0910  -19.2940 C.2   299  GLU299      0.2616
     47  O         12.0420   -1.4200  -18.1950 O.2   299  GLU299     -0.2715
     48  CB        12.0660   -2.3440  -21.4460 C.3   299  GLU299      0.0429
     49  CG        12.2340   -3.6490  -20.7560 C.3   299  GLU299      0.1163
     50  CD        12.1140   -4.9090  -21.6330 C.2   299  GLU299      0.3649
     51  OE1       11.3650   -4.9090  -22.6250 O.co2 299  GLU299     -0.2457
     52  OE2       12.6670   -5.9580  -21.2770 O.co2 299  GLU299     -0.2457
     53  N         10.3080   -0.7060  -19.4740 N.am  300  ALA300     -0.1977
     54  CA         9.4670   -0.5780  -18.2890 C.3   300  ALA300      0.1597
     55  C          9.1100   -1.9790  -17.7240 C.2   300  ALA300      0.2287
     56  O          8.9030   -2.9330  -18.5140 O.2   300  ALA300     -0.2864
     57  CB         8.1290    0.2280  -18.6580 C.3   300  ALA300      0.0319
     58  N         12.6980   -1.2780  -10.1330 N.3   319  ASP319     -0.1225
     59  CA        12.7350   -0.7140  -11.5420 C.3   319  ASP319      0.1805
     60  C         13.2210    0.7200  -11.4880 C.2   319  ASP319      0.2598
     61  O         12.6930    1.5470  -10.7680 O.2   319  ASP319     -0.2718
     62  CB        11.2870   -0.7830  -12.0610 C.3   319  ASP319      0.1424
     63  CG        11.0740   -0.1760  -13.4450 C.2   319  ASP319      0.3668
     64  OD1       12.0370    0.2020  -14.1450 O.co2 319  ASP319     -0.2456
     65  OD2        9.8750   -0.0800  -13.8490 O.co2 319  ASP319     -0.2456
     66  N         14.2900    1.0210  -12.2300 N.am  320  GLY320     -0.1942
     67  CA        14.6790    2.3840  -12.4060 C.3   320  GLY320      0.2014
     68  C         15.0060    2.6450  -13.8630 C.2   320  GLY320      0.2639
     69  O         15.3380    1.7030  -14.5800 O.2   320  GLY320     -0.2714
     70  N         14.8850    3.9230  -14.2820 N.am  321  ILE321     -0.1963
     71  CA        15.2370    4.3410  -15.6430 C.3   321  ILE321      0.1727
     72  C         16.5530    5.1070  -15.6490 C.2   321  ILE321      0.2617
     73  O         16.8120    5.9740  -14.8690 O.2   321  ILE321     -0.2715
     74  CB        14.0780    5.1310  -16.3370 C.3   321  ILE321      0.0290
     75  CG1       14.5060    5.5680  -17.7480 C.3   321  ILE321      0.0022
     76  CG2       13.6650    6.3590  -15.4810 C.3   321  ILE321      0.0023
     77  CD1       13.4320    6.4120  -18.5300 C.3   321  ILE321      0.0001
     78  N         17.4400    4.6860  -16.5760 N.am  322  GLY322     -0.1940
     79  CA        18.6290    5.3740  -16.9010 C.3   322  GLY322      0.2014
     80  C         18.7790    5.5440  -18.4020 C.2   322  GLY322      0.2640
     81  O         17.9190    5.0880  -19.1700 O.2   322  GLY322     -0.2714
     82  N         19.8740    6.2060  -18.8370 N.am  323  SER323     -0.1935
     83  CA        20.1290    6.2500  -20.2940 C.3   323  SER323      0.2055
     84  C         21.6000    6.2580  -20.4810 C.2   323  SER323      0.2644
     85  O         22.3660    6.5980  -19.5770 O.2   323  SER323     -0.2714
     86  CB        19.4900    7.5320  -20.9290 C.3   323  SER323      0.2130
     87  OG        20.0860    8.7190  -20.3820 O.3   323  SER323     -0.2179
     88  N         22.0270    5.9590  -21.7090 N.am  324  THR324     -0.1936
     89  CA        23.4370    6.1140  -22.0310 C.3   324  THR324      0.2028
     90  C         23.9100    7.5530  -21.7750 C.2   324  THR324      0.2642
     91  O         25.0120    7.7330  -21.2640 O.2   324  THR324     -0.2714
     92  CB        23.6340    5.7050  -23.5000 C.3   324  THR324      0.1808
     93  OG1       23.2510    4.2890  -23.6050 O.3   324  THR324     -0.2208
     94  CG2       25.1550    5.7280  -23.8350 C.3   324  THR324      0.0379
     95  N         23.0760    8.5150  -22.1840 N.am  325  GLU325     -0.1976
     96  CA        23.4390    9.9180  -22.1000 C.3   325  GLU325      0.1602
     97  C         23.5770   10.3330  -20.6280 C.2   325  GLU325      0.2287
     98  O         24.4710   11.1180  -20.3040 O.2   325  GLU325     -0.2864
     99  CB        22.3530   10.7370  -22.7580 C.3   325  GLU325      0.0415
    100  CG        22.4730   10.6520  -24.2850 C.3   325  GLU325      0.1163
    101  CD        21.6610    9.5280  -24.8710 C.2   325  GLU325      0.3649
    102  OE1       21.1740    8.5780  -24.1560 O.co2 325  GLU325     -0.2457
    103  OE2       21.5170    9.5940  -26.1220 O.co2 325  GLU325     -0.2457
    104  N         24.3150    8.2480  -18.2220 N.3   327  LEU327     -0.1231
    105  CA        25.2230    7.1260  -17.7400 C.3   327  LEU327      0.1693
    106  C         24.5700    6.0630  -16.8710 C.2   327  LEU327      0.2592
    107  O         24.8290    4.8580  -17.0360 O.2   327  LEU327     -0.2718
    108  CB        26.4930    7.7160  -17.0500 C.3   327  LEU327      0.0284
    109  CG        27.5300    6.6450  -16.7810 C.3   327  LEU327      0.0019
    110  CD1       27.9840    5.7810  -18.0350 C.3   327  LEU327      0.0001
    111  CD2       28.8120    7.2130  -16.1050 C.3   327  LEU327      0.0001
    112  N         23.7010    6.4210  -15.9060 N.am  328  HIS328     -0.1962
    113  CA        22.9840    5.3970  -15.1700 C.3   328  HIS328      0.1787
    114  C         21.6360    5.9830  -14.6440 C.2   328  HIS328      0.2620
    115  O         21.0760    6.9300  -15.2660 O.2   328  HIS328     -0.2715
    116  CB        23.8450    4.7980  -14.0380 C.3   328  HIS328      0.0785
    117  CG        23.5270    3.3170  -13.7910 C.ar  328  HIS328      0.0821
    118  ND1       22.5320    2.9250  -12.9230 N.ar  328  HIS328     -0.2267
    119  CD2       24.1270    2.1670  -14.2310 C.ar  328  HIS328      0.1154
    120  CE1       22.5010    1.6060  -12.8590 C.ar  328  HIS328      0.1986
    121  NE2       23.4350    1.1130  -13.6890 N.ar  328  HIS328     -0.2212
    122  N         21.0750    5.3280  -13.6290 N.am  329  ILE329     -0.1963
    123  CA        19.6490    5.5600  -13.2710 C.3   329  ILE329      0.1727
    124  C         19.4650    6.8810  -12.5450 C.2   329  ILE329      0.2616
    125  O         20.2240    7.1710  -11.5800 O.2   329  ILE329     -0.2715
    126  CB        19.1020    4.3450  -12.4400 C.3   329  ILE329      0.0290
    127  CG1       18.9210    3.1670  -13.4760 C.3   329  ILE329      0.0022
    128  CG2       17.6870    4.6210  -11.8690 C.3   329  ILE329      0.0023
    129  CD1       18.7770    1.8130  -12.7280 C.3   329  ILE329      0.0001
    130  N         18.4290    7.6320  -12.9400 N.am  330  PHE330     -0.1974
    131  CA        18.2200    8.9860  -12.3330 C.3   330  PHE330      0.1639
    132  C         16.8050    9.0760  -11.7730 C.2   330  PHE330      0.2290
    133  O         16.4530   10.1080  -11.1330 O.2   330  PHE330     -0.2864
    134  CB        18.4190   10.0590  -13.4570 C.3   330  PHE330      0.0560
    135  CG        17.6960    9.7800  -14.7110 C.ar  330  PHE330     -0.0200
    136  CD1       16.2850    9.9980  -14.7760 C.ar  330  PHE330     -0.0042
    137  CD2       18.3260    9.2740  -15.8590 C.ar  330  PHE330     -0.0042
    138  CE1       15.5910    9.7240  -15.9670 C.ar  330  PHE330     -0.0003
    139  CE2       17.6330    9.0160  -17.0810 C.ar  330  PHE330     -0.0003
    140  CZ        16.2440    9.2060  -17.1350 C.ar  330  PHE330     -0.0000
    141  N          8.0230    4.1200  -12.2040 N.3   343  THR343     -0.1218
    142  CA         9.4860    4.0170  -12.1610 C.3   343  THR343      0.1862
    143  C          9.9420    4.7870  -10.9440 C.2   343  THR343      0.2287
    144  O         11.0950    5.2370  -10.8450 O.2   343  THR343     -0.2866
    145  CB        10.1110    4.7230  -13.4240 C.3   343  THR343      0.1770
    146  OG1        9.3570    4.3240  -14.5850 O.3   343  THR343     -0.2211
    147  CG2       11.5290    4.1570  -13.6080 C.3   343  THR343      0.0375
    148  N         15.5500   13.2570  -22.6830 N.3   399  SER399     -0.1217
    149  CA        15.5620   11.7860  -22.7710 C.3   399  SER399      0.1889
    150  C         14.8760   11.1340  -23.9890 C.2   399  SER399      0.2288
    151  O         15.2350    9.9830  -24.3290 O.2   399  SER399     -0.2866
    152  CB        15.0020   11.1120  -21.5210 C.3   399  SER399      0.2089
    153  OG        13.6140   11.2680  -21.6280 O.3   399  SER399     -0.2183
    154  N         11.8060   10.2500  -23.8000 N.3   401  ASP401     -0.1239
    155  CA        10.6440    9.6450  -23.1370 C.3   401  ASP401      0.1674
    156  C          9.5570   10.6810  -22.7570 C.2   401  ASP401      0.2266
    157  O          9.8510   11.8280  -22.5240 O.2   401  ASP401     -0.2867
    158  CB        11.1090    9.0250  -21.8350 C.3   401  ASP401      0.1410
    159  CG        12.0660    7.9030  -22.1080 C.2   401  ASP401      0.3668
    160  OD1       11.6840    6.9050  -22.7780 O.co2 401  ASP401     -0.2456
    161  OD2       13.2120    8.0660  -21.7360 O.co2 401  ASP401     -0.2456
    162  N          6.6280   10.9450  -19.6800 N.3   403  TYR403     -0.1241
    163  CA         6.2400   10.4200  -18.3930 C.3   403  TYR403      0.1605
    164  C          5.0710   11.2520  -17.7730 C.2   403  TYR403      0.2264
    165  O          4.8200   12.3750  -18.1870 O.2   403  TYR403     -0.2867
    166  CB         7.4640   10.6110  -17.4800 C.3   403  TYR403      0.0534
    167  CG         8.2490    9.3270  -17.2730 C.ar  403  TYR403     -0.0201
    168  CD1        7.9070    8.4510  -16.2070 C.ar  403  TYR403     -0.0009
    169  CD2        9.3270    9.0310  -18.1030 C.ar  403  TYR403     -0.0009
    170  CE1        8.6340    7.2270  -15.9870 C.ar  403  TYR403      0.0417
    171  CE2       10.0530    7.7960  -17.9010 C.ar  403  TYR403      0.0417
    172  CZ         9.6670    6.9400  -16.8960 C.ar  403  TYR403      0.1957
    173  OH        10.4020    5.7620  -16.7240 O.3   403  TYR403     -0.2866
    174  N          5.8490    5.7210  -16.7360 N.3   413  TYR413     -0.1241
    175  CA         6.3150    5.8480  -18.1080 C.3   413  TYR413      0.1605
    176  C          5.1230    5.9850  -19.0780 C.2   413  TYR413      0.2264
    177  O          4.1270    5.2130  -18.9640 O.2   413  TYR413     -0.2867
    178  CB         7.0280    4.5390  -18.4410 C.3   413  TYR413      0.0534
    179  CG         7.5680    4.4560  -19.8310 C.ar  413  TYR413     -0.0201
    180  CD1        8.6070    5.3310  -20.2780 C.ar  413  TYR413     -0.0009
    181  CD2        7.0460    3.5310  -20.6830 C.ar  413  TYR413     -0.0009
    182  CE1        9.1040    5.1710  -21.6330 C.ar  413  TYR413      0.0417
    183  CE2        7.4890    3.4180  -21.9820 C.ar  413  TYR413      0.0417
    184  CZ         8.4980    4.2070  -22.4220 C.ar  413  TYR413      0.1957
    185  OH         8.8690    4.0310  -23.7560 O.3   413  TYR413     -0.2866
    186  N          7.8090    6.6520  -25.7940 N.3   416  ARG416     -0.1245
    187  CA         8.8420    7.4410  -26.3310 C.3   416  ARG416      0.1563
    188  C          8.2420    8.5260  -27.1950 C.2   416  ARG416      0.2260
    189  O          7.0650    8.4660  -27.6000 O.2   416  ARG416     -0.2867
    190  CB         9.8570    6.5490  -27.0600 C.3   416  ARG416      0.0307
    191  CG        10.9010    6.0750  -25.9860 C.3   416  ARG416      0.0489
    192  CD        11.9790    5.3700  -26.4760 C.3   416  ARG416      0.2205
    193  NE        12.8160    6.2750  -27.2200 N.pl3 416  ARG416     -0.0865
    194  CZ        13.9620    6.7880  -26.7630 C.cat 416  ARG416      0.5346
    195  NH1       14.4040    6.5280  -25.5230 N.pl3 416  ARG416      0.1354
    196  NH2       14.6640    7.5830  -27.5580 N.pl3 416  ARG416      0.1354
    197  N         12.6000   -0.4950  -27.2890 N.3   422  LYS422     -0.1245
    198  CA        13.5940   -1.1530  -26.3990 C.3   422  LYS422      0.1561
    199  C         13.1300   -2.5660  -26.3560 C.2   422  LYS422      0.2260
    200  O         12.0810   -2.8400  -25.7750 O.2   422  LYS422     -0.2867
    201  CB        13.6190   -0.6030  -24.9440 C.3   422  LYS422      0.0271
    202  CG        14.1190    0.8560  -24.8340 C.3   422  LYS422      0.0035
    203  CD        15.4020    1.2350  -25.4310 C.3   422  LYS422      0.0206
    204  CE        16.6500    0.6960  -24.9100 C.3   422  LYS422      0.1093
    205  NZ        16.9370    0.7650  -23.4130 N.3   422  LYS422     -0.1314
    206  N         15.2990   -4.4420  -23.4260 N.3   425  GLY425     -0.1210
    207  CA        16.1510   -3.3070  -22.9660 C.3   425  GLY425      0.1956
    208  C         17.2020   -2.7360  -23.8890 C.2   425  GLY425      0.2612
    209  O         18.0260   -1.9010  -23.4860 O.2   425  GLY425     -0.2717
    210  N         17.2250   -3.2030  -25.1560 N.am  426  ILE426     -0.1965
    211  CA        18.1880   -2.7900  -26.1350 C.3   426  ILE426      0.1727
    212  C         17.4900   -1.9780  -27.2220 C.2   426  ILE426      0.2616
    213  O         16.4110   -2.3950  -27.6740 O.2   426  ILE426     -0.2715
    214  CB        18.8420   -4.0640  -26.7900 C.3   426  ILE426      0.0290
    215  CG1       19.2450   -5.0320  -25.6620 C.3   426  ILE426      0.0022
    216  CG2       20.0030   -3.6730  -27.6280 C.3   426  ILE426      0.0023
    217  CD1       19.8050   -6.4280  -26.1370 C.3   426  ILE426      0.0001
    218  N         18.1070   -0.8590  -27.6320 N.am  427  TYR427     -0.1974
    219  CA        17.5510   -0.0620  -28.7920 C.3   427  TYR427      0.1639
    220  C         17.3960   -0.8910  -30.0430 C.2   427  TYR427      0.2290
    221  O         18.3440   -1.6000  -30.5040 O.2   427  TYR427     -0.2864
    222  CB        18.4000    1.1230  -29.0830 C.3   427  TYR427      0.0560
    223  CG        18.0940    2.3080  -28.2130 C.ar  427  TYR427     -0.0198
    224  CD1       16.7760    2.7630  -28.0900 C.ar  427  TYR427     -0.0009
    225  CD2       19.1470    3.0040  -27.5560 C.ar  427  TYR427     -0.0009
    226  CE1       16.4620    3.9530  -27.3230 C.ar  427  TYR427      0.0417
    227  CE2       18.8710    4.2160  -26.8410 C.ar  427  TYR427      0.0417
    228  CZ        17.5120    4.6600  -26.7270 C.ar  427  TYR427      0.1957
    229  OH        17.2400    5.7710  -25.9300 O.3   427  TYR427     -0.2866
@<TRIPOS>BOND
     1     4     3    2
     2   221   220    2
     3   220   219    1
     4     3     2    1
     5   222   219    1
     6   222   223    1
     7   219   218    1
     8     1     2    1
     9     2     5    1
    10   223   224   ar
    11   223   225   ar
    12   224   226   ar
    13     5     6    1
    14   213   212    2
    15   218   212   am
    16   216   214    1
    17   189   188    2
    18   196   194    1
    19   225   227   ar
    20   226   228   ar
    21   197   198    1
    22   212   211    1
    23   193   194    2
    24   193   192    1
    25   188   187    1
    26   190   187    1
    27   190   191    1
    28   227   228   ar
    29   214   211    1
    30   214   215    1
    31   194   195    1
    32   228   229    1
    33   192   191    1
    34   198   199    1
    35   198   201    1
    36   199   200    2
    37   187   186    1
    38   217   215    1
    39   211   210    1
    40   103   101   ar
    41   203   204    1
    42   203   202    1
    43   210   208   am
    44   201   202    1
    45   204   205    1
    46   101   100    1
    47   101   102   ar
    48    15    17   ar
    49    15    13   ar
    50   151   150    2
    51   100    99    1
    52    17    16   ar
    53   150   149    1
    54   208   209    2
    55   208   207    1
    56    94    92    1
    57   154   155    1
    58   185   184    1
    59    93    92    1
    60    92    89    1
    61   206   207    1
    62    13    12   ar
    63    16    14   ar
    64   155   156    1
    65   155   158    1
    66   160   159   ar
    67   149   148    1
    68   149   152    1
    69    99    96    1
    70   156   157    2
    71    51    50   ar
    72   184   183   ar
    73   184   182   ar
    74    12    14   ar
    75    12    11    1
    76    95    96    1
    77    95    90   am
    78   159   158    1
    79   159   161   ar
    80    96    97    1
    81    89    90    1
    82    89    88    1
    83   183   181   ar
    84     7     8    1
    85    43    42    2
    86    90    91    2
    87     8    11    1
    88     8     9    1
    89    88    84   am
    90   182   180   ar
    91    50    52   ar
    92    50    49    1
    93   153   152    1
    94    48    49    1
    95    48    45    1
    96    86    87    1
    97    86    83    1
    98    18     9   am
    99    18    19    1
   100   181   179   ar
   101    42    44   am
   102    42    41    1
   103    97    98    2
   104     9    10    2
   105    45    44    1
   106    45    46    1
   107    84    83    1
   108    84    85    2
   109    83    82    1
   110   180   179   ar
   111    41    40    1
   112    22    19    1
   113   179   178    1
   114   162   163    1
   115    19    20    1
   116    53    46   am
   117    53    54    1
   118    46    47    2
   119    81    80    2
   120   176   177    2
   121   176   175    1
   122    82    80   am
   123    57    54    1
   124    77    75    1
   125    40    37   am
   126    56    55    2
   127   178   175    1
   128    23    20   am
   129    23    24    1
   130    80    79    1
   131   163   164    1
   132   163   166    1
   133    20    21    2
   134    54    55    1
   135   104   105    1
   136   165   164    2
   137   175   174    1
   138   169   171   ar
   139   169   167   ar
   140   110   109    1
   141    38    37    2
   142   171   172   ar
   143    75    74    1
   144   105   108    1
   145   105   106    1
   146    37    36    1
   147    27    24    1
   148    27    28    1
   149   166   167    1
   150   167   168   ar
   151    24    25    1
   152   140   139   ar
   153   140   138   ar
   154   139   137   ar
   155   108   109    1
   156   107   106    2
   157    79    78    1
   158   172   173    1
   159   172   170   ar
   160   106   112   am
   161   109   111    1
   162    30    28   ar
   163    30    32   ar
   164    25    26    2
   165    78    72   am
   166    28    29   ar
   167    74    71    1
   168    74    76    1
   169   168   170   ar
   170    36    39    1
   171    36    35    1
   172   138   136   ar
   173   112   113    1
   174   137   135   ar
   175    32    33   ar
   176    72    71    1
   177    72    73    2
   178    71    70    1
   179   115   114    2
   180    29    31   ar
   181   113   114    1
   182   113   116    1
   183   136   135   ar
   184   135   134    1
   185   114   122   am
   186   146   145    1
   187    33    31   ar
   188    33    34    1
   189    69    68    2
   190    70    68   am
   191   119   117   ar
   192   119   121   ar
   193    64    63   ar
   194   116   117    1
   195    68    67    1
   196    65    63   ar
   197   117   118   ar
   198   121   120   ar
   199   122   123    1
   200   147   145    1
   201   127   129    1
   202   127   126    1
   203   134   131    1
   204    63    62    1
   205   145   142    1
   206   123   124    1
   207   123   126    1
   208   130   124   am
   209   130   131    1
   210   118   120   ar
   211   124   125    2
   212   126   128    1
   213    67    66    1
   214   131   132    1
   215    66    60   am
   216   141   142    1
   217   142   143    1
   218    62    59    1
   219   132   133    2
   220    59    60    1
   221    59    58    1
   222    60    61    2
   223   143   144    2
