@<TRIPOS>MOLECULE
tmp/4zk4E01.pdb
 93 92 0 0 0
SMALL
GASTEIGER

@<TRIPOS>ATOM
      1  N         35.5000  -31.1310   40.7680 N.3    98  TYR98      -0.1241
      2  CA        35.3870  -30.7470   42.1870 C.3    98  TYR98       0.1605
      3  C         36.4000  -29.6710   42.6060 C.2    98  TYR98       0.2264
      4  O         36.2850  -29.0920   43.7040 O.2    98  TYR98      -0.2867
      5  CB        35.5550  -31.9660   43.1030 C.3    98  TYR98       0.0534
      6  CG        34.4030  -32.9690   43.1170 C.ar   98  TYR98      -0.0201
      7  CD1       33.2790  -32.8030   42.3250 C.ar   98  TYR98      -0.0009
      8  CD2       34.4350  -34.0730   43.9680 C.ar   98  TYR98      -0.0009
      9  CE1       32.2150  -33.7320   42.3640 C.ar   98  TYR98       0.0417
     10  CE2       33.3940  -34.9950   44.0110 C.ar   98  TYR98       0.0417
     11  CZ        32.2890  -34.8250   43.2060 C.ar   98  TYR98       0.1957
     12  OH        31.2610  -35.7540   43.2630 O.3    98  TYR98      -0.2866
     13  N         29.0380  -36.3170   40.4810 N.3   151  SER151     -0.1202
     14  CA        27.8150  -35.5970   40.7220 C.3   151  SER151      0.2020
     15  C         28.0360  -34.6010   41.8580 C.2   151  SER151      0.2619
     16  O         28.7330  -34.9000   42.8050 O.2   151  SER151     -0.2717
     17  CB        26.6820  -36.5680   41.0870 C.3   151  SER151      0.2103
     18  OG        25.5300  -35.8530   41.4860 O.3   151  SER151     -0.2182
     19  N         27.4170  -33.4330   41.7440 N.am  152  TRP152     -0.1961
     20  CA        27.4470  -32.4620   42.8130 C.3   152  TRP152      0.1771
     21  C         26.4960  -32.8940   43.9330 C.2   152  TRP152      0.2619
     22  O         26.8580  -32.8000   45.1050 O.2   152  TRP152     -0.2715
     23  CB        27.0890  -31.0520   42.3090 C.3   152  TRP152      0.0590
     24  CG        27.5160  -29.9940   43.3440 C.ar  152  TRP152      0.0006
     25  CD1       26.7020  -29.2470   44.1480 C.ar  152  TRP152      0.0946
     26  CD2       28.8510  -29.6500   43.6980 C.ar  152  TRP152      0.0152
     27  NE1       27.4580  -28.4450   44.9770 N.ar  152  TRP152     -0.2442
     28  CE2       28.7800  -28.6890   44.7310 C.ar  152  TRP152      0.0810
     29  CE3       30.0980  -30.0620   43.2500 C.ar  152  TRP152      0.0012
     30  CZ2       29.8990  -28.1300   45.2850 C.ar  152  TRP152      0.0191
     31  CZ3       31.2120  -29.5090   43.8200 C.ar  152  TRP152      0.0001
     32  CH2       31.1090  -28.5510   44.8140 C.ar  152  TRP152      0.0015
     33  N         25.2960  -33.3580   43.5870 N.am  153  VAL153     -0.1977
     34  CA        24.2600  -33.5300   44.5860 C.3   153  VAL153      0.1596
     35  C         23.7340  -34.9510   44.7520 C.2   153  VAL153      0.2287
     36  O         23.0030  -35.1970   45.7010 O.2   153  VAL153     -0.2864
     37  CB        23.0670  -32.6000   44.3010 C.3   153  VAL153      0.0276
     38  CG1       23.5230  -31.1330   44.2770 C.3   153  VAL153      0.0022
     39  CG2       22.3430  -32.9700   42.9840 C.3   153  VAL153      0.0022
     40  N         22.1590  -42.9900   44.2880 N.3   158  GLU158     -0.1245
     41  CA        21.2860  -42.3840   43.2920 C.3   158  GLU158      0.1567
     42  C         21.9090  -42.4300   41.8940 C.2   158  GLU158      0.2260
     43  O         21.2600  -42.8350   40.9270 O.2   158  GLU158     -0.2867
     44  CB        20.9570  -40.9370   43.6860 C.3   158  GLU158      0.0388
     45  CG        19.9070  -40.8650   44.7800 C.3   158  GLU158      0.1160
     46  CD        20.3110  -40.0450   45.9920 C.2   158  GLU158      0.3649
     47  OE1       21.4170  -39.4710   46.0140 O.co2 158  GLU158     -0.2457
     48  OE2       19.5030  -39.9880   46.9360 O.co2 158  GLU158     -0.2457
     49  N         32.1990  -36.9840   52.5350 N.3   193  TYR193     -0.1241
     50  CA        32.4610  -35.5490   52.6930 C.3   193  TYR193      0.1605
     51  C         31.8410  -35.0870   54.0260 C.2   193  TYR193      0.2264
     52  O         30.8260  -35.6300   54.4600 O.2   193  TYR193     -0.2867
     53  CB        31.9000  -34.7450   51.4810 C.3   193  TYR193      0.0534
     54  CG        32.6550  -35.0640   50.1970 C.ar  193  TYR193     -0.0201
     55  CD1       33.8260  -34.3940   49.8800 C.ar  193  TYR193     -0.0009
     56  CD2       32.2450  -36.0880   49.3600 C.ar  193  TYR193     -0.0009
     57  CE1       34.5370  -34.7070   48.7590 C.ar  193  TYR193      0.0417
     58  CE2       32.9550  -36.4100   48.2440 C.ar  193  TYR193      0.0417
     59  CZ        34.0970  -35.7170   47.9470 C.ar  193  TYR193      0.1957
     60  OH        34.8180  -36.0400   46.8340 O.3   193  TYR193     -0.2866
     61  N         30.0140  -32.6420   54.8150 N.3   195  CYS195     -0.1221
     62  CA        28.6970  -32.0140   54.7690 C.3   195  CYS195      0.1808
     63  C         27.5350  -32.9970   54.8850 C.2   195  CYS195      0.2601
     64  O         26.4010  -32.6070   55.1780 O.2   195  CYS195     -0.2717
     65  CB        28.5590  -31.2250   53.4820 C.3   195  CYS195      0.0970
     66  SG        28.5000  -32.3260   52.0360 S.3   195  CYS195     -0.0800
     67  N         27.8060  -34.2740   54.6420 N.am  196  CYS196     -0.1970
     68  CA        26.7490  -35.1830   54.1950 C.3   196  CYS196      0.1712
     69  C         26.9940  -36.6090   54.6470 C.2   196  CYS196      0.2296
     70  O         28.1410  -37.0330   54.7660 O.2   196  CYS196     -0.2864
     71  CB        26.6540  -35.1290   52.6530 C.3   196  CYS196      0.0983
     72  SG        26.7580  -33.4060   52.0210 S.3   196  CYS196     -0.0798
     73  N         26.0910  -39.4760   53.1240 N.3   198  GLU198     -0.1245
     74  CA        26.2280  -40.4670   52.0540 C.3   198  GLU198      0.1567
     75  C         27.6410  -40.5420   51.4330 C.2   198  GLU198      0.2260
     76  O         28.4360  -39.6040   51.4950 O.2   198  GLU198     -0.2867
     77  CB        25.1960  -40.1710   50.9590 C.3   198  GLU198      0.0388
     78  CG        23.7480  -40.5460   51.2870 C.3   198  GLU198      0.1160
     79  CD        22.9980  -39.4810   52.0000 C.2   198  GLU198      0.3649
     80  OE1       23.5950  -38.4630   52.3610 O.co2 198  GLU198     -0.2457
     81  OE2       21.8200  -39.6400   52.1870 O.co2 198  GLU198     -0.2457
     82  N         29.8990  -40.5790   48.1810 N.3   200  TYR200     -0.1241
     83  CA        29.8640  -40.0640   46.7910 C.3   200  TYR200      0.1605
     84  C         30.9990  -40.6080   45.9240 C.2   200  TYR200      0.2264
     85  O         32.1830  -40.4380   46.2400 O.2   200  TYR200     -0.2867
     86  CB        29.9310  -38.5410   46.7630 C.3   200  TYR200      0.0534
     87  CG        28.6810  -37.9060   47.3260 C.ar  200  TYR200     -0.0201
     88  CD1       28.4980  -37.8110   48.6820 C.ar  200  TYR200     -0.0009
     89  CD2       27.6830  -37.4160   46.4900 C.ar  200  TYR200     -0.0009
     90  CE1       27.3520  -37.2520   49.2140 C.ar  200  TYR200      0.0417
     91  CE2       26.5290  -36.8600   47.0070 C.ar  200  TYR200      0.0417
     92  CZ        26.3740  -36.7750   48.3730 C.ar  200  TYR200      0.1957
     93  OH        25.2300  -36.2230   48.9220 O.3   200  TYR200     -0.2866
@<TRIPOS>BOND
     1    13    14    1
     2    14    17    1
     3    14    15    1
     4     1     2    1
     5    43    42    2
     6    17    18    1
     7    19    15   am
     8    19    20    1
     9    15    16    2
    10    42    41    1
    11     2     3    1
    12     2     5    1
    13    23    20    1
    14    23    24    1
    15     7     9   ar
    16     7     6   ar
    17     9    11   ar
    18     3     4    2
    19    20    21    1
    20    39    37    1
    21     5     6    1
    22     6     8   ar
    23    11    12    1
    24    11    10   ar
    25    29    26   ar
    26    29    31   ar
    27    41    44    1
    28    41    40    1
    29    24    26   ar
    30    24    25   ar
    31    33    21   am
    32    33    34    1
    33    44    45    1
    34    26    28   ar
    35    31    32   ar
    36    21    22    2
    37     8    10   ar
    38    25    27   ar
    39    38    37    1
    40    37    34    1
    41    34    35    1
    42    28    27   ar
    43    28    30   ar
    44    35    36    2
    45    45    46    1
    46    32    30   ar
    47    84    85    2
    48    84    83    1
    49    46    47   ar
    50    46    48   ar
    51    89    91   ar
    52    89    87   ar
    53    86    83    1
    54    86    87    1
    55    83    82    1
    56    60    59    1
    57    91    92   ar
    58    87    88   ar
    59    59    58   ar
    60    59    57   ar
    61    58    56   ar
    62    92    93    1
    63    92    90   ar
    64    88    90   ar
    65    57    55   ar
    66    56    54   ar
    67    55    54   ar
    68    54    53    1
    69    77    78    1
    70    77    74    1
    71    78    79    1
    72    75    76    2
    73    75    74    1
    74    53    50    1
    75    79    81   ar
    76    79    80   ar
    77    72    66    1
    78    72    71    1
    79    66    65    1
    80    74    73    1
    81    49    50    1
    82    71    68    1
    83    50    51    1
    84    65    62    1
    85    51    52    2
    86    68    67    1
    87    68    69    1
    88    67    63   am
    89    69    70    2
    90    62    61    1
    91    62    63    1
    92    63    64    2
