@<TRIPOS>MOLECULE
tmp/4zk5A01.pdb
 204 190 0 0 0
SMALL
GASTEIGER

@<TRIPOS>ATOM
      1  N        -19.1810   -4.6230  -12.3170 N.3    13  GLU13      -0.1245
      2  CA       -18.9940   -4.8400  -13.7620 C.3    13  GLU13       0.1567
      3  C        -19.0630   -3.5320  -14.5700 C.2    13  GLU13       0.2260
      4  O        -19.6380   -2.5540  -14.0930 O.2    13  GLU13      -0.2867
      5  CB       -20.0380   -5.8560  -14.3020 C.3    13  GLU13       0.0388
      6  CG       -21.4930   -5.4200  -14.1600 C.3    13  GLU13       0.1160
      7  CD       -22.5470   -6.4390  -14.5470 C.2    13  GLU13       0.3649
      8  OE1      -22.4180   -7.0560  -15.6290 O.co2  13  GLU13      -0.2457
      9  OE2      -23.5270   -6.5850  -13.7810 O.co2  13  GLU13      -0.2457
     10  N        -20.6530   -1.1860  -17.3000 N.3    15  VAL15      -0.1231
     11  CA       -22.0440   -1.0860  -17.7340 C.3    15  VAL15       0.1692
     12  C        -22.2340   -1.1000  -19.2730 C.2    15  VAL15       0.2592
     13  O        -22.5590   -2.1590  -19.8160 O.2    15  VAL15      -0.2718
     14  CB       -22.8360    0.0710  -17.0670 C.3    15  VAL15       0.0266
     15  CG1      -23.3420   -0.3450  -15.6940 C.3    15  VAL15       0.0020
     16  CG2      -22.0230    1.3620  -16.9800 C.3    15  VAL15       0.0020
     17  N        -22.0570    0.0400  -19.9410 N.am   16  GLY16      -0.1957
     18  CA       -22.3340    0.2200  -21.3660 C.3    16  GLY16       0.1869
     19  C        -21.5110   -0.4960  -22.4150 C.2    16  GLY16       0.2309
     20  O        -21.4560   -0.0240  -23.5530 O.2    16  GLY16      -0.2863
     21  N        -19.5860    4.2690  -22.5230 N.3    20  TYR20      -0.1241
     22  CA       -19.2030    5.2730  -21.5260 C.3    20  TYR20       0.1605
     23  C        -17.7320    5.1940  -21.1260 C.2    20  TYR20       0.2264
     24  O        -17.2120    6.1120  -20.4850 O.2    20  TYR20      -0.2867
     25  CB       -20.0950    5.1340  -20.2790 C.3    20  TYR20       0.0534
     26  CG       -21.5690    4.9730  -20.5860 C.ar   20  TYR20      -0.0201
     27  CD1      -22.3330    6.0510  -21.0250 C.ar   20  TYR20      -0.0009
     28  CD2      -22.2030    3.7430  -20.4320 C.ar   20  TYR20      -0.0009
     29  CE1      -23.6920    5.9140  -21.2880 C.ar   20  TYR20       0.0417
     30  CE2      -23.5610    3.5920  -20.7000 C.ar   20  TYR20       0.0417
     31  CZ       -24.3030    4.6830  -21.1250 C.ar   20  TYR20       0.1957
     32  OH       -25.6410    4.5460  -21.3940 O.3    20  TYR20      -0.2866
     33  N        -16.7160    3.1000  -16.9120 N.3    23  VAL23      -0.1245
     34  CA       -17.8520    3.3580  -16.0080 C.3    23  VAL23       0.1561
     35  C        -18.3970    2.0040  -15.5270 C.2    23  VAL23       0.2260
     36  O        -18.7780    1.1500  -16.3360 O.2    23  VAL23      -0.2867
     37  CB       -18.9430    4.2970  -16.6100 C.3    23  VAL23       0.0252
     38  CG1      -20.1550    4.4200  -15.6890 C.3    23  VAL23       0.0019
     39  CG2      -18.3710    5.6790  -16.9000 C.3    23  VAL23       0.0019
     40  N        -20.7230   -0.4900  -12.6110 N.3    25  LYS25      -0.1245
     41  CA       -21.8780   -0.7200  -11.7680 C.3    25  LYS25       0.1561
     42  C        -21.1790   -1.0680  -10.4650 C.2    25  LYS25       0.2260
     43  O        -20.4460   -2.0560  -10.4050 O.2    25  LYS25      -0.2867
     44  CB       -22.6940   -1.9180  -12.2930 C.3    25  LYS25       0.0271
     45  CG       -23.8170   -2.4020  -11.3820 C.3    25  LYS25       0.0035
     46  CD       -24.6140   -3.4900  -12.0820 C.3    25  LYS25       0.0206
     47  CE       -25.6130   -4.1750  -11.1910 C.3    25  LYS25       0.1093
     48  NZ       -26.3450   -5.2330  -11.9350 N.3    25  LYS25      -0.1314
     49  N        -26.8880    0.1110   -5.0390 N.3    34  LEU34      -0.1245
     50  CA       -26.1080    0.2830   -6.2690 C.3    34  LEU34       0.1561
     51  C        -25.7520    1.7440   -6.5230 C.2    34  LEU34       0.2260
     52  O        -26.5360    2.6470   -6.2260 O.2    34  LEU34      -0.2867
     53  CB       -26.8590   -0.2600   -7.5050 C.3    34  LEU34       0.0270
     54  CG       -27.0580   -1.7730   -7.6480 C.3    34  LEU34       0.0019
     55  CD1      -27.9180   -2.0890   -8.8600 C.3    34  LEU34       0.0001
     56  CD2      -25.7420   -2.5020   -7.7370 C.3    34  LEU34       0.0001
     57  N        -23.2070    4.1790   -9.6630 N.3    36  ALA36      -0.1245
     58  CA       -22.3730    4.1210  -10.8640 C.3    36  ALA36       0.1562
     59  C        -21.0550    4.7980  -10.5550 C.2    36  ALA36       0.2260
     60  O        -21.0420    5.8990   -9.9920 O.2    36  ALA36      -0.2867
     61  CB       -23.0510    4.7940  -12.0290 C.3    36  ALA36       0.0290
     62  N        -17.3070    6.0820  -12.0370 N.3    38  LYS38      -0.1245
     63  CA       -16.4540    6.4710  -13.1610 C.3    38  LYS38       0.1561
     64  C        -15.0010    6.3780  -12.6840 C.2    38  LYS38       0.2260
     65  O        -14.5980    7.1110  -11.7750 O.2    38  LYS38      -0.2867
     66  CB       -16.7960    7.8870  -13.6650 C.3    38  LYS38       0.0271
     67  CG       -16.2850    8.1830  -15.0720 C.3    38  LYS38       0.0035
     68  CD       -16.8360    9.4890  -15.6110 C.3    38  LYS38       0.0206
     69  CE       -16.4430    9.7250  -17.0510 C.3    38  LYS38       0.1093
     70  NZ       -17.0410   10.9750  -17.5890 N.3    38  LYS38      -0.1314
     71  N        -14.0520   17.8920  -12.9260 N.3    53  GLU53      -0.1245
     72  CA       -15.1260   16.9750  -13.3250 C.3    53  GLU53       0.1567
     73  C        -15.9130   16.5620  -12.0720 C.2    53  GLU53       0.2260
     74  O        -17.1050   16.2610  -12.1650 O.2    53  GLU53      -0.2867
     75  CB       -14.5700   15.7410  -14.0500 C.3    53  GLU53       0.0388
     76  CG       -15.5910   15.0750  -14.9610 C.3    53  GLU53       0.1160
     77  CD       -15.1640   13.7740  -15.6140 C.2    53  GLU53       0.3649
     78  OE1      -15.9750   12.8200  -15.6130 O.co2  53  GLU53      -0.2457
     79  OE2      -14.0340   13.7130  -16.1520 O.co2  53  GLU53      -0.2457
     80  N        -19.9950   17.7210  -11.1080 N.3    57  LEU57      -0.1245
     81  CA       -20.9520   16.6970  -10.6960 C.3    57  LEU57       0.1561
     82  C        -21.6120   17.0310   -9.3560 C.2    57  LEU57       0.2260
     83  O        -22.8260   16.9060   -9.2600 O.2    57  LEU57      -0.2867
     84  CB       -20.3220   15.2940  -10.6490 C.3    57  LEU57       0.0270
     85  CG       -20.9960   14.1720  -11.4740 C.3    57  LEU57       0.0019
     86  CD1      -20.3690   12.8240  -11.1590 C.3    57  LEU57       0.0001
     87  CD2      -22.5060   14.0750  -11.2180 C.3    57  LEU57       0.0001
     88  N        -28.4320   12.7030  -12.6460 N.3    67  ALA67      -0.1245
     89  CA       -27.9340   11.6290  -11.7820 C.3    67  ALA67       0.1562
     90  C        -27.0290   12.2060  -10.6860 C.2    67  ALA67       0.2260
     91  O        -25.9500   12.7270  -10.9830 O.2    67  ALA67      -0.2867
     92  CB       -27.1960   10.5860  -12.6060 C.3    67  ALA67       0.0290
     93  N        -15.3790    8.1790   -9.1640 N.3    87  LEU87      -0.1245
     94  CA       -16.4230    9.1910   -9.1040 C.3    87  LEU87       0.1561
     95  C        -17.7430    8.4640   -8.9740 C.2    87  LEU87       0.2260
     96  O        -18.1740    7.7810   -9.9050 O.2    87  LEU87      -0.2867
     97  CB       -16.3810   10.0880  -10.3470 C.3    87  LEU87       0.0270
     98  CG       -16.8220   11.5310  -10.1480 C.3    87  LEU87       0.0019
     99  CD1      -16.0870   12.1820   -8.9880 C.3    87  LEU87       0.0001
    100  CD2      -16.6040   12.3320  -11.4090 C.3    87  LEU87       0.0001
    101  N        -21.8350    8.1310   -8.2180 N.3    89  MET89      -0.1230
    102  CA       -23.1160    8.7880   -8.4640 C.3    89  MET89       0.1702
    103  C        -24.2700    7.7780   -8.3790 C.2    89  MET89       0.2592
    104  O        -24.0250    6.5670   -8.3580 O.2    89  MET89      -0.2718
    105  CB       -23.1070    9.4760   -9.8370 C.3    89  MET89       0.0401
    106  CG       -23.1900    8.5040  -10.9930 C.3    89  MET89       0.0596
    107  SD       -22.3560    9.0970  -12.4590 S.3    89  MET89      -0.1393
    108  CE       -20.6350    8.9320  -11.9570 C.3    89  MET89       0.0692
    109  N        -25.5230    8.2740   -8.3800 N.am   90  GLU90      -0.1966
    110  CA       -26.7000    7.4110   -8.3200 C.3    90  GLU90       0.1733
    111  C        -26.7750    6.4910   -9.5270 C.2    90  GLU90       0.2616
    112  O        -26.4160    6.8940  -10.6380 O.2    90  GLU90      -0.2715
    113  CB       -28.0060    8.2020   -8.0880 C.3    90  GLU90       0.0429
    114  CG       -28.5780    8.9280   -9.2950 C.3    90  GLU90       0.1163
    115  CD       -29.9390    9.5570   -9.0710 C.2    90  GLU90       0.3649
    116  OE1      -30.0680   10.7860   -9.2730 O.co2  90  GLU90      -0.2457
    117  OE2      -30.8810    8.8200   -8.7000 O.co2  90  GLU90      -0.2457
    118  N        -27.1590    5.2310   -9.2870 N.am   91  PHE91      -0.1960
    119  CA       -27.2830    4.2390  -10.3450 C.3    91  PHE91       0.1771
    120  C        -28.6650    4.3280  -10.9550 C.2    91  PHE91       0.2620
    121  O        -29.6190    4.5710  -10.2320 O.2    91  PHE91      -0.2715
    122  CB       -26.9900    2.8190   -9.8210 C.3    91  PHE91       0.0574
    123  CG       -26.5950    1.8650  -10.9210 C.ar   91  PHE91      -0.0200
    124  CD1      -25.3660    1.9760  -11.5500 C.ar   91  PHE91      -0.0042
    125  CD2      -27.4570    0.8580  -11.3370 C.ar   91  PHE91      -0.0042
    126  CE1      -25.0150    1.1090  -12.5950 C.ar   91  PHE91      -0.0003
    127  CE2      -27.0990   -0.0190  -12.3670 C.ar   91  PHE91      -0.0003
    128  CZ       -25.8830    0.1150  -12.9910 C.ar   91  PHE91      -0.0000
    129  N        -28.7760    4.1720  -12.2750 N.am   92  CYS92      -0.1954
    130  CA       -30.0420    4.1980  -13.0090 C.3    92  CYS92       0.1843
    131  C        -30.2530    2.8040  -13.6130 C.2    92  CYS92       0.2626
    132  O        -29.6370    2.4570  -14.6220 O.2    92  CYS92      -0.2714
    133  CB       -30.0260    5.2870  -14.0750 C.3    92  CYS92       0.0997
    134  SG       -29.6210    6.9410  -13.4470 S.3    92  CYS92      -0.0797
    135  N        -31.0580    1.9990  -12.9160 N.am   93  GLY93      -0.1940
    136  CA       -31.3340    0.5940  -13.2010 C.3    93  GLY93       0.2014
    137  C        -32.0420    0.2340  -14.4820 C.2    93  GLY93       0.2639
    138  O        -31.9150   -0.9060  -14.9320 O.2    93  GLY93      -0.2714
    139  N        -32.8030    1.1590  -15.0730 N.am   94  ALA94      -0.1963
    140  CA       -33.5280    0.8620  -16.3140 C.3    94  ALA94       0.1728
    141  C        -32.7070    1.0280  -17.6050 C.2    94  ALA94       0.2617
    142  O        -33.1050    0.5330  -18.6630 O.2    94  ALA94      -0.2715
    143  CB       -34.8020    1.6800  -16.3840 C.3    94  ALA94       0.0334
    144  N        -31.5690    1.7050  -17.5010 N.am   95  GLY95      -0.1940
    145  CA       -30.6740    1.9260  -18.6280 C.3    95  GLY95       0.2014
    146  C        -30.9360    3.1980  -19.4040 C.2    95  GLY95       0.2639
    147  O        -31.6640    4.0800  -18.9370 O.2    95  GLY95      -0.2714
    148  N        -30.3200    3.2950  -20.6010 N.am   96  SER96      -0.1949
    149  CA       -30.4220    4.4510  -21.4890 C.3    96  SER96       0.1924
    150  C        -31.6210    4.3690  -22.4270 C.2    96  SER96       0.2314
    151  O        -32.1520    3.2760  -22.6570 O.2    96  SER96      -0.2863
    152  CB       -29.1280    4.6370  -22.2750 C.3    96  SER96       0.2116
    153  OG       -28.8900    3.5690  -23.1730 O.3    96  SER96      -0.2180
    154  N        -31.0770    2.1490  -25.4810 N.3    99  ASP99      -0.1239
    155  CA       -31.3610    0.7490  -25.1910 C.3    99  ASP99       0.1674
    156  C        -32.8580    0.4710  -25.1340 C.2    99  ASP99       0.2266
    157  O        -33.2850   -0.6160  -25.5330 O.2    99  ASP99      -0.2867
    158  CB       -30.6460    0.3040  -23.9130 C.3    99  ASP99       0.1410
    159  CG       -29.1270    0.3430  -24.0140 C.2    99  ASP99       0.3668
    160  OD1      -28.5970    0.2440  -25.1540 O.co2  99  ASP99      -0.2456
    161  OD2      -28.4660    0.4460  -22.9560 O.co2  99  ASP99      -0.2456
    162  N        -30.6250    8.6330  -19.1390 N.3   144  LEU144     -0.1245
    163  CA       -30.9650    7.4020  -18.4240 C.3   144  LEU144      0.1561
    164  C        -32.3320    7.3870  -17.7610 C.2   144  LEU144      0.2260
    165  O        -32.9060    8.4340  -17.4640 O.2   144  LEU144     -0.2867
    166  CB       -29.8820    7.0630  -17.3800 C.3   144  LEU144      0.0270
    167  CG       -28.4240    7.0100  -17.8450 C.3   144  LEU144      0.0019
    168  CD1      -27.5050    6.9330  -16.6780 C.3   144  LEU144      0.0001
    169  CD2      -28.1680    5.8630  -18.8010 C.3   144  LEU144      0.0001
    170  N        -35.7110    2.5950  -12.2340 N.3   147  GLU147     -0.1245
    171  CA       -36.7350    1.5510  -12.0850 C.3   147  GLU147      0.1567
    172  C        -38.1750    2.0970  -12.0810 C.2   147  GLU147      0.2260
    173  O        -39.0670    1.3830  -12.5310 O.2   147  GLU147     -0.2867
    174  CB       -36.4730    0.6660  -10.8530 C.3   147  GLU147      0.0388
    175  CG       -35.4140   -0.4040  -11.0750 C.3   147  GLU147      0.1160
    176  CD       -33.9780   -0.0270  -10.7650 C.2   147  GLU147      0.3649
    177  OE1      -33.7030    1.1730  -10.5360 O.co2 147  GLU147     -0.2457
    178  OE2      -33.1220   -0.9410  -10.7560 O.co2 147  GLU147     -0.2457
    179  N        -26.7650   12.2980  -17.6480 N.3   154  VAL154     -0.1231
    180  CA       -25.4690   11.7900  -17.2210 C.3   154  VAL154      0.1692
    181  C        -24.3220   12.2950  -18.1300 C.2   154  VAL154      0.2592
    182  O        -24.5850   12.8040  -19.2180 O.2   154  VAL154     -0.2718
    183  CB       -25.5640   10.2440  -17.1000 C.3   154  VAL154      0.0266
    184  CG1      -24.9130    9.5010  -18.2730 C.3   154  VAL154      0.0020
    185  CG2      -25.0340    9.7650  -15.7600 C.3   154  VAL154      0.0020
    186  N        -23.0630   12.1730  -17.6480 N.am  155  ASP155     -0.1960
    187  CA       -21.7820   12.5160  -18.2870 C.3   155  ASP155      0.1840
    188  C        -21.4750   14.0100  -18.3460 C.2   155  ASP155      0.2622
    189  O        -22.1010   14.7750  -19.0860 O.2   155  ASP155     -0.2715
    190  CB       -21.5950   11.8780  -19.6870 C.3   155  ASP155      0.1450
    191  CG       -20.1640   11.8940  -20.2120 C.2   155  ASP155      0.3671
    192  OD1      -19.2260   11.9880  -19.3880 O.co2 155  ASP155     -0.2456
    193  OD2      -19.9820   11.7700  -21.4430 O.co2 155  ASP155     -0.2456
    194  N        -20.4430   14.3890  -17.5870 N.am  156  PHE156     -0.1974
    195  CA       -19.8810   15.7330  -17.5170 C.3   156  PHE156      0.1639
    196  C        -18.4130   15.6680  -17.9940 C.2   156  PHE156      0.2290
    197  O        -17.6180   16.5700  -17.7010 O.2   156  PHE156     -0.2864
    198  CB       -19.9740   16.2750  -16.0820 C.3   156  PHE156      0.0560
    199  CG       -21.3590   16.6960  -15.6510 C.ar  156  PHE156     -0.0200
    200  CD1      -21.8450   17.9650  -15.9530 C.ar  156  PHE156     -0.0042
    201  CD2      -22.1630   15.8430  -14.9030 C.ar  156  PHE156     -0.0042
    202  CE1      -23.1130   18.3650  -15.5280 C.ar  156  PHE156     -0.0003
    203  CE2      -23.4360   16.2450  -14.4810 C.ar  156  PHE156     -0.0003
    204  CZ       -23.8970   17.5050  -14.7910 C.ar  156  PHE156     -0.0000
@<TRIPOS>BOND
     1   157   156    2
     2   154   155    1
     3   155   156    1
     4   155   158    1
     5   160   159   ar
     6   159   158    1
     7   159   161   ar
     8    20    19    2
     9   153   152    1
    10   151   150    2
    11    21    22    1
    12   150   149    1
    13    19    18    1
    14   152   149    1
    15    22    23    1
    16    22    25    1
    17   149   148    1
    18   193   191   ar
    19    32    31    1
    20    18    17    1
    21    29    31   ar
    22    29    27   ar
    23    23    24    2
    24    31    30   ar
    25    27    26   ar
    26    30    28   ar
    27   148   146   am
    28    26    28   ar
    29    26    25    1
    30   191   190    1
    31   191   192   ar
    32    17    12   am
    33    13    12    2
    34   190   187    1
    35   146   147    2
    36   146   145    1
    37    12    11    1
    38   182   181    2
    39   162   163    1
    40   189   188    2
    41   169   167    1
    42   142   141    2
    43   145   144    1
    44   163   164    1
    45   163   166    1
    46   188   187    1
    47   188   194   am
    48   187   186    1
    49   184   183    1
    50   181   186   am
    51   181   180    1
    52   196   197    2
    53   196   195    1
    54   167   166    1
    55   167   168    1
    56   164   165    2
    57    11    10    1
    58    11    14    1
    59   179   180    1
    60   141   144   am
    61   141   140    1
    62    70    69    1
    63   194   195    1
    64   195   198    1
    65   180   183    1
    66   183   185    1
    67    14    16    1
    68    14    15    1
    69    69    68    1
    70    33    34    1
    71    39    37    1
    72    37    34    1
    73    37    38    1
    74   143   140    1
    75    36    35    2
    76   140   139    1
    77    79    77   ar
    78   198   199    1
    79    34    35    1
    80   200   199   ar
    81   200   202   ar
    82   199   201   ar
    83     8     7   ar
    84    77    78   ar
    85    77    76    1
    86    68    67    1
    87   202   204   ar
    88   139   137   am
    89    67    66    1
    90    76    75    1
    91   138   137    2
    92   201   203   ar
    93   204   203   ar
    94   132   131    2
    95     3     4    2
    96     3     2    1
    97     7     6    1
    98     7     9   ar
    99   137   136    1
   100     5     6    1
   101     5     2    1
   102   133   134    1
   103   133   130    1
   104    75    72    1
   105     2     1    1
   106    66    63    1
   107   131   130    1
   108   131   135   am
   109    72    71    1
   110    72    73    1
   111   136   135    1
   112    63    64    1
   113    63    62    1
   114   130   129    1
   115   128   126   ar
   116   128   127   ar
   117    64    65    2
   118    88    89    1
   119    40    41    1
   120    92    89    1
   121   126   124   ar
   122   173   172    2
   123   107   108    1
   124   107   106    1
   125   127   125   ar
   126    44    41    1
   127    44    45    1
   128   129   120   am
   129   170   171    1
   130    74    73    2
   131   171   172    1
   132   171   174    1
   133    46    45    1
   134    46    47    1
   135    61    58    1
   136    48    47    1
   137    89    90    1
   138    41    42    1
   139   124   123   ar
   140    85    87    1
   141    85    86    1
   142    85    84    1
   143   100    98    1
   144   125   123   ar
   145    80    81    1
   146   175   174    1
   147   175   176    1
   148   106   105    1
   149    91    90    2
   150   120   119    1
   151   120   121    2
   152   123   122    1
   153    58    59    1
   154    58    57    1
   155   176   178   ar
   156   176   177   ar
   157    81    84    1
   158    81    82    1
   159   112   111    2
   160    59    60    2
   161    42    43    2
   162    97    98    1
   163    97    94    1
   164   119   122    1
   165   119   118    1
   166    98    99    1
   167    96    95    2
   168   105   102    1
   169   111   118   am
   170   111   110    1
   171    82    83    2
   172   114   115    1
   173   114   113    1
   174   116   115   ar
   175    93    94    1
   176    94    95    1
   177   115   117   ar
   178    55    54    1
   179   102   103    1
   180   102   101    1
   181   109   103   am
   182   109   110    1
   183   103   104    2
   184   110   113    1
   185    56    54    1
   186    54    53    1
   187    53    50    1
   188    51    50    1
   189    51    52    2
   190    50    49    1
