@<TRIPOS>MOLECULE
tmp/4zk6B00.pdb
 154 143 0 0 0
SMALL
GASTEIGER

@<TRIPOS>ATOM
      1  N          6.3210    2.5020  -94.5070 N.3    20  HIS20      -0.1241
      2  CA         5.7450    2.5200  -93.1720 C.3    20  HIS20       0.1621
      3  C          6.8430    2.6680  -92.1190 C.2    20  HIS20       0.2264
      4  O          8.0040    2.3150  -92.3380 O.2    20  HIS20      -0.2867
      5  CB         4.9340    1.2420  -92.9150 C.3    20  HIS20       0.0745
      6  CG         4.1790    1.2510  -91.6230 C.ar   20  HIS20       0.0817
      7  ND1        4.7590    0.9180  -90.4180 N.ar   20  HIS20      -0.2268
      8  CD2        2.8930    1.5730  -91.3440 C.ar   20  HIS20       0.1154
      9  CE1        3.8630    1.0310  -89.4540 C.ar   20  HIS20       0.1986
     10  NE2        2.7210    1.4220  -89.9900 N.ar   20  HIS20      -0.2212
     11  N          7.4710    0.8840  -89.7550 N.3    22  TYR22      -0.1241
     12  CA         8.0210   -0.3940  -89.3170 C.3    22  TYR22       0.1605
     13  C          8.9900   -1.0010  -90.3210 C.2    22  TYR22       0.2264
     14  O          9.4870   -2.1080  -90.0850 O.2    22  TYR22      -0.2867
     15  CB         6.9050   -1.4110  -89.0400 C.3    22  TYR22       0.0534
     16  CG         5.9490   -1.0470  -87.9310 C.ar   22  TYR22      -0.0201
     17  CD1        6.2560   -0.0520  -87.0060 C.ar   22  TYR22      -0.0009
     18  CD2        4.7280   -1.7090  -87.8050 C.ar   22  TYR22      -0.0009
     19  CE1        5.3650    0.2810  -85.9950 C.ar   22  TYR22       0.0417
     20  CE2        3.8320   -1.3870  -86.7940 C.ar   22  TYR22       0.0417
     21  CZ         4.1560   -0.3950  -85.8920 C.ar   22  TYR22       0.1957
     22  OH         3.2650   -0.0790  -84.8950 O.3    22  TYR22      -0.2866
     23  N          2.6580    6.4170  -90.7420 N.3    36  ASP36      -0.1225
     24  CA         1.7670    5.3440  -90.3210 C.3    36  ASP36       0.1805
     25  C          0.6630    5.1340  -91.3570 C.2    36  ASP36       0.2598
     26  O          0.6390    5.7740  -92.4110 O.2    36  ASP36      -0.2718
     27  CB         1.1910    5.6200  -88.9270 C.3    36  ASP36       0.1424
     28  CG         0.3130    6.8770  -88.8530 C.2    36  ASP36       0.3668
     29  OD1       -0.0860    7.4380  -89.8920 O.co2  36  ASP36      -0.2456
     30  OD2       -0.0100    7.2920  -87.7170 O.co2  36  ASP36      -0.2456
     31  N         -0.2690    4.2230  -91.0510 N.am   37  SER37      -0.1952
     32  CA        -1.3330    3.8820  -91.9950 C.3    37  SER37       0.1924
     33  C         -2.0730    5.1190  -92.4880 C.2    37  SER37       0.2314
     34  O         -2.2240    5.3260  -93.6960 O.2    37  SER37      -0.2863
     35  CB        -2.3220    2.9100  -91.3490 C.3    37  SER37       0.2116
     36  OG        -1.7470    1.6320  -91.1950 O.3    37  SER37      -0.2180
     37  N          2.6170   -3.3640  -96.1850 N.3    57  VAL57      -0.1245
     38  CA         1.9200   -4.6430  -96.3330 C.3    57  VAL57       0.1561
     39  C          0.8860   -4.5550  -97.4470 C.2    57  VAL57       0.2260
     40  O          0.5480   -3.4620  -97.9110 O.2    57  VAL57      -0.2867
     41  CB         1.2660   -5.0910  -95.0160 C.3    57  VAL57       0.0252
     42  CG1        2.3340   -5.3900  -93.9790 C.3    57  VAL57       0.0019
     43  CG2        0.3000   -4.0350  -94.5250 C.3    57  VAL57       0.0019
     44  N         -2.2940   -2.4290  -97.2600 N.3    60  MET60      -0.1245
     45  CA        -1.8670   -1.0320  -97.3500 C.3    60  MET60       0.1570
     46  C         -1.6830   -0.6070  -98.8030 C.2    60  MET60       0.2261
     47  O         -2.1180    0.4790  -99.2090 O.2    60  MET60      -0.2867
     48  CB        -0.5580   -0.8380  -96.5750 C.3    60  MET60       0.0387
     49  CG        -0.6740   -0.0830  -95.2620 C.3    60  MET60       0.0595
     50  SD         0.5800   -0.5340  -94.0330 S.3    60  MET60      -0.1393
     51  CE         2.0860    0.0700  -94.7480 C.3    60  MET60       0.0692
     52  N         -0.3790   -8.5910  -93.4280 N.3    82  CYS82      -0.1235
     53  CA        -0.7940   -8.2730  -92.0670 C.3    82  CYS82       0.1677
     54  C         -1.4900   -9.4890  -91.4580 C.2    82  CYS82       0.2270
     55  O         -2.5440   -9.9130  -91.9420 O.2    82  CYS82      -0.2867
     56  CB        -1.7150   -7.0480  -92.0700 C.3    82  CYS82       0.0956
     57  SG        -2.6590   -6.7870  -90.5460 S.3    82  CYS82      -0.0801
     58  N         -3.0440   -9.8320  -88.6250 N.3    84  MET84      -0.1245
     59  CA        -4.3130   -9.5490  -87.9680 C.3    84  MET84       0.1570
     60  C         -5.4320   -9.2880  -88.9680 C.2    84  MET84       0.2261
     61  O         -6.5670   -9.7280  -88.7580 O.2    84  MET84      -0.2867
     62  CB        -4.1610   -8.3530  -87.0390 C.3    84  MET84       0.0387
     63  CG        -5.4560   -7.9490  -86.3820 C.3    84  MET84       0.0595
     64  SD        -5.3080   -6.3170  -85.6820 S.3    84  MET84      -0.1393
     65  CE        -5.1570   -5.3380  -87.1630 C.3    84  MET84       0.0692
     66  N        -10.7670   -1.4190  -89.7450 N.3   108  TYR108     -0.1241
     67  CA        -9.3800   -1.0510  -89.9580 C.3   108  TYR108      0.1605
     68  C         -9.0870   -0.9610  -91.4510 C.2   108  TYR108      0.2264
     69  O         -9.5490   -1.7890  -92.2410 O.2   108  TYR108     -0.2867
     70  CB        -8.5090   -2.1080  -89.2770 C.3   108  TYR108      0.0534
     71  CG        -7.0210   -1.9070  -89.2980 C.ar  108  TYR108     -0.0201
     72  CD1       -6.4580   -0.6650  -89.0580 C.ar  108  TYR108     -0.0009
     73  CD2       -6.1710   -2.9870  -89.5170 C.ar  108  TYR108     -0.0009
     74  CE1       -5.0870   -0.4970  -89.0630 C.ar  108  TYR108      0.0417
     75  CE2       -4.8090   -2.8290  -89.5300 C.ar  108  TYR108      0.0417
     76  CZ        -4.2710   -1.5860  -89.3010 C.ar  108  TYR108      0.1957
     77  OH        -2.9090   -1.4400  -89.3050 O.3   108  TYR108     -0.2866
     78  N         -6.0610   -1.3830  -94.2380 N.3   110  ASN110     -0.1240
     79  CA        -5.1370   -2.5130  -94.2450 C.3   110  ASN110      0.1653
     80  C         -5.8760   -3.7730  -93.7790 C.2   110  ASN110      0.2266
     81  O         -5.3790   -4.5560  -92.9700 O.2   110  ASN110     -0.2867
     82  CB        -3.8970   -2.2050  -93.3870 C.3   110  ASN110      0.1155
     83  CG        -2.9130   -3.3610  -93.3050 C.2   110  ASN110      0.2627
     84  OD1       -2.8540   -4.2120  -94.1920 O.2   110  ASN110     -0.2716
     85  ND2       -2.1420   -3.3990  -92.2230 N.am  110  ASN110     -0.0877
     86  N         -7.9360    4.1340  -88.7440 N.3   124  THR124     -0.1203
     87  CA        -6.6600    3.6650  -88.2200 C.3   124  THR124      0.1994
     88  C         -6.6180    3.9750  -86.7270 C.2   124  THR124      0.2618
     89  O         -7.5330    4.5890  -86.1750 O.2   124  THR124     -0.2717
     90  CB        -5.4780    4.3180  -88.9370 C.3   124  THR124      0.1784
     91  OG1       -5.1750    5.5640  -88.3000 O.3   124  THR124     -0.2211
     92  CG2       -5.7980    4.5570  -90.4180 C.3   124  THR124      0.0376
     93  N         -5.5410    3.5530  -86.0600 N.am  125  SER125     -0.1951
     94  CA        -5.4460    3.8390  -84.6340 C.3   125  SER125      0.1924
     95  C         -5.2790    5.3310  -84.3650 C.2   125  SER125      0.2314
     96  O         -5.5300    5.7760  -83.2410 O.2   125  SER125     -0.2863
     97  CB        -4.2980    3.0450  -84.0030 C.3   125  SER125      0.2116
     98  OG        -3.0530    3.3790  -84.5900 O.3   125  SER125     -0.2180
     99  N         -3.1880   -8.0730  -82.9970 N.3   169  CYS169     -0.1235
    100  CA        -1.8820   -8.0680  -83.6450 C.3   169  CYS169      0.1677
    101  C         -0.9030   -8.8040  -82.7410 C.2   169  CYS169      0.2270
    102  O         -0.7420   -8.4350  -81.5710 O.2   169  CYS169     -0.2867
    103  CB        -1.4100   -6.6350  -83.9120 C.3   169  CYS169      0.0956
    104  SG         0.4060   -6.4190  -83.9390 S.3   169  CYS169     -0.0801
    105  N          2.0460   -6.6720  -81.0310 N.3   172  HIS172     -0.1241
    106  CA         1.7290   -5.8390  -79.8800 C.3   172  HIS172      0.1621
    107  C          1.2050   -6.6360  -78.6970 C.2   172  HIS172      0.2264
    108  O          1.1860   -6.1110  -77.5780 O.2   172  HIS172     -0.2867
    109  CB         0.7150   -4.7640  -80.2700 C.3   172  HIS172      0.0745
    110  CG         1.2950   -3.6780  -81.1200 C.ar  172  HIS172      0.0817
    111  ND1        1.2270   -3.6930  -82.4960 N.ar  172  HIS172     -0.2268
    112  CD2        1.9570   -2.5440  -80.7880 C.ar  172  HIS172      0.1154
    113  CE1        1.8150   -2.6120  -82.9750 C.ar  172  HIS172      0.1986
    114  NE2        2.2680   -1.8980  -81.9590 N.ar  172  HIS172     -0.2212
    115  N          1.4190    1.8250  -77.8730 N.3   195  HIS195     -0.1241
    116  CA         0.4650    1.7640  -78.9710 C.3   195  HIS195      0.1621
    117  C         -0.8890    1.2460  -78.4750 C.2   195  HIS195      0.2264
    118  O         -0.9390    0.3640  -77.6130 O.2   195  HIS195     -0.2867
    119  CB         1.0000    0.8540  -80.0780 C.3   195  HIS195      0.0745
    120  CG         0.3260    1.0590  -81.3940 C.ar  195  HIS195      0.0817
    121  ND1       -0.9340    0.5760  -81.6660 N.ar  195  HIS195     -0.2268
    122  CD2        0.7270    1.7180  -82.5080 C.ar  195  HIS195      0.1154
    123  CE1       -1.2820    0.9280  -82.8900 C.ar  195  HIS195      0.1986
    124  NE2       -0.2900    1.6180  -83.4240 N.ar  195  HIS195     -0.2212
    125  N         -2.8260   -0.7960  -79.7720 N.3   197  GLU197     -0.1245
    126  CA        -3.0240   -2.2100  -80.0560 C.3   197  GLU197      0.1567
    127  C         -2.3680   -3.1100  -79.0170 C.2   197  GLU197      0.2260
    128  O         -2.4660   -4.3370  -79.1240 O.2   197  GLU197     -0.2867
    129  CB        -2.5240   -2.5400  -81.4670 C.3   197  GLU197      0.0388
    130  CG        -3.4220   -1.9260  -82.5280 C.3   197  GLU197      0.1160
    131  CD        -2.9700   -2.1980  -83.9470 C.2   197  GLU197      0.3649
    132  OE1       -2.1330   -3.1000  -84.1530 O.co2 197  GLU197     -0.2457
    133  OE2       -3.4620   -1.4990  -84.8570 O.co2 197  GLU197     -0.2457
    134  N         -1.0390    6.2020  -81.8050 N.3   211  SER211     -0.1202
    135  CA        -0.5250    5.6420  -83.0410 C.3   211  SER211      0.2020
    136  C          0.9380    6.0480  -83.2220 C.2   211  SER211      0.2619
    137  O          1.4410    6.9690  -82.5710 O.2   211  SER211     -0.2717
    138  CB        -1.3560    6.1330  -84.2250 C.3   211  SER211      0.2103
    139  OG        -1.1170    7.5140  -84.4690 O.3   211  SER211     -0.2182
    140  N          1.6280    5.3620  -84.1380 N.am  212  THR212     -0.1952
    141  CA         3.0310    5.7020  -84.3670 C.3   212  THR212      0.1897
    142  C          3.1770    7.1420  -84.8560 C.2   212  THR212      0.2313
    143  O          4.1370    7.8300  -84.4950 O.2   212  THR212     -0.2863
    144  CB         3.6780    4.7230  -85.3510 C.3   212  THR212      0.1794
    145  OG1        3.0260    4.8000  -86.6220 O.3   212  THR212     -0.2208
    146  CG2        3.5920    3.2910  -84.8230 C.3   212  THR212      0.0378
    147  N          6.0940   -7.0480  -92.2920 N.3   258  MET258     -0.1245
    148  CA         6.7050   -5.7780  -92.6750 C.3   258  MET258      0.1570
    149  C          8.1160   -5.9840  -93.2010 C.2   258  MET258      0.2261
    150  O          8.5370   -5.3210  -94.1580 O.2   258  MET258     -0.2867
    151  CB         6.7270   -4.8250  -91.4790 C.3   258  MET258      0.0387
    152  CG         5.4070   -4.1380  -91.2000 C.3   258  MET258      0.0595
    153  SD         5.0480   -2.8710  -92.4300 S.3   258  MET258     -0.1393
    154  CE         3.5470   -2.1980  -91.7210 C.3   258  MET258      0.0692
@<TRIPOS>BOND
     1    47    46    2
     2    46    45    1
     3    40    39    2
     4    39    38    1
     5    45    44    1
     6    45    48    1
     7    48    49    1
     8    38    37    1
     9    38    41    1
    10    49    50    1
    11    41    43    1
    12    41    42    1
    13    51    50    1
    14     1     2    1
    15    79    78    1
    16    79    80    1
    17    79    82    1
    18    84    83    2
    19   150   149    2
    20    80    81    2
    21    34    33    2
    22    52    53    1
    23    82    83    1
    24    83    85   am
    25   149   148    1
    26     2     5    1
    27     2     3    1
    28     5     6    1
    29   148   147    1
    30   148   151    1
    31    33    32    1
    32   153   154    1
    33   153   152    1
    34    26    25    2
    35     4     3    2
    36    69    68    2
    37    56    53    1
    38    56    57    1
    39    53    54    1
    40    32    35    1
    41    32    31    1
    42    55    54    2
    43     6     8   ar
    44     6     7   ar
    45   151   152    1
    46    68    67    1
    47    25    31   am
    48    25    24    1
    49    35    36    1
    50     8    10   ar
    51    23    24    1
    52     7     9   ar
    53    92    90    1
    54    24    27    1
    55    13    14    2
    56    13    12    1
    57    10     9   ar
    58    67    66    1
    59    67    70    1
    60    29    28   ar
    61    11    12    1
    62    75    73   ar
    63    75    76   ar
    64    73    71   ar
    65    12    15    1
    66    77    76    1
    67    76    74   ar
    68    71    70    1
    69    71    72   ar
    70    74    72   ar
    71    15    16    1
    72    60    61    2
    73    60    59    1
    74    90    91    1
    75    90    87    1
    76    27    28    1
    77    28    30   ar
    78    86    87    1
    79    58    59    1
    80    87    88    1
    81    59    62    1
    82    16    18   ar
    83    16    17   ar
    84    18    20   ar
    85    65    64    1
    86    62    63    1
    87    17    19   ar
    88    20    21   ar
    89    88    89    2
    90    88    93   am
    91   145   144    1
    92    63    64    1
    93    93    94    1
    94    19    21   ar
    95    21    22    1
    96   144   146    1
    97   144   141    1
    98   133   131   ar
    99   142   143    2
   100   142   141    1
   101    94    95    1
   102    94    97    1
   103    98    97    1
   104   139   138    1
   105   141   140    1
   106    95    96    2
   107   138   135    1
   108   132   131   ar
   109   140   136   am
   110   131   130    1
   111   104   103    1
   112   103   100    1
   113   100    99    1
   114   100   101    1
   115   124   123   ar
   116   124   122   ar
   117   136   135    1
   118   136   137    2
   119   135   134    1
   120   113   111   ar
   121   113   114   ar
   122   123   121   ar
   123   101   102    2
   124   130   129    1
   125   122   120   ar
   126   111   110   ar
   127   114   112   ar
   128   121   120   ar
   129   129   126    1
   130   120   119    1
   131   110   112   ar
   132   110   109    1
   133   105   106    1
   134   109   106    1
   135   119   116    1
   136   126   125    1
   137   126   127    1
   138   106   107    1
   139   128   127    2
   140   116   117    1
   141   116   115    1
   142   107   108    2
   143   117   118    2
