@<TRIPOS>MOLECULE
tmp/4zkdA00.pdb
 155 148 0 0 0
SMALL
GASTEIGER

@<TRIPOS>ATOM
      1  N         73.7420  -15.5450   59.5010 N.3    22  THR22      -0.1203
      2  CA        73.5060  -14.5910   58.4290 C.3    22  THR22       0.1994
      3  C         74.0570  -13.2270   58.8420 C.2    22  THR22       0.2618
      4  O         74.0580  -12.8910   60.0250 O.2    22  THR22      -0.2717
      5  CB        72.0040  -14.4750   58.0910 C.3    22  THR22       0.1784
      6  OG1       71.8230  -13.5700   56.9960 O.3    22  THR22      -0.2211
      7  CG2       71.2100  -13.9820   59.3000 C.3    22  THR22       0.0376
      8  N         74.5320  -12.4580   57.8650 N.am   23  ASN23      -0.1960
      9  CA        75.1290  -11.1440   58.1110 C.3    23  ASN23       0.1819
     10  C         76.4490  -11.2300   58.8820 C.2    23  ASN23       0.2621
     11  O         76.9260  -10.2330   59.4260 O.2    23  ASN23      -0.2715
     12  CB        74.1500  -10.2380   58.8660 C.3    23  ASN23       0.1195
     13  CG        74.5240   -8.7670   58.7750 C.2    23  ASN23       0.2630
     14  OD1       74.8580   -8.2630   57.7030 O.2    23  ASN23      -0.2716
     15  ND2       74.4850   -8.0770   59.9070 N.am   23  ASN23      -0.0877
     16  N         77.0430  -12.4190   58.9240 N.am   24  ALA24      -0.1963
     17  CA        78.3580  -12.5850   59.5370 C.3    24  ALA24       0.1728
     18  C         79.4590  -12.0360   58.6260 C.2    24  ALA24       0.2617
     19  O         80.5430  -11.6860   59.0940 O.2    24  ALA24      -0.2715
     20  CB        78.6140  -14.0450   59.8520 C.3    24  ALA24       0.0334
     21  N         79.1750  -11.9720   57.3250 N.am   25  GLY25      -0.1940
     22  CA        80.1090  -11.4220   56.3560 C.3    25  GLY25       0.2014
     23  C         80.8260  -12.4900   55.5490 C.2    25  GLY25       0.2639
     24  O         81.8990  -12.2450   54.9980 O.2    25  GLY25      -0.2714
     25  N         80.2260  -13.6740   55.4700 N.am   26  LYS26      -0.1963
     26  CA        80.8650  -14.8260   54.8390 C.3    26  LYS26       0.1728
     27  C         81.0610  -14.6470   53.3330 C.2    26  LYS26       0.2617
     28  O         82.1600  -14.8500   52.8160 O.2    26  LYS26      -0.2715
     29  CB        80.0420  -16.0890   55.1040 C.3    26  LYS26       0.0311
     30  CG        79.8300  -16.3880   56.5840 C.3    26  LYS26       0.0038
     31  CD        79.1440  -17.7300   56.8110 C.3    26  LYS26       0.0206
     32  CE        77.7520  -17.7790   56.1960 C.3    26  LYS26       0.1093
     33  NZ        76.8740  -16.6840   56.6870 N.3    26  LYS26      -0.1314
     34  N         79.9930  -14.2760   52.6340 N.am   27  SER27      -0.1936
     35  CA        80.0420  -14.1210   51.1820 C.3    27  SER27       0.2055
     36  C         80.9760  -12.9840   50.7800 C.2    27  SER27       0.2643
     37  O         81.7470  -13.1120   49.8300 O.2    27  SER27      -0.2714
     38  CB        78.6410  -13.8700   50.6250 C.3    27  SER27       0.2130
     39  OG        77.8190  -15.0120   50.7880 O.3    27  SER27      -0.2179
     40  N         80.9030  -11.8730   51.5070 N.am   28  THR28      -0.1950
     41  CA        81.7740  -10.7320   51.2460 C.3    28  THR28       0.1897
     42  C         83.2400  -11.1080   51.4190 C.2    28  THR28       0.2313
     43  O         84.0740  -10.7810   50.5790 O.2    28  THR28      -0.2863
     44  CB        81.4480   -9.5440   52.1790 C.3    28  THR28       0.1794
     45  OG1       80.1680   -9.0020   51.8340 O.3    28  THR28      -0.2208
     46  CG2       82.4950   -8.4380   52.0570 C.3    28  THR28       0.0378
     47  N         73.1810   -1.4180   50.5720 N.3    59  SER59      -0.1202
     48  CA        73.8570   -2.1200   51.6550 C.3    59  SER59       0.2020
     49  C         74.9170   -3.0700   51.0980 C.2    59  SER59       0.2619
     50  O         75.9960   -3.2180   51.6740 O.2    59  SER59      -0.2717
     51  CB        72.8490   -2.8960   52.5110 C.3    59  SER59       0.2103
     52  OG        72.4620   -4.1070   51.8870 O.3    59  SER59      -0.2182
     53  N         74.6000   -3.7000   49.9690 N.am   60  SER60      -0.1937
     54  CA        75.4730   -4.7030   49.3590 C.3    60  SER60       0.2055
     55  C         76.8310   -4.1390   48.9460 C.2    60  SER60       0.2643
     56  O         77.0690   -2.9340   49.0280 O.2    60  SER60      -0.2714
     57  CB        74.7910   -5.3210   48.1370 C.3    60  SER60       0.2130
     58  OG        75.7240   -6.0430   47.3520 O.3    60  SER60      -0.2179
     59  N         77.7150   -5.0260   48.4960 N.am   61  ASN61      -0.1971
     60  CA        79.0420   -4.6320   48.0320 C.3    61  ASN61       0.1688
     61  C         79.4790   -5.4420   46.8100 C.2    61  ASN61       0.2292
     62  O         78.7640   -6.3360   46.3580 O.2    61  ASN61      -0.2864
     63  CB        80.0670   -4.7810   49.1600 C.3    61  ASN61       0.1181
     64  CG        80.3210   -6.2290   49.5400 C.2    61  ASN61       0.2629
     65  OD1       81.2060   -6.8810   48.9840 O.2    61  ASN61      -0.2716
     66  ND2       79.5520   -6.7360   50.5010 N.am   61  ASN61      -0.0877
     67  N         80.5220   -9.6770   47.5530 N.3    64  LYS64      -0.1245
     68  CA        79.5380  -10.7100   47.8640 C.3    64  LYS64       0.1561
     69  C         78.7480  -11.1230   46.6260 C.2    64  LYS64       0.2260
     70  O         78.3400  -12.2780   46.5010 O.2    64  LYS64      -0.2867
     71  CB        78.5800  -10.2380   48.9630 C.3    64  LYS64       0.0271
     72  CG        77.7220   -9.0280   48.6060 C.3    64  LYS64       0.0035
     73  CD        76.6780   -8.7400   49.6840 C.3    64  LYS64       0.0206
     74  CE        75.5720   -9.7870   49.6980 C.3    64  LYS64       0.1093
     75  NZ        74.5550   -9.5110   50.7490 N.3    64  LYS64      -0.1314
     76  N         77.0260  -14.6070   45.6100 N.3    68  ASP68      -0.1239
     77  CA        75.5770  -14.5450   45.4680 C.3    68  ASP68       0.1674
     78  C         75.2500  -14.2360   44.0070 C.2    68  ASP68       0.2266
     79  O         74.8750  -13.1130   43.6720 O.2    68  ASP68      -0.2867
     80  CB        74.9730  -13.4880   46.4000 C.3    68  ASP68       0.1410
     81  CG        75.1920  -13.8070   47.8740 C.2    68  ASP68       0.3668
     82  OD1       75.5250  -14.9660   48.1980 O.co2  68  ASP68      -0.2456
     83  OD2       75.0200  -12.8960   48.7120 O.co2  68  ASP68      -0.2456
     84  N         69.1770  -10.5350   48.9380 N.3    77  GLY77      -0.1210
     85  CA        70.3040   -9.8970   49.5970 C.3    77  GLY77       0.1956
     86  C         71.0940  -10.8000   50.5300 C.2    77  GLY77       0.2612
     87  O         71.8940  -10.3160   51.3330 O.2    77  GLY77      -0.2717
     88  N         70.8780  -12.1080   50.4280 N.am   78  PHE78      -0.1962
     89  CA        71.6250  -13.0660   51.2380 C.3    78  PHE78       0.1771
     90  C         71.7360  -14.4180   50.5410 C.2    78  PHE78       0.2620
     91  O         70.9200  -14.7500   49.6800 O.2    78  PHE78      -0.2715
     92  CB        70.9730  -13.2330   52.6120 C.3    78  PHE78       0.0574
     93  CG        69.5360  -13.6640   52.5600 C.ar   78  PHE78      -0.0200
     94  CD1       69.2050  -15.0060   52.4960 C.ar   78  PHE78      -0.0042
     95  CD2       68.5160  -12.7280   52.5930 C.ar   78  PHE78      -0.0042
     96  CE1       67.8880  -15.4080   52.4550 C.ar   78  PHE78      -0.0003
     97  CE2       67.1940  -13.1240   52.5530 C.ar   78  PHE78      -0.0003
     98  CZ        66.8790  -14.4650   52.4830 C.ar   78  PHE78      -0.0000
     99  N         72.7490  -15.1950   50.9170 N.am   79  SER79      -0.1950
    100  CA        73.0000  -16.4800   50.2730 C.3    79  SER79       0.1924
    101  C         71.9070  -17.4770   50.6320 C.2    79  SER79       0.2314
    102  O         71.3720  -17.4570   51.7400 O.2    79  SER79      -0.2863
    103  CB        74.3700  -17.0370   50.6720 C.3    79  SER79       0.2116
    104  OG        75.3760  -16.0410   50.6070 O.3    79  SER79      -0.2180
    105  N         85.0900  -11.0420   62.4940 N.3   173  ASN173     -0.1225
    106  CA        84.8920  -10.2200   61.3050 C.3   173  ASN173      0.1785
    107  C         84.2910   -8.8480   61.6030 C.2   173  ASN173      0.2597
    108  O         83.7910   -8.6000   62.7010 O.2   173  ASN173     -0.2718
    109  CB        83.9980  -10.9770   60.3200 C.3   173  ASN173      0.1169
    110  CG        84.0860  -10.4340   58.9080 C.2   173  ASN173      0.2627
    111  OD1       84.9540   -9.6210   58.5920 O.2   173  ASN173     -0.2716
    112  ND2       83.1850  -10.8880   58.0470 N.am  173  ASN173     -0.0877
    113  N         84.3460   -7.9660   60.6070 N.am  174  LYS174     -0.1980
    114  CA        83.8350   -6.6030   60.7250 C.3   174  LYS174      0.1596
    115  C         84.5310   -5.8460   61.8520 C.2   174  LYS174      0.2287
    116  O         83.8940   -5.1050   62.5970 O.2   174  LYS174     -0.2864
    117  CB        82.3230   -6.6060   60.9570 C.3   174  LYS174      0.0298
    118  CG        81.5420   -7.4630   59.9780 C.3   174  LYS174      0.0038
    119  CD        80.1320   -6.9270   59.7830 C.3   174  LYS174      0.0206
    120  CE        79.2220   -7.9610   59.1440 C.3   174  LYS174      0.1093
    121  NZ        77.8190   -7.4800   59.0420 N.3   174  LYS174     -0.1314
    122  N         86.3770   -3.3690   61.6440 N.3   176  ASP176     -0.1225
    123  CA        86.3840   -1.9310   61.3870 C.3   176  ASP176      0.1805
    124  C         85.1780   -1.2270   62.0090 C.2   176  ASP176      0.2597
    125  O         85.2610   -0.0540   62.3750 O.2   176  ASP176     -0.2718
    126  CB        86.4200   -1.6580   59.8830 C.3   176  ASP176      0.1424
    127  CG        85.3110   -2.3650   59.1420 C.2   176  ASP176      0.3668
    128  OD1       85.0830   -3.5600   59.4200 O.co2 176  ASP176     -0.2456
    129  OD2       84.6630   -1.7240   58.2910 O.co2 176  ASP176     -0.2456
    130  N         84.0610   -1.9380   62.1240 N.am  177  LEU177     -0.1979
    131  CA        82.8550   -1.3680   62.7200 C.3   177  LEU177      0.1596
    132  C         83.0490   -1.0480   64.2000 C.2   177  LEU177      0.2287
    133  O         82.2920   -0.2660   64.7730 O.2   177  LEU177     -0.2864
    134  CB        81.6680   -2.3200   62.5550 C.3   177  LEU177      0.0297
    135  CG        81.1030   -2.4940   61.1430 C.3   177  LEU177      0.0022
    136  CD1       79.9580   -3.4950   61.1570 C.3   177  LEU177      0.0001
    137  CD2       80.6340   -1.1660   60.5650 C.3   177  LEU177      0.0001
    138  N         88.5880   -7.8800   58.5120 N.3   213  SER213     -0.1202
    139  CA        87.4910   -7.1960   57.8490 C.3   213  SER213      0.2020
    140  C         87.4480   -7.6630   56.4020 C.2   213  SER213      0.2619
    141  O         88.2660   -7.2450   55.5820 O.2   213  SER213     -0.2717
    142  CB        87.6600   -5.6790   57.9240 C.3   213  SER213      0.2103
    143  OG        86.6370   -5.0170   57.2010 O.3   213  SER213     -0.2182
    144  N         86.5060   -8.5470   56.0970 N.am  214  GLY214     -0.1942
    145  CA        86.3960   -9.0980   54.7610 C.3   214  GLY214      0.2014
    146  C         86.0960   -8.0290   53.7330 C.2   214  GLY214      0.2638
    147  O         86.5030   -8.1430   52.5810 O.2   214  GLY214     -0.2714
    148  N         85.3910   -6.9830   54.1530 N.am  215  LEU215     -0.1977
    149  CA        85.0070   -5.9080   53.2440 C.3   215  LEU215      0.1596
    150  C         86.1980   -5.0220   52.8950 C.2   215  LEU215      0.2287
    151  O         86.3810   -4.6530   51.7360 O.2   215  LEU215     -0.2864
    152  CB        83.8870   -5.0640   53.8550 C.3   215  LEU215      0.0297
    153  CG        83.3400   -3.9270   52.9860 C.3   215  LEU215      0.0022
    154  CD1       82.7600   -4.4610   51.6820 C.3   215  LEU215      0.0001
    155  CD2       82.2910   -3.1340   53.7500 C.3   215  LEU215      0.0001
@<TRIPOS>BOND
     1    79    78    2
     2    78    77    1
     3    77    76    1
     4    77    80    1
     5    62    61    2
     6    80    81    1
     7    70    69    2
     8    69    68    1
     9    61    60    1
    10    58    57    1
    11    67    68    1
    12    68    71    1
    13    81    82   ar
    14    81    83   ar
    15    60    59    1
    16    60    63    1
    17    57    54    1
    18    59    55   am
    19    72    71    1
    20    72    73    1
    21    84    85    1
    22    55    56    2
    23    55    54    1
    24    65    64    2
    25    63    64    1
    26    54    53    1
    27    64    66   am
    28    85    86    1
    29    91    90    2
    30    73    74    1
    31    74    75    1
    32    37    36    2
    33    53    49   am
    34   100   101    1
    35   100   103    1
    36   100    99    1
    37    88    86   am
    38    88    89    1
    39    86    87    2
    40    90    99   am
    41    90    89    1
    42    47    48    1
    43    43    42    2
    44   104   103    1
    45    38    39    1
    46    38    35    1
    47   101   102    2
    48    36    35    1
    49    36    40   am
    50    49    48    1
    51    49    50    2
    52    35    34    1
    53    89    92    1
    54    41    42    1
    55    41    40    1
    56    41    44    1
    57    48    51    1
    58   154   153    1
    59   151   150    2
    60    45    44    1
    61    52    51    1
    62    46    44    1
    63    96    98   ar
    64    96    94   ar
    65    98    97   ar
    66    94    93   ar
    67    97    95   ar
    68    93    95   ar
    69    93    92    1
    70   147   146    2
    71    34    27   am
    72    28    27    2
    73   150   149    1
    74   153   155    1
    75   153   152    1
    76   149   152    1
    77   149   148    1
    78    27    26    1
    79   146   148   am
    80   146   145    1
    81   145   144    1
    82    26    29    1
    83    26    25    1
    84    24    23    2
    85    29    30    1
    86    25    23   am
    87    23    22    1
    88   141   140    2
    89   144   140   am
    90    32    33    1
    91    32    31    1
    92    22    21    1
    93   140   139    1
    94    30    31    1
    95     6     5    1
    96   143   142    1
    97    21    18   am
    98    14    13    2
    99   139   142    1
   100   139   138    1
   101     8     9    1
   102     8     3   am
   103   112   110   am
   104     5     2    1
   105     5     7    1
   106     9    12    1
   107     9    10    1
   108   129   127   ar
   109     2     3    1
   110     2     1    1
   111   111   110    2
   112    18    19    2
   113    18    17    1
   114    13    12    1
   115    13    15   am
   116     3     4    2
   117    10    16   am
   118    10    11    2
   119   110   109    1
   120    16    17    1
   121   121   120    1
   122   127   128   ar
   123   127   126    1
   124   120   119    1
   125    17    20    1
   126   119   118    1
   127   126   123    1
   128   118   117    1
   129   109   106    1
   130   137   135    1
   131   113   114    1
   132   113   107   am
   133   114   117    1
   134   114   115    1
   135   135   136    1
   136   135   134    1
   137   106   107    1
   138   106   105    1
   139   123   122    1
   140   123   124    1
   141   107   108    2
   142   115   116    2
   143   124   130   am
   144   124   125    2
   145   130   131    1
   146   134   131    1
   147   131   132    1
   148   132   133    2
