@<TRIPOS>MOLECULE
tmp/4zkeA00.pdb
 193 186 0 0 0
SMALL
GASTEIGER

@<TRIPOS>ATOM
      1  N         71.7840  -16.3800   59.5600 N.3    23  THR23      -0.1203
      2  CA        71.4940  -15.4520   58.4790 C.3    23  THR23       0.1994
      3  C         72.0840  -14.0900   58.8260 C.2    23  THR23       0.2618
      4  O         72.2270  -13.7560   60.0070 O.2    23  THR23      -0.2717
      5  CB        69.9750  -15.3170   58.2210 C.3    23  THR23       0.1784
      6  OG1       69.7540  -14.5420   57.0370 O.3    23  THR23      -0.2211
      7  CG2       69.2680  -14.6510   59.4010 C.3    23  THR23       0.0376
      8  N         72.4420  -13.3250   57.7970 N.am   24  ASN24      -0.1960
      9  CA        72.9700  -11.9740   57.9700 C.3    24  ASN24       0.1819
     10  C         74.3760  -11.9530   58.5780 C.2    24  ASN24       0.2621
     11  O         74.8830  -10.8950   58.9440 O.2    24  ASN24      -0.2715
     12  CB        72.0140  -11.1510   58.8390 C.3    24  ASN24       0.1195
     13  CG        72.1870   -9.6620   58.6480 C.2    24  ASN24       0.2630
     14  OD1       71.9910   -9.1400   57.5510 O.2    24  ASN24      -0.2716
     15  ND2       72.5430   -8.9630   59.7210 N.am   24  ASN24      -0.0877
     16  N         75.0090  -13.1180   58.6730 N.am   25  ALA25      -0.1963
     17  CA        76.3470  -13.2130   59.2550 C.3    25  ALA25       0.1728
     18  C         77.4100  -12.6130   58.3330 C.2    25  ALA25       0.2617
     19  O         78.4090  -12.0640   58.8040 O.2    25  ALA25      -0.2715
     20  CB        76.6810  -14.6620   59.5700 C.3    25  ALA25       0.0334
     21  N         77.1890  -12.7250   57.0250 N.am   26  GLY26      -0.1940
     22  CA        78.1000  -12.1780   56.0340 C.3    26  GLY26       0.2014
     23  C         78.8600  -13.2510   55.2770 C.2    26  GLY26       0.2639
     24  O         79.9010  -12.9790   54.6810 O.2    26  GLY26      -0.2714
     25  N         78.3360  -14.4720   55.2910 N.am   27  LYS27      -0.1963
     26  CA        78.9910  -15.5970   54.6340 C.3    27  LYS27       0.1728
     27  C         79.1260  -15.3860   53.1270 C.2    27  LYS27       0.2617
     28  O         80.2150  -15.5120   52.5700 O.2    27  LYS27      -0.2715
     29  CB        78.2190  -16.8880   54.9080 C.3    27  LYS27       0.0311
     30  CG        78.0780  -17.2060   56.3840 C.3    27  LYS27       0.0038
     31  CD        77.3970  -18.5400   56.6120 C.3    27  LYS27       0.0206
     32  CE        75.9360  -18.5260   56.2000 C.3    27  LYS27       0.1093
     33  NZ        75.1290  -17.5860   57.0180 N.3    27  LYS27      -0.1314
     34  N         78.0170  -15.0660   52.4690 N.am   28  SER28      -0.1936
     35  CA        78.0230  -14.8800   51.0240 C.3    28  SER28       0.2055
     36  C         78.8860  -13.6830   50.6270 C.2    28  SER28       0.2643
     37  O         79.6930  -13.7690   49.7040 O.2    28  SER28      -0.2714
     38  CB        76.5960  -14.7040   50.5030 C.3    28  SER28       0.2130
     39  OG        75.8280  -15.8790   50.7150 O.3    28  SER28      -0.2179
     40  N         78.7150  -12.5710   51.3330 N.am   29  THR29      -0.1950
     41  CA        79.5250  -11.3810   51.0970 C.3    29  THR29       0.1897
     42  C         81.0150  -11.6960   51.2070 C.2    29  THR29       0.2313
     43  O         81.7800  -11.4580   50.2720 O.2    29  THR29      -0.2863
     44  CB        79.1700  -10.2590   52.0950 C.3    29  THR29       0.1794
     45  OG1       77.7990   -9.8820   51.9190 O.3    29  THR29      -0.2208
     46  CG2       80.0620   -9.0340   51.8930 C.3    29  THR29       0.0378
     47  N         69.3420   -2.5350   51.3420 N.3    59  SER59      -0.1202
     48  CA        69.4690   -2.9250   52.7400 C.3    59  SER59       0.2020
     49  C         70.0790   -4.3200   52.8810 C.2    59  SER59       0.2619
     50  O         70.6670   -4.6460   53.9130 O.2    59  SER59      -0.2717
     51  CB        68.1010   -2.8900   53.4240 C.3    59  SER59       0.2103
     52  OG        67.4230   -1.6780   53.1480 O.3    59  SER59      -0.2182
     53  N         69.9320   -5.1350   51.8390 N.am   60  SER60      -0.1937
     54  CA        70.3610   -6.5310   51.8780 C.3    60  SER60       0.2055
     55  C         71.5030   -6.8330   50.9120 C.2    60  SER60       0.2644
     56  O         72.2800   -7.7590   51.1420 O.2    60  SER60      -0.2714
     57  CB        69.1800   -7.4540   51.5580 C.3    60  SER60       0.2130
     58  OG        68.1770   -7.3680   52.5530 O.3    60  SER60      -0.2179
     59  N         71.6030   -6.0560   49.8370 N.am   61  SER61      -0.1935
     60  CA        72.4830   -6.4070   48.7260 C.3    61  SER61       0.2055
     61  C         73.8100   -5.6510   48.7080 C.2    61  SER61       0.2643
     62  O         73.9030   -4.5110   49.1630 O.2    61  SER61      -0.2714
     63  CB        71.7590   -6.1710   47.3980 C.3    61  SER61       0.2130
     64  OG        72.5540   -6.5960   46.3030 O.3    61  SER61      -0.2179
     65  N         74.8310   -6.3210   48.1810 N.am   62  ASN62      -0.1971
     66  CA        76.0890   -5.6850   47.8040 C.3    62  ASN62       0.1688
     67  C         76.6760   -6.4590   46.6260 C.2    62  ASN62       0.2292
     68  O         76.1510   -7.5050   46.2500 O.2    62  ASN62      -0.2864
     69  CB        77.0700   -5.6340   48.9790 C.3    62  ASN62       0.1181
     70  CG        77.5620   -7.0050   49.3960 C.2    62  ASN62       0.2629
     71  OD1       78.4600   -7.5730   48.7720 O.2    62  ASN62      -0.2716
     72  ND2       76.9870   -7.5380   50.4670 N.am   62  ASN62      -0.0877
     73  N         78.1190  -10.4170   47.4400 N.3    65  LYS65      -0.1245
     74  CA        77.2130  -11.5110   47.7720 C.3    65  LYS65       0.1561
     75  C         76.3950  -11.9640   46.5620 C.2    65  LYS65       0.2260
     76  O         75.9800  -13.1220   46.4890 O.2    65  LYS65      -0.2867
     77  CB        76.2770  -11.1130   48.9150 C.3    65  LYS65       0.0271
     78  CG        75.3860   -9.9290   48.6200 C.3    65  LYS65       0.0035
     79  CD        74.3930   -9.6990   49.7490 C.3    65  LYS65       0.0206
     80  CE        73.2700  -10.7220   49.7310 C.3    65  LYS65       0.1093
     81  NZ        72.2430  -10.4570   50.7820 N.3    65  LYS65      -0.1314
     82  N         74.8420  -15.3920   45.6130 N.3    69  ASP69      -0.1239
     83  CA        73.3960  -15.3310   45.4720 C.3    69  ASP69       0.1674
     84  C         73.0940  -14.9980   44.0160 C.2    69  ASP69       0.2266
     85  O         72.6950  -13.8810   43.6940 O.2    69  ASP69      -0.2867
     86  CB        72.7900  -14.2950   46.4190 C.3    69  ASP69       0.1410
     87  CG        72.7840  -14.7610   47.8630 C.2    69  ASP69       0.3668
     88  OD1       73.3440  -15.8440   48.1400 O.co2  69  ASP69      -0.2456
     89  OD2       72.2240  -14.0440   48.7210 O.co2  69  ASP69      -0.2456
     90  N         66.8250  -11.6170   48.8580 N.3    78  GLY78      -0.1210
     91  CA        67.8910  -10.9130   49.5500 C.3    78  GLY78       0.1956
     92  C         68.6720  -11.7630   50.5360 C.2    78  GLY78       0.2612
     93  O         69.3300  -11.2300   51.4310 O.2    78  GLY78      -0.2717
     94  N         68.6010  -13.0820   50.3780 N.am   79  PHE79      -0.1962
     95  CA        69.3760  -13.9980   51.2090 C.3    79  PHE79       0.1771
     96  C         69.5390  -15.3570   50.5290 C.2    79  PHE79       0.2620
     97  O         68.7800  -15.7050   49.6210 O.2    79  PHE79      -0.2715
     98  CB        68.7210  -14.1660   52.5790 C.3    79  PHE79       0.0574
     99  CG        67.3020  -14.6570   52.5230 C.ar   79  PHE79      -0.0200
    100  CD1       67.0250  -16.0120   52.4550 C.ar   79  PHE79      -0.0042
    101  CD2       66.2450  -13.7640   52.5550 C.ar   79  PHE79      -0.0042
    102  CE1       65.7220  -16.4660   52.4090 C.ar   79  PHE79      -0.0003
    103  CE2       64.9390  -14.2120   52.5110 C.ar   79  PHE79      -0.0003
    104  CZ        64.6770  -15.5630   52.4370 C.ar   79  PHE79      -0.0000
    105  N         70.5340  -16.1200   50.9710 N.am   80  SER80      -0.1950
    106  CA        70.8400  -17.4050   50.3540 C.3    80  SER80       0.1924
    107  C         69.7810  -18.4520   50.6830 C.2    80  SER80       0.2314
    108  O         69.2260  -18.4660   51.7790 O.2    80  SER80      -0.2863
    109  CB        72.2160  -17.8960   50.8030 C.3    80  SER80       0.2116
    110  OG        73.2150  -16.9310   50.5200 O.3    80  SER80      -0.2180
    111  N         79.2970  -22.4200   50.3150 N.3   103  ASP103     -0.1225
    112  CA        78.3890  -21.4880   50.9720 C.3   103  ASP103      0.1805
    113  C         77.1300  -22.2300   51.3930 C.2   103  ASP103      0.2598
    114  O         76.6980  -23.1580   50.7120 O.2   103  ASP103     -0.2718
    115  CB        78.0410  -20.3260   50.0340 C.3   103  ASP103      0.1424
    116  CG        77.3000  -19.1990   50.7360 C.2   103  ASP103      0.3668
    117  OD1       77.3560  -19.1180   51.9830 O.co2 103  ASP103     -0.2456
    118  OD2       76.6680  -18.3810   50.0330 O.co2 103  ASP103     -0.2456
    119  N         76.5520  -21.8360   52.5220 N.am  104  THR104     -0.1939
    120  CA        75.3250  -22.4610   53.0010 C.3   104  THR104      0.2013
    121  C         74.3680  -21.4010   53.5210 C.2   104  THR104      0.2484
    122  O         74.8020  -20.3480   53.9900 O.2   104  THR104     -0.2729
    123  CB        75.5960  -23.4890   54.1190 C.3   104  THR104      0.1807
    124  OG1       76.0510  -22.8170   55.2990 O.3   104  THR104     -0.2208
    125  CG2       76.6330  -24.5080   53.6800 C.3   104  THR104      0.0379
    126  N         73.0570  -21.6690   53.4330 N.am  105  PRO105     -0.2715
    127  CA        72.0800  -20.6900   53.9120 C.3   105  PRO105      0.1536
    128  C         71.9950  -20.6690   55.4330 C.2   105  PRO105      0.2599
    129  O         72.1330  -21.7160   56.0650 O.2   105  PRO105     -0.2715
    130  CB        70.7700  -21.1740   53.2880 C.3   105  PRO105      0.0310
    131  CG        70.9480  -22.6380   53.1390 C.3   105  PRO105      0.0237
    132  CD        72.4100  -22.8670   52.8680 C.3   105  PRO105      0.0939
    133  N         71.7760  -19.4870   55.9990 N.am  106  GLY106     -0.1941
    134  CA        71.6580  -19.3200   57.4370 C.3   106  GLY106      0.2014
    135  C         70.2250  -19.1960   57.9290 C.2   106  GLY106      0.2639
    136  O         69.9250  -19.5840   59.0590 O.2   106  GLY106     -0.2714
    137  N         69.3420  -18.6450   57.0980 N.am  107  SER107     -0.1949
    138  CA        67.9320  -18.5160   57.4610 C.3   107  SER107      0.1924
    139  C         67.3730  -19.8930   57.7820 C.2   107  SER107      0.2314
    140  O         67.4820  -20.8200   56.9770 O.2   107  SER107     -0.2863
    141  CB        67.1270  -17.8540   56.3410 C.3   107  SER107      0.2116
    142  OG        67.2060  -18.5990   55.1410 O.3   107  SER107     -0.2180
    143  N         83.2910  -11.5110   62.1940 N.3   174  ASN174     -0.1225
    144  CA        83.0220  -10.6880   61.0170 C.3   174  ASN174      0.1785
    145  C         82.3540   -9.3470   61.3390 C.2   174  ASN174      0.2597
    146  O         81.8980   -9.1180   62.4640 O.2   174  ASN174     -0.2718
    147  CB        82.1440  -11.4820   60.0380 C.3   174  ASN174      0.1169
    148  CG        82.1780  -10.9260   58.6230 C.2   174  ASN174      0.2627
    149  OD1       83.1270  -10.2510   58.2240 O.2   174  ASN174     -0.2716
    150  ND2       81.1310  -11.2100   57.8560 N.am  174  ASN174     -0.0877
    151  N         82.3060   -8.4740   60.3330 N.am  175  LYS175     -0.1980
    152  CA        81.7120   -7.1440   60.4540 C.3   175  LYS175      0.1596
    153  C         82.4180   -6.3220   61.5250 C.2   175  LYS175      0.2287
    154  O         81.7900   -5.5290   62.2270 O.2   175  LYS175     -0.2864
    155  CB        80.2160   -7.2350   60.7670 C.3   175  LYS175      0.0298
    156  CG        79.4300   -8.1080   59.8090 C.3   175  LYS175      0.0038
    157  CD        77.9700   -7.6900   59.7520 C.3   175  LYS175      0.0206
    158  CE        77.1240   -8.7190   59.0390 C.3   175  LYS175      0.1093
    159  NZ        75.6840   -8.3540   59.0680 N.3   175  LYS175     -0.1314
    160  N         84.2050   -3.9110   61.0790 N.3   177  ASP177     -0.1225
    161  CA        84.1200   -2.5050   60.6880 C.3   177  ASP177      0.1805
    162  C         82.9440   -1.7970   61.3630 C.2   177  ASP177      0.2597
    163  O         83.0280   -0.6120   61.6820 O.2   177  ASP177     -0.2718
    164  CB        83.9950   -2.3780   59.1670 C.3   177  ASP177      0.1424
    165  CG        82.7720   -3.0850   58.6220 C.2   177  ASP177      0.3668
    166  OD1       82.6260   -4.3010   58.8680 O.co2 177  ASP177     -0.2456
    167  OD2       81.9520   -2.4260   57.9510 O.co2 177  ASP177     -0.2456
    168  N         81.8540   -2.5260   61.5870 N.am  178  LEU178     -0.1979
    169  CA        80.6630   -1.9460   62.1990 C.3   178  LEU178      0.1596
    170  C         80.8500   -1.6770   63.6890 C.2   178  LEU178      0.2287
    171  O         79.9580   -1.1330   64.3400 O.2   178  LEU178     -0.2864
    172  CB        79.4560   -2.8630   61.9960 C.3   178  LEU178      0.0297
    173  CG        78.9050   -2.9830   60.5740 C.3   178  LEU178      0.0022
    174  CD1       77.7310   -3.9490   60.5560 C.3   178  LEU178      0.0001
    175  CD2       78.4850   -1.6280   60.0250 C.3   178  LEU178      0.0001
    176  N         86.4750   -8.1960   58.0850 N.3   214  SER214     -0.1202
    177  CA        85.3180   -7.5770   57.4550 C.3   214  SER214      0.2020
    178  C         85.1940   -8.1130   56.0340 C.2   214  SER214      0.2619
    179  O         86.0070   -7.7890   55.1680 O.2   214  SER214     -0.2717
    180  CB        85.4450   -6.0540   57.4410 C.3   214  SER214      0.2103
    181  OG        84.3210   -5.4590   56.8190 O.3   214  SER214     -0.2182
    182  N         84.1820   -8.9390   55.7980 N.am  215  GLY215     -0.1942
    183  CA        83.9990   -9.5470   54.4960 C.3   215  GLY215      0.2014
    184  C         83.5960   -8.5250   53.4540 C.2   215  GLY215      0.2638
    185  O         83.8990   -8.6790   52.2740 O.2   215  GLY215     -0.2714
    186  N         82.9120   -7.4740   53.8920 N.am  216  LEU216     -0.1977
    187  CA        82.4730   -6.4220   52.9820 C.3   216  LEU216      0.1596
    188  C         83.6450   -5.5580   52.5260 C.2   216  LEU216      0.2287
    189  O         83.8330   -5.3370   51.3290 O.2   216  LEU216     -0.2864
    190  CB        81.4090   -5.5530   53.6500 C.3   216  LEU216      0.0297
    191  CG        80.8370   -4.4060   52.8150 C.3   216  LEU216      0.0022
    192  CD1       80.2930   -4.9050   51.4810 C.3   216  LEU216      0.0001
    193  CD2       79.7480   -3.6990   53.5970 C.3   216  LEU216      0.0001
@<TRIPOS>BOND
     1    85    84    2
     2    84    83    1
     3    83    82    1
     4    83    86    1
     5    68    67    2
     6    64    63    1
     7    86    87    1
     8    76    75    2
     9    75    74    1
    10    67    66    1
    11    63    60    1
    12    73    74    1
    13    74    77    1
    14    66    65    1
    15    66    69    1
    16    87    88   ar
    17    87    89   ar
    18    65    61   am
    19    78    77    1
    20    78    79    1
    21    61    60    1
    22    61    62    2
    23    60    59    1
    24    71    70    2
    25    90    91    1
    26    69    70    1
    27    70    72   am
    28    91    92    1
    29    97    96    2
    30    37    36    2
    31    80    79    1
    32    80    81    1
    33    59    55   am
    34   118   116   ar
    35   115   116    1
    36   115   112    1
    37    43    42    2
    38   111   112    1
    39   106   107    1
    40   106   109    1
    41   106   105    1
    42    94    92   am
    43    94    95    1
    44    38    39    1
    45    38    35    1
    46   110   109    1
    47    96   105   am
    48    96    95    1
    49    92    93    2
    50    36    35    1
    51    36    40   am
    52   107   108    2
    53   114   113    2
    54   116   117   ar
    55    55    56    2
    56    55    54    1
    57   112   113    1
    58    35    34    1
    59    41    42    1
    60    41    40    1
    61    41    44    1
    62    95    98    1
    63   189   188    2
    64    47    48    1
    65   113   119   am
    66   192   191    1
    67    57    54    1
    68    57    58    1
    69    53    54    1
    70    53    49   am
    71    46    44    1
    72    45    44    1
    73   185   184    2
    74   102   104   ar
    75   102   100   ar
    76   104   103   ar
    77   100    99   ar
    78    34    27   am
    79   103   101   ar
    80   119   120    1
    81    99   101   ar
    82    99    98    1
    83   188   187    1
    84    28    27    2
    85    48    49    1
    86    48    51    1
    87   191   193    1
    88   191   190    1
    89   132   131    1
    90   132   126    1
    91    49    50    2
    92   187   190    1
    93   187   186    1
    94   120   121    1
    95   120   123    1
    96    27    26    1
    97   131   130    1
    98    52    51    1
    99   130   127    1
   100   126   121   am
   101   126   127    1
   102   184   186   am
   103   184   183    1
   104   121   122    2
   105   125   123    1
   106   127   128    1
   107   123   124    1
   108   183   182    1
   109    26    29    1
   110    26    25    1
   111    24    23    2
   112    29    30    1
   113   142   141    1
   114   179   178    2
   115    23    25   am
   116    23    22    1
   117   128   133   am
   118   128   129    2
   119   182   178   am
   120   133   134    1
   121    22    21    1
   122   178   177    1
   123    32    31    1
   124    32    33    1
   125   141   138    1
   126    30    31    1
   127   181   180    1
   128   140   139    2
   129    21    18   am
   130     6     5    1
   131   137   138    1
   132   137   135   am
   133   134   135    1
   134   180   177    1
   135   177   176    1
   136   138   139    1
   137    14    13    2
   138     8     9    1
   139     8     3   am
   140   150   148   am
   141   135   136    2
   142   167   165   ar
   143     9    10    1
   144     9    12    1
   145     5     2    1
   146     5     7    1
   147   149   148    2
   148    18    19    2
   149    18    17    1
   150     2     3    1
   151     2     1    1
   152    10    16   am
   153    10    11    2
   154   165   166   ar
   155   165   164    1
   156   148   147    1
   157    13    12    1
   158    13    15   am
   159    16    17    1
   160     3     4    2
   161   158   159    1
   162   158   157    1
   163   164   161    1
   164    17    20    1
   165   157   156    1
   166   156   155    1
   167   175   173    1
   168   147   144    1
   169   151   152    1
   170   151   145   am
   171   152   155    1
   172   152   153    1
   173   174   173    1
   174   173   172    1
   175   161   160    1
   176   161   162    1
   177   144   145    1
   178   144   143    1
   179   145   146    2
   180   162   168   am
   181   162   163    2
   182   153   154    2
   183   168   169    1
   184   172   169    1
   185   169   170    1
   186   170   171    2
