@<TRIPOS>MOLECULE
tmp/4zklB01.pdb
 171 167 0 0 0
SMALL
GASTEIGER

@<TRIPOS>ATOM
      1  N         32.0480    1.0820   17.1150 N.3     6  ILE6       -0.1231
      2  CA        32.8360    0.4150   16.1570 C.3     6  ILE6        0.1692
      3  C         32.6860    0.8980   14.7220 C.2     6  ILE6        0.2592
      4  O         33.6050    0.8160   13.9290 O.2     6  ILE6       -0.2718
      5  CB        32.6760   -1.1250   16.2660 C.3     6  ILE6        0.0266
      6  CG1       33.7370   -1.8380   15.4620 C.3     6  ILE6        0.0019
      7  CG2       31.3570   -1.5990   15.7710 C.3     6  ILE6        0.0020
      8  CD1       34.4380   -2.9050   16.2920 C.3     6  ILE6        0.0001
      9  N         31.5120    1.3400   14.3600 N.am    7  PHE7       -0.1976
     10  CA        31.2700    1.7990   13.0080 C.3     7  PHE7        0.1639
     11  C         31.9760    3.0890   12.7140 C.2     7  PHE7        0.2290
     12  O         32.3130    3.3490   11.5670 O.2     7  PHE7       -0.2864
     13  CB        29.7480    1.8780   12.7480 C.3     7  PHE7        0.0560
     14  CG        29.0730    0.5120   12.5600 C.ar    7  PHE7       -0.0200
     15  CD1       29.7950   -0.6650   12.4410 C.ar    7  PHE7       -0.0042
     16  CD2       27.7250    0.4270   12.4770 C.ar    7  PHE7       -0.0042
     17  CE1       29.1720   -1.8790   12.2600 C.ar    7  PHE7       -0.0003
     18  CE2       27.0920   -0.7890   12.2770 C.ar    7  PHE7       -0.0003
     19  CZ        27.8160   -1.9420   12.1580 C.ar    7  PHE7       -0.0000
     20  N         35.3710    2.2570   11.7240 N.3    10  ILE10      -0.1245
     21  CA        35.4340    1.7800   10.3520 C.3    10  ILE10       0.1561
     22  C         35.4940    2.9540    9.3850 C.2    10  ILE10       0.2260
     23  O         36.1730    2.9410    8.3260 O.2    10  ILE10      -0.2867
     24  CB        34.2750    0.7830   10.0810 C.3    10  ILE10       0.0252
     25  CG1       34.5620   -0.4800   10.8890 C.3    10  ILE10       0.0019
     26  CG2       34.1520    0.4800    8.6070 C.3    10  ILE10       0.0019
     27  CD1       33.6130   -1.6480   10.7840 C.3    10  ILE10       0.0001
     28  N         40.1380    0.5880   11.7890 N.3    15  ILE15      -0.1231
     29  CA        40.1350   -0.8490   11.7530 C.3    15  ILE15       0.1678
     30  C         39.5990   -1.2700   10.4080 C.2    15  ILE15       0.2434
     31  O         38.8420   -0.5470    9.7850 O.2    15  ILE15      -0.2733
     32  CB        39.2840   -1.5210   12.8660 C.3    15  ILE15       0.0265
     33  CG1       37.7890   -1.3170   12.6580 C.3    15  ILE15       0.0019
     34  CG2       39.7510   -1.0680   14.2460 C.3    15  ILE15       0.0020
     35  CD1       37.0170   -1.5040   13.9370 C.3    15  ILE15       0.0001
     36  N         40.0030   -2.4670    9.9820 N.am   16  PRO16      -0.2718
     37  CA        39.7740   -2.8290    8.5850 C.3    16  PRO16       0.1535
     38  C         38.3500   -3.3130    8.4080 C.2    16  PRO16       0.2598
     39  O         37.7750   -3.7900    9.3720 O.2    16  PRO16      -0.2715
     40  CB        40.7540   -4.0000    8.3580 C.3    16  PRO16       0.0310
     41  CG        40.8980   -4.6230    9.7210 C.3    16  PRO16       0.0237
     42  CD        40.8160   -3.4910   10.6990 C.3    16  PRO16       0.0939
     43  N         37.8930   -3.1840    7.1750 N.am   17  ALA17      -0.1978
     44  CA        36.6820   -3.7140    6.6910 C.3    17  ALA17       0.1597
     45  C         36.7950   -3.8630    5.1670 C.2    17  ALA17       0.2287
     46  O         37.6880   -3.2280    4.5490 O.2    17  ALA17      -0.2864
     47  CB        35.5520   -2.7520    7.0300 C.3    17  ALA17       0.0319
     48  N         30.0250   -1.9900    3.4160 N.3    29  PHE29      -0.1227
     49  CA        30.9970   -3.0070    3.5860 C.3    29  PHE29       0.1736
     50  C         30.3850   -4.3580    4.0150 C.2    29  PHE29       0.2595
     51  O         29.3080   -4.4390    4.5750 O.2    29  PHE29      -0.2718
     52  CB        32.0060   -2.5020    4.6160 C.3    29  PHE29       0.0547
     53  CG        31.3810   -2.1310    5.9140 C.ar   29  PHE29      -0.0202
     54  CD1       30.8270   -0.8700    6.1100 C.ar   29  PHE29      -0.0042
     55  CD2       31.3390   -3.0280    6.9720 C.ar   29  PHE29      -0.0042
     56  CE1       30.2270   -0.5180    7.3430 C.ar   29  PHE29      -0.0003
     57  CE2       30.7630   -2.6500    8.2090 C.ar   29  PHE29      -0.0003
     58  CZ        30.1880   -1.4010    8.3900 C.ar   29  PHE29      -0.0000
     59  N         31.1770   -5.3960    3.8280 N.am   30  HIS30      -0.1961
     60  CA        30.8350   -6.7630    4.2040 C.3    30  HIS30       0.1787
     61  C         30.6770   -6.9700    5.7170 C.2    30  HIS30       0.2620
     62  O         31.4510   -6.4550    6.5110 O.2    30  HIS30      -0.2715
     63  CB        31.7640   -7.6940    3.5680 C.3    30  HIS30       0.0785
     64  CG        31.6150   -7.7160    2.1040 C.ar   30  HIS30       0.0821
     65  ND1       30.5390   -8.2880    1.5070 N.ar   30  HIS30      -0.2267
     66  CD2       32.4110   -7.3020    1.0990 C.ar   30  HIS30       0.1154
     67  CE1       30.6630   -8.2440    0.1890 C.ar   30  HIS30       0.1986
     68  NE2       31.7660   -7.5870   -0.0850 N.ar   30  HIS30      -0.2212
     69  N         29.5290   -7.5770    6.0970 N.am   31  ASP31      -0.1957
     70  CA        29.2810   -7.9780    7.4600 C.3    31  ASP31       0.1840
     71  C         30.2640   -9.1140    7.8690 C.2    31  ASP31       0.2622
     72  O         30.4640  -10.0920    7.1310 O.2    31  ASP31      -0.2715
     73  CB        27.8790   -8.5260    7.6940 C.3    31  ASP31       0.1450
     74  CG        27.5220   -8.4860    9.1700 C.2    31  ASP31       0.3671
     75  OD1       27.9190   -9.3590    9.9330 O.co2  31  ASP31      -0.2456
     76  OD2       26.8610   -7.4970    9.6260 O.co2  31  ASP31      -0.2456
     77  N         30.8100   -8.9800    9.0760 N.am   32  ILE32      -0.1963
     78  CA        31.8030   -9.8540    9.5570 C.3    32  ILE32       0.1727
     79  C         31.2800  -11.1730    9.9910 C.2    32  ILE32       0.2616
     80  O         32.0630  -12.1070   10.0920 O.2    32  ILE32      -0.2715
     81  CB        32.5640   -9.2160   10.7190 C.3    32  ILE32       0.0290
     82  CG1       33.8770   -9.9390   10.9210 C.3    32  ILE32       0.0022
     83  CG2       31.7090   -9.1580   11.9960 C.3    32  ILE32       0.0023
     84  CD1       35.0300   -9.0070   11.0300 C.3    32  ILE32       0.0001
     85  N         29.9760  -11.2700   10.3130 N.am   33  SER33      -0.1950
     86  CA        29.2970  -12.5460   10.6450 C.3    33  SER33       0.1924
     87  C         28.1560  -12.6910    9.6870 C.2    33  SER33       0.2314
     88  O         26.9930  -12.4830   10.0590 O.2    33  SER33      -0.2863
     89  CB        28.6990  -12.5100   12.0670 C.3    33  SER33       0.2116
     90  OG        29.6870  -12.1920   13.0360 O.3    33  SER33      -0.2180
     91  N         25.0360  -13.8360    7.4950 N.3    35  GLN35      -0.1245
     92  CA        23.8960  -14.6670    7.6980 C.3    35  GLN35       0.1566
     93  C         23.3810  -15.0840    6.3570 C.2    35  GLN35       0.2260
     94  O         22.2700  -15.7000    6.2830 O.2    35  GLN35      -0.2867
     95  CB        22.7680  -13.8470    8.3920 C.3    35  GLN35       0.0367
     96  CG        23.0800  -13.3310    9.8290 C.3    35  GLN35       0.0905
     97  CD        23.4820  -14.4600   10.7460 C.2    35  GLN35       0.2608
     98  OE1       22.7310  -15.4430   10.9170 O.2    35  GLN35      -0.2717
     99  NE2       24.7520  -14.4340   11.2280 N.am   35  GLN35      -0.0878
    100  N         26.2200  -10.7730    2.4170 N.3    39  HIS39      -0.1241
    101  CA        25.6360  -10.0250    3.4990 C.3    39  HIS39       0.1621
    102  C         26.4440   -8.7940    3.8000 C.2    39  HIS39       0.2264
    103  O         27.6220   -8.9090    4.1840 O.2    39  HIS39      -0.2867
    104  CB        25.5100  -10.8730    4.7870 C.3    39  HIS39       0.0745
    105  CG        24.9040  -10.1230    5.9730 C.ar   39  HIS39       0.0817
    106  ND1       24.7210  -10.6920    7.2280 N.ar   39  HIS39      -0.2268
    107  CD2       24.4740   -8.8230    6.0970 C.ar   39  HIS39       0.1154
    108  CE1       24.2800   -9.7750    8.0760 C.ar   39  HIS39       0.1986
    109  NE2       24.1220   -8.6380    7.4170 N.ar   39  HIS39      -0.2212
    110  N         26.5550   -4.2730    4.9770 N.3    41  LEU41      -0.1245
    111  CA        25.9740   -3.1150    5.5830 C.3    41  LEU41       0.1561
    112  C         26.1750   -1.8100    4.8550 C.2    41  LEU41       0.2260
    113  O         27.1880   -1.5920    4.2450 O.2    41  LEU41      -0.2867
    114  CB        26.4590   -2.8950    7.0080 C.3    41  LEU41       0.0270
    115  CG        26.4020   -4.1510    7.8200 C.3    41  LEU41       0.0019
    116  CD1       27.1190   -3.8610    9.0770 C.3    41  LEU41       0.0001
    117  CD2       25.0100   -4.5390    8.2780 C.3    41  LEU41       0.0001
    118  N         17.2440   -2.5150   12.0180 N.3    87  ASN87      -0.1240
    119  CA        16.7950   -2.8510   13.3270 C.3    87  ASN87       0.1653
    120  C         16.7970   -1.6890   14.2480 C.2    87  ASN87       0.2266
    121  O         17.7680   -0.9230   14.2610 O.2    87  ASN87      -0.2867
    122  CB        17.7400   -3.8460   13.9350 C.3    87  ASN87       0.1155
    123  CG        17.8090   -5.1660   13.1530 C.2    87  ASN87       0.2627
    124  OD1       16.8250   -5.6780   12.6380 O.2    87  ASN87      -0.2716
    125  ND2       19.0030   -5.7850   13.1690 N.am   87  ASN87      -0.0877
    126  N         16.6020   -5.9650   17.9130 N.3    93  GLY93      -0.1210
    127  CA        17.8270   -6.7140   17.9660 C.3    93  GLY93       0.1956
    128  C         18.9750   -5.8260   17.5760 C.2    93  GLY93       0.2612
    129  O         19.9880   -6.3110   17.0860 O.2    93  GLY93      -0.2717
    130  N         18.8290   -4.5070   17.7510 N.am   94  GLN94      -0.1965
    131  CA        19.8640   -3.5920   17.3450 C.3    94  GLN94       0.1733
    132  C         20.9320   -3.7290   18.3930 C.2    94  GLN94       0.2617
    133  O         20.6550   -3.7470   19.6060 O.2    94  GLN94      -0.2715
    134  CB        19.3940   -2.1570   17.3590 C.3    94  GLN94       0.0408
    135  CG        20.4530   -1.1710   16.9000 C.3    94  GLN94       0.0908
    136  CD        20.0270    0.2800   16.9220 C.2    94  GLN94       0.2608
    137  OE1       18.9050    0.6750   17.2810 O.2    94  GLN94      -0.2717
    138  NE2       20.9620    1.1060   16.4920 N.am   94  GLN94      -0.0878
    139  N         22.1680   -3.8190   17.9520 N.am   95  SER95      -0.1936
    140  CA        23.2320   -3.6090   19.0040 C.3    95  SER95       0.2055
    141  C         24.4630   -2.6890   18.8070 C.2    95  SER95       0.2642
    142  O         25.1360   -2.4390   19.7560 O.2    95  SER95      -0.2714
    143  CB        23.6210   -4.9310   19.6940 C.3    95  SER95       0.2130
    144  OG        24.0650   -4.6180   21.0290 O.3    95  SER95      -0.2179
    145  N         24.7420   -2.2650   17.5750 N.am   96  VAL96      -0.1977
    146  CA        25.5910   -1.1580   17.3690 C.3    96  VAL96       0.1596
    147  C         24.6530    0.0530   17.2640 C.2    96  VAL96       0.2287
    148  O         23.8100    0.0950   16.3610 O.2    96  VAL96      -0.2864
    149  CB        26.4420   -1.2540   16.0910 C.3    96  VAL96       0.0276
    150  CG1       27.3070   -0.0350   15.9890 C.3    96  VAL96       0.0022
    151  CG2       27.3360   -2.4760   16.1480 C.3    96  VAL96       0.0022
    152  N         22.2350    1.6010   10.6050 N.3   100  HIS100     -0.1241
    153  CA        22.8250    0.7200    9.5090 C.3   100  HIS100      0.1621
    154  C         21.7010   -0.1000    8.8670 C.2   100  HIS100      0.2264
    155  O         20.7560   -0.4930    9.5190 O.2   100  HIS100     -0.2867
    156  CB        23.8710   -0.2410   10.0240 C.3   100  HIS100      0.0745
    157  CG        23.4490   -1.0390   11.2290 C.ar  100  HIS100      0.0817
    158  ND1       23.3660   -0.4990   12.5020 N.ar  100  HIS100     -0.2268
    159  CD2       23.2270   -2.3650   11.3900 C.ar  100  HIS100      0.1154
    160  CE1       23.0550   -1.4450   13.3860 C.ar  100  HIS100      0.1986
    161  NE2       22.9510   -2.5840   12.7310 N.ar  100  HIS100     -0.2212
    162  N         21.1020   -3.5690    6.8360 N.3   102  HIS102     -0.1297
    163  CA        21.6140   -4.8490    6.3320 C.3   102  HIS102      0.1306
    164  C         21.0850   -5.1180    5.0420 C.3   102  HIS102      0.2013
    165  O         19.8440   -4.8840    4.7940 O.3   102  HIS102     -0.2188
    166  CB        21.2190   -5.9310    7.1910 C.3   102  HIS102      0.0691
    167  CG        21.6430   -5.7810    8.6130 C.ar  102  HIS102      0.0814
    168  ND1       22.6830   -6.4730    9.1340 N.ar  102  HIS102     -0.2268
    169  CD2       21.0890   -5.1320    9.6570 C.ar  102  HIS102      0.1154
    170  CE1       22.7510   -6.2810   10.4370 C.ar  102  HIS102      0.1986
    171  NE2       21.8200   -5.4270   10.7750 N.ar  102  HIS102     -0.2212
@<TRIPOS>BOND
     1    68    67   ar
     2    68    66   ar
     3    67    65   ar
     4    66    64   ar
     5    65    64   ar
     6    64    63    1
     7   100   101    1
     8    48    49    1
     9   101   102    1
    10   101   104    1
    11    63    60    1
    12    49    50    1
    13    49    52    1
    14   102   103    2
    15    59    50   am
    16    59    60    1
    17    50    51    2
    18    60    61    1
    19   113   112    2
    20    46    45    2
    21    52    53    1
    22   104   105    1
    23   165   164    1
    24   112   111    1
    25   110   111    1
    26   164   163    1
    27    45    44    1
    28   111   114    1
    29    61    69   am
    30    61    62    2
    31    53    54   ar
    32    53    55   ar
    33   105   107   ar
    34   105   106   ar
    35   107   109   ar
    36    69    70    1
    37    54    56   ar
    38    94    93    2
    39   163   162    1
    40   163   166    1
    41    93    92    1
    42    44    47    1
    43    44    43    1
    44    55    57   ar
    45   114   115    1
    46    72    71    2
    47    43    38   am
    48   166   167    1
    49   106   108   ar
    50    56    58   ar
    51   109   108   ar
    52    70    73    1
    53    70    71    1
    54    91    92    1
    55    73    74    1
    56    92    95    1
    57   115   117    1
    58   115   116    1
    59    71    77   am
    60    57    58   ar
    61    23    22    2
    62    40    37    1
    63    40    41    1
    64    95    96    1
    65    38    37    1
    66    38    39    2
    67    37    36    1
    68    26    24    1
    69   167   168   ar
    70   167   169   ar
    71   154   153    1
    72   154   155    2
    73    77    78    1
    74   168   170   ar
    75    74    76   ar
    76    74    75   ar
    77    22    21    1
    78   153   156    1
    79   153   152    1
    80    78    79    1
    81    78    81    1
    82   169   171   ar
    83    87    88    2
    84    87    86    1
    85    41    42    1
    86    31    30    2
    87    96    97    1
    88    36    30   am
    89    36    42    1
    90    79    80    2
    91    79    85   am
    92   156   157    1
    93    24    21    1
    94    24    25    1
    95    85    86    1
    96    21    20    1
    97    30    29    1
    98   170   171   ar
    99    86    89    1
   100    81    82    1
   101    81    83    1
   102    97    98    2
   103    97    99   am
   104    27    25    1
   105    82    84    1
   106   157   159   ar
   107   157   158   ar
   108   159   161   ar
   109    12    11    2
   110    29    28    1
   111    29    32    1
   112   118   119    1
   113    89    90    1
   114    19    17   ar
   115    19    18   ar
   116    17    15   ar
   117    18    16   ar
   118    15    14   ar
   119    16    14   ar
   120   158   160   ar
   121    14    13    1
   122   124   123    2
   123    33    32    1
   124    33    35    1
   125    11    10    1
   126   161   160   ar
   127    13    10    1
   128    32    34    1
   129    10     9    1
   130   123   125   am
   131   123   122    1
   132   119   122    1
   133   119   120    1
   134     4     3    2
   135   120   121    2
   136     9     3   am
   137     3     2    1
   138     6     5    1
   139     6     8    1
   140     7     5    1
   141   150   149    1
   142   149   151    1
   143   149   146    1
   144     2     5    1
   145     2     1    1
   146   148   147    2
   147   138   136   am
   148   135   136    1
   149   135   134    1
   150   136   137    2
   151   129   128    2
   152   147   146    1
   153   131   134    1
   154   131   130    1
   155   131   132    1
   156   146   145    1
   157   145   141   am
   158   128   130   am
   159   128   127    1
   160   126   127    1
   161   139   132   am
   162   139   140    1
   163   132   133    2
   164   141   140    1
   165   141   142    2
   166   140   143    1
   167   143   144    1
