@<TRIPOS>MOLECULE
tmp/4zknA00.pdb
 74 75 0 0 0
SMALL
GASTEIGER

@<TRIPOS>ATOM
      1  N        -27.4230  -15.4000  -27.3580 N.3    37  SER37      -0.1203
      2  CA       -27.0500  -15.1570  -28.7570 C.3    37  SER37       0.2005
      3  C        -25.5200  -15.1880  -28.7840 C.2    37  SER37       0.2461
      4  O        -24.9000  -15.1070  -27.7320 O.2    37  SER37      -0.2732
      5  CB       -27.6300  -13.8270  -29.2710 C.3    37  SER37       0.2103
      6  OG       -26.9380  -12.7170  -28.7450 O.3    37  SER37      -0.2182
      7  N        -24.8890  -15.3300  -29.9680 N.am   38  PRO38      -0.2717
      8  CA       -23.4310  -15.4770  -29.9890 C.3    38  PRO38       0.1535
      9  C        -22.6570  -14.4310  -29.1680 C.2    38  PRO38       0.2599
     10  O        -21.6480  -14.7640  -28.5480 O.2    38  PRO38      -0.2715
     11  CB       -23.0910  -15.3810  -31.4820 C.3    38  PRO38       0.0310
     12  CG       -24.3120  -15.9220  -32.1440 C.3    38  PRO38       0.0237
     13  CD       -25.4760  -15.4510  -31.3150 C.3    38  PRO38       0.0939
     14  N        -23.1410  -13.1850  -29.1540 N.am   39  CYS39      -0.1954
     15  CA       -22.4210  -12.1010  -28.4840 C.3    39  CYS39       0.1843
     16  C        -22.9640  -11.7170  -27.1130 C.2    39  CYS39       0.2625
     17  O        -22.3840  -10.8430  -26.4540 O.2    39  CYS39      -0.2714
     18  CB       -22.3870  -10.8390  -29.3680 C.3    39  CYS39       0.0997
     19  SG       -21.6320  -11.0690  -31.0180 S.3    39  CYS39      -0.0797
     20  N        -24.0440  -12.3780  -26.6810 N.am   40  TRP40      -0.1974
     21  CA       -24.7810  -11.9760  -25.4650 C.3    40  TRP40       0.1640
     22  C        -25.0190  -13.0590  -24.4230 C.2    40  TRP40       0.2290
     23  O        -25.6420  -14.0860  -24.6990 O.2    40  TRP40      -0.2864
     24  CB       -26.1080  -11.3280  -25.8340 C.3    40  TRP40       0.0576
     25  CG       -25.9060  -10.0230  -26.5520 C.ar   40  TRP40       0.0006
     26  CD1      -25.8610   -9.8330  -27.9070 C.ar   40  TRP40       0.0946
     27  CD2      -25.6530   -8.7430  -25.9560 C.ar   40  TRP40       0.0152
     28  NE1      -25.6210   -8.5070  -28.1890 N.ar   40  TRP40      -0.2442
     29  CE2      -25.4950   -7.8160  -27.0110 C.ar   40  TRP40       0.0810
     30  CE3      -25.5820   -8.2850  -24.6330 C.ar   40  TRP40       0.0012
     31  CZ2      -25.2640   -6.4550  -26.7850 C.ar   40  TRP40       0.0191
     32  CZ3      -25.3380   -6.9230  -24.4080 C.ar   40  TRP40       0.0001
     33  CH2      -25.1870   -6.0240  -25.4810 C.ar   40  TRP40       0.0015
     34  N        -17.1540  -13.2760  -31.1510 N.3   109  CYS109     -0.1221
     35  CA       -18.1840  -13.7810  -30.2400 C.3   109  CYS109      0.1808
     36  C        -18.1700  -15.3160  -30.1480 C.2   109  CYS109      0.2601
     37  O        -17.2420  -15.9750  -30.6340 O.2   109  CYS109     -0.2717
     38  CB       -19.5640  -13.2650  -30.6700 C.3   109  CYS109      0.0970
     39  SG       -19.6730  -11.4550  -30.7060 S.3   109  CYS109     -0.0800
     40  N        -19.1820  -15.8800  -29.4930 N.am  110  ALA110     -0.1965
     41  CA       -19.2950  -17.3320  -29.3610 C.3   110  ALA110      0.1728
     42  C        -19.4060  -18.0090  -30.7180 C.2   110  ALA110      0.2616
     43  O        -20.0530  -17.4990  -31.6280 O.2   110  ALA110     -0.2715
     44  CB       -20.4800  -17.7090  -28.4940 C.3   110  ALA110      0.0334
     45  N        -18.7550  -19.1570  -30.8340 N.am  111  GLN111     -0.1964
     46  CA       -18.8830  -20.0190  -31.9930 C.3   111  GLN111      0.1718
     47  C        -19.5240  -21.3180  -31.4910 C.2   111  GLN111      0.2458
     48  O        -18.9270  -22.0200  -30.6780 O.2   111  GLN111     -0.2730
     49  CB       -17.5150  -20.3130  -32.6050 C.3   111  GLN111      0.0407
     50  CG       -16.6460  -19.0880  -32.9150 C.3   111  GLN111      0.0908
     51  CD       -15.2530  -19.4760  -33.4140 C.2   111  GLN111      0.2608
     52  OE1      -14.2410  -18.9810  -32.9170 O.2   111  GLN111     -0.2717
     53  NE2      -15.2030  -20.3870  -34.3860 N.am  111  GLN111     -0.0878
     54  N        -20.7660  -21.6130  -31.9220 N.am  112  PRO112     -0.2727
     55  CA       -21.4430  -22.8400  -31.4770 C.3   112  PRO112      0.1402
     56  C        -20.6190  -24.0970  -31.7450 C.2   112  PRO112      0.2269
     57  O        -19.9330  -24.1850  -32.7740 O.2   112  PRO112     -0.2865
     58  CB       -22.7260  -22.8490  -32.3040 C.3   112  PRO112      0.0296
     59  CG       -22.9940  -21.3880  -32.5820 C.3   112  PRO112      0.0237
     60  CD       -21.6380  -20.7810  -32.7740 C.3   112  PRO112      0.0939
     61  N        -26.6670  -21.7350  -27.8030 N.3   118  THR118     -0.1218
     62  CA       -27.5610  -20.7430  -27.2030 C.3   118  THR118      0.1862
     63  C        -28.8220  -21.3950  -26.6340 C.2   118  THR118      0.2287
     64  O        -29.1680  -22.5190  -27.0020 O.2   118  THR118     -0.2866
     65  CB       -27.9750  -19.6650  -28.2160 C.3   118  THR118      0.1770
     66  OG1      -28.6080  -20.3100  -29.3230 O.3   118  THR118     -0.2211
     67  CG2      -26.7790  -18.8630  -28.7020 C.3   118  THR118      0.0375
     68  N        -29.9170   -5.4690  -26.3980 N.3   244  THR244     -0.1218
     69  CA       -29.0590   -6.3350  -27.2130 C.3   244  THR244      0.1862
     70  C        -29.0170   -5.8990  -28.6800 C.2   244  THR244      0.2287
     71  O        -28.0740   -6.2500  -29.4010 O.2   244  THR244     -0.2866
     72  CB       -29.4860   -7.8190  -27.1480 C.3   244  THR244      0.1770
     73  OG1      -30.8570   -7.9250  -27.5290 O.3   244  THR244     -0.2211
     74  CG2      -29.2920   -8.4020  -25.7420 C.3   244  THR244      0.0375
@<TRIPOS>BOND
     1    53    51   am
     2    51    52    2
     3    51    50    1
     4    50    49    1
     5    57    56    2
     6    60    59    1
     7    60    54    1
     8    49    46    1
     9    59    58    1
    10    58    55    1
    11    12    11    1
    12    12    13    1
    13    46    47    1
    14    46    45    1
    15    54    47   am
    16    54    55    1
    17    56    55    1
    18    43    42    2
    19    47    48    2
    20    11     8    1
    21    13     7    1
    22    34    35    1
    23    19    39    1
    24    19    18    1
    25    45    42   am
    26    42    41    1
    27    39    38    1
    28    38    35    1
    29    37    36    2
    30    35    36    1
    31    36    40   am
    32     8     7    1
    33     8     9    1
    34     7     3   am
    35    40    41    1
    36    71    70    2
    37    18    15    1
    38    41    44    1
    39    66    65    1
    40     5     2    1
    41     5     6    1
    42     9    14   am
    43     9    10    2
    44    14    15    1
    45     3     2    1
    46     3     4    2
    47     2     1    1
    48    67    65    1
    49    70    69    1
    50    15    16    1
    51    65    62    1
    52    28    26   ar
    53    28    29   ar
    54    26    25   ar
    55    61    62    1
    56    73    72    1
    57    69    72    1
    58    69    68    1
    59    62    63    1
    60    72    74    1
    61    16    20   am
    62    16    17    2
    63    29    31   ar
    64    29    27   ar
    65    64    63    2
    66    31    33   ar
    67    20    21    1
    68    25    27   ar
    69    25    24    1
    70    27    30   ar
    71    24    21    1
    72    33    32   ar
    73    21    22    1
    74    23    22    2
    75    30    32   ar
