@<TRIPOS>MOLECULE
tmp/4zkrA00.pdb
 118 117 0 0 0
SMALL
GASTEIGER

@<TRIPOS>ATOM
      1  N        -27.2850   -8.2550   -9.5050 N.3    46  HIS46      -0.1241
      2  CA       -26.6490   -8.3570   -8.1730 C.3    46  HIS46       0.1621
      3  C        -25.2390   -8.9890   -8.1790 C.2    46  HIS46       0.2264
      4  O        -24.4320   -8.7080   -7.2960 O.2    46  HIS46      -0.2867
      5  CB       -27.5970   -9.0440   -7.1430 C.3    46  HIS46       0.0745
      6  CG       -27.3660  -10.5220   -6.9710 C.ar   46  HIS46       0.0817
      7  ND1      -28.2200  -11.4810   -7.4940 N.ar   46  HIS46      -0.2268
      8  CD2      -26.3890  -11.2010   -6.3050 C.ar   46  HIS46       0.1154
      9  CE1      -27.7820  -12.6800   -7.1530 C.ar   46  HIS46       0.1986
     10  NE2      -26.6750  -12.5370   -6.4280 N.ar   46  HIS46      -0.2212
     11  N        -34.1750   -9.0600   -4.3260 N.3    94  HIS94      -0.1241
     12  CA       -33.7550   -8.2090   -5.4020 C.3    94  HIS94       0.1621
     13  C        -34.7940   -8.0500   -6.5250 C.2    94  HIS94       0.2264
     14  O        -35.2550   -8.9690   -7.0780 O.2    94  HIS94      -0.2867
     15  CB       -32.5420   -8.8090   -6.0920 C.3    94  HIS94       0.0745
     16  CG       -31.4000   -9.1630   -5.1960 C.ar   94  HIS94       0.0817
     17  ND1      -30.6520   -8.2290   -4.5550 N.ar   94  HIS94      -0.2268
     18  CD2      -30.7860  -10.3380   -4.9790 C.ar   94  HIS94       0.1154
     19  CE1      -29.6790   -8.8180   -3.8970 C.ar   94  HIS94       0.1986
     20  NE2      -29.7540  -10.1010   -4.1200 N.ar   94  HIS94      -0.2212
     21  N        -31.8780  -27.5510   -4.2510 N.3   192  ASP192     -0.1225
     22  CA       -32.0340  -26.1130   -4.3770 C.3   192  ASP192      0.1805
     23  C        -30.7920  -25.4210   -5.0100 C.2   192  ASP192      0.2598
     24  O        -29.7140  -26.0110   -5.1180 O.2   192  ASP192     -0.2718
     25  CB       -32.3070  -25.5050   -2.9840 C.3   192  ASP192      0.1424
     26  CG       -33.0820  -24.1530   -3.0460 C.2   192  ASP192      0.3668
     27  OD1      -33.3440  -23.6650   -4.1560 O.co2 192  ASP192     -0.2456
     28  OD2      -33.4040  -23.5620   -1.9820 O.co2 192  ASP192     -0.2456
     29  N        -30.9640  -24.1510   -5.3870 N.am  193  SER193     -0.1938
     30  CA       -29.8360  -23.2530   -5.6770 C.3   193  SER193      0.2055
     31  C        -29.2840  -22.7080   -4.3800 C.2   193  SER193      0.2643
     32  O        -29.9410  -22.7390   -3.3410 O.2   193  SER193     -0.2714
     33  CB       -30.2530  -22.1180   -6.6280 C.3   193  SER193      0.2130
     34  OG       -31.3470  -21.4160   -6.0800 O.3   193  SER193     -0.2179
     35  N        -28.0330  -22.2640   -4.4240 N.am  194  CYS194     -0.1953
     36  CA       -27.3560  -21.7480   -3.2380 C.3   194  CYS194      0.1843
     37  C        -26.3430  -20.7330   -3.6810 C.2   194  CYS194      0.2625
     38  O        -26.2600  -20.4150   -4.8520 O.2   194  CYS194     -0.2714
     39  CB       -26.6770  -22.8760   -2.4200 C.3   194  CYS194      0.0997
     40  SG       -26.5490  -22.5290   -0.6020 S.3   194  CYS194     -0.0797
     41  N        -25.5810  -20.2240   -2.7270 N.am  195  GLN195     -0.1963
     42  CA       -24.6170  -19.1500   -2.9460 C.3   195  GLN195      0.1733
     43  C        -23.6440  -19.5240   -4.0210 C.2   195  GLN195      0.2616
     44  O        -22.9960  -20.5520   -3.9450 O.2   195  GLN195     -0.2715
     45  CB       -23.8960  -18.8510   -1.6350 C.3   195  GLN195      0.0408
     46  CG       -22.9390  -17.7080   -1.6880 C.3   195  GLN195      0.0908
     47  CD       -22.0050  -17.7150   -0.5020 C.2   195  GLN195      0.2608
     48  OE1      -22.3710  -18.1520    0.5800 O.2   195  GLN195     -0.2717
     49  NE2      -20.7990  -17.2160   -0.6950 N.am  195  GLN195     -0.0878
     50  N        -23.5540  -18.7000   -5.0560 N.am  196  GLY196     -0.1955
     51  CA       -22.6740  -18.9980   -6.1810 C.3   196  GLY196      0.1869
     52  C        -23.4570  -19.4540   -7.4000 C.2   196  GLY196      0.2309
     53  O        -22.9550  -19.3870   -8.5050 O.2   196  GLY196     -0.2863
     54  N        -26.0210  -17.8690   -8.5450 N.3   198  SER198     -0.1217
     55  CA       -26.7790  -16.6930   -9.0550 C.3   198  SER198      0.1889
     56  C        -26.3510  -16.3810  -10.4590 C.2   198  SER198      0.2288
     57  O        -25.2130  -16.6210  -10.8280 O.2   198  SER198     -0.2866
     58  CB       -26.5630  -15.4870   -8.1520 C.3   198  SER198      0.2089
     59  OG       -27.1900  -15.7280   -6.8960 O.3   198  SER198     -0.2183
     60  N        -31.4340  -17.5860  -11.7570 N.3   216  VAL216     -0.1231
     61  CA       -31.2170  -17.6260  -10.3190 C.3   216  VAL216      0.1692
     62  C        -31.0200  -16.2010   -9.7350 C.2   216  VAL216      0.2593
     63  O        -30.1820  -15.4160  -10.2000 O.2   216  VAL216     -0.2718
     64  CB       -30.0100  -18.5410   -9.9140 C.3   216  VAL216      0.0266
     65  CG1      -29.9320  -18.6540   -8.4360 C.3   216  VAL216      0.0020
     66  CG2      -30.0680  -19.9500  -10.5740 C.3   216  VAL216      0.0020
     67  N        -31.7860  -15.8530   -8.7030 N.am  217  SER217     -0.1938
     68  CA       -31.6540  -14.5200   -8.1880 C.3   217  SER217      0.2055
     69  C        -31.4590  -14.4400   -6.6650 C.2   217  SER217      0.2643
     70  O        -30.4770  -13.9020   -6.2280 O.2   217  SER217     -0.2714
     71  CB       -32.7870  -13.6260   -8.6690 C.3   217  SER217      0.2130
     72  OG       -32.7910  -12.4120   -7.9480 O.3   217  SER217     -0.2179
     73  N        -32.3970  -14.9510   -5.8650 N.am  218  TRP218     -0.1959
     74  CA       -32.2190  -14.9070   -4.3950 C.3   218  TRP218      0.1771
     75  C        -33.0000  -16.0140   -3.6660 C.2   218  TRP218      0.2620
     76  O        -33.7200  -16.7970   -4.3010 O.2   218  TRP218     -0.2715
     77  CB       -32.5700  -13.5290   -3.8520 C.3   218  TRP218      0.0590
     78  CG       -33.9920  -13.1750   -4.1040 C.ar  218  TRP218      0.0006
     79  CD1      -34.5140  -12.6740   -5.2620 C.ar  218  TRP218      0.0946
     80  CD2      -35.0950  -13.3160   -3.1910 C.ar  218  TRP218      0.0152
     81  NE1      -35.8530  -12.4890   -5.1200 N.ar  218  TRP218     -0.2442
     82  CE2      -36.2410  -12.8430   -3.8570 C.ar  218  TRP218      0.0810
     83  CE3      -35.2150  -13.7590   -1.8620 C.ar  218  TRP218      0.0012
     84  CZ2      -37.5190  -12.8590   -3.2730 C.ar  218  TRP218      0.0191
     85  CZ3      -36.4790  -13.7420   -1.2700 C.ar  218  TRP218      0.0001
     86  CH2      -37.6130  -13.2820   -1.9780 C.ar  218  TRP218      0.0015
     87  N        -32.8490  -16.0850   -2.3410 N.am  219  GLY219     -0.1954
     88  CA       -33.6740  -16.9610   -1.5010 C.3   219  GLY219      0.1869
     89  C        -33.2360  -16.7190   -0.0690 C.2   219  GLY219      0.2309
     90  O        -32.1700  -16.1770    0.1430 O.2   219  GLY219     -0.2863
     91  N        -31.5070  -18.6260    2.7130 N.3   221  GLY221     -0.1210
     92  CA       -30.7540  -19.8460    2.8500 C.3   221  GLY221      0.1956
     93  C        -30.8900  -20.7480    1.6380 C.2   221  GLY221      0.2612
     94  O        -31.1070  -20.2570    0.5710 O.2   221  GLY221     -0.2717
     95  N        -30.7810  -22.0330    1.8000 N.am  222  CYS222     -0.1970
     96  CA       -30.8630  -22.8830    0.6540 C.3   222  CYS222      0.1712
     97  C        -31.4470  -24.2180    1.1320 C.2   222  CYS222      0.2296
     98  O        -31.1090  -24.7110    2.2010 O.2   222  CYS222     -0.2864
     99  CB       -29.4470  -23.1240    0.1060 C.3   222  CYS222      0.0983
    100  SG       -28.3670  -21.6590   -0.0510 S.3   222  CYS222     -0.0798
    101  N        -38.3710  -21.1150   -0.8180 N.3   228  PRO228     -0.2102
    102  CA       -37.9260  -21.5340   -2.1500 C.3   228  PRO228      0.1504
    103  C        -36.7690  -20.6970   -2.7450 C.2   228  PRO228      0.2576
    104  O        -36.3780  -19.6750   -2.1670 O.2   228  PRO228     -0.2718
    105  CB       -39.2150  -21.5010   -3.0130 C.3   228  PRO228      0.0282
    106  CG       -40.2370  -20.7170   -2.2170 C.3   228  PRO228      0.0208
    107  CD       -39.8160  -20.7780   -0.7630 C.3   228  PRO228      0.0893
    108  N        -36.1680  -21.1720   -3.8430 N.am  229  GLY229     -0.1943
    109  CA       -35.2560  -20.3190   -4.5920 C.3   229  GLY229      0.2014
    110  C        -36.1270  -19.3730   -5.4100 C.2   229  GLY229      0.2638
    111  O        -37.2350  -19.7260   -5.8230 O.2   229  GLY229     -0.2714
    112  N        -35.6040  -18.1790   -5.6450 N.am  230  VAL230     -0.1977
    113  CA       -36.2700  -17.1000   -6.4240 C.3   230  VAL230      0.1596
    114  C        -35.4080  -16.7080   -7.6530 C.2   230  VAL230      0.2287
    115  O        -34.1660  -16.6800   -7.6000 O.2   230  VAL230     -0.2864
    116  CB       -36.7580  -15.8900   -5.4970 C.3   230  VAL230      0.0276
    117  CG1      -37.7480  -14.9600   -6.2480 C.3   230  VAL230      0.0022
    118  CG2      -37.3870  -16.4390   -4.1960 C.3   230  VAL230      0.0022
@<TRIPOS>BOND
     1    60    61    1
     2    57    56    2
     3    66    64    1
     4    56    55    1
     5    61    64    1
     6    61    62    1
     7    63    62    2
     8    64    65    1
     9    62    67   am
    10     1     2    1
    11    55    54    1
    12    55    58    1
    13    67    68    1
    14    71    68    1
    15    71    72    1
    16    53    52    2
    17    68    69    1
    18     3     2    1
    19     3     4    2
    20     2     5    1
    21    58    59    1
    22   114   115    2
    23   114   113    1
    24     7     9   ar
    25     7     6   ar
    26    52    51    1
    27     9    10   ar
    28     5     6    1
    29    14    13    2
    30     6     8   ar
    31    69    70    2
    32    69    73   am
    33    33    34    1
    34    33    30    1
    35    13    12    1
    36    10     8   ar
    37   113   112    1
    38   113   116    1
    39   117   116    1
    40    51    50    1
    41    15    12    1
    42    15    16    1
    43    73    74    1
    44   111   110    2
    45    30    29    1
    46    30    31    1
    47   112   110   am
    48   116   118    1
    49   110   109    1
    50    12    11    1
    51    29    23   am
    52    79    81   ar
    53    79    78   ar
    54    16    18   ar
    55    16    17   ar
    56    81    82   ar
    57    24    23    2
    58    50    43   am
    59    23    22    1
    60    18    20   ar
    61    38    37    2
    62   109   108    1
    63    17    19   ar
    64    35    31   am
    65    35    36    1
    66    74    77    1
    67    74    75    1
    68    31    32    2
    69    22    21    1
    70    22    25    1
    71    76    75    2
    72    27    26   ar
    73    20    19   ar
    74    78    77    1
    75    78    80   ar
    76    43    44    2
    77    43    42    1
    78    82    84   ar
    79    82    80   ar
    80   108   103   am
    81    37    36    1
    82    37    41   am
    83    75    87   am
    84    84    86   ar
    85    36    39    1
    86    80    83   ar
    87    26    25    1
    88    26    28   ar
    89   105   106    1
    90   105   102    1
    91    42    41    1
    92    42    45    1
    93   103   104    2
    94   103   102    1
    95    39    40    1
    96    87    88    1
    97   106   107    1
    98   102   101    1
    99    86    85   ar
   100    83    85   ar
   101    46    45    1
   102    46    47    1
   103    88    89    1
   104   101   107    1
   105    49    47   am
   106    40   100    1
   107    47    48    2
   108    89    90    2
   109   100    99    1
   110    99    96    1
   111    94    93    2
   112    96    97    1
   113    96    95    1
   114    97    98    2
   115    93    95   am
   116    93    92    1
   117    91    92    1
