@<TRIPOS>MOLECULE
tmp/4zl4B01.pdb
 74 71 0 0 0
SMALL
GASTEIGER

@<TRIPOS>ATOM
      1  N         -6.5160   69.2540    2.6590 N.3    74  CYS74      -0.1221
      2  CA        -5.2550   69.8080    2.1780 C.3    74  CYS74       0.1808
      3  C         -5.2530   69.9870    0.6630 C.2    74  CYS74       0.2601
      4  O         -4.2040   69.9940    0.0290 O.2    74  CYS74      -0.2717
      5  CB        -4.0850   68.9250    2.6220 C.3    74  CYS74       0.0970
      6  SG        -4.2340   67.1640    2.1560 S.3    74  CYS74      -0.0800
      7  N         -6.4360   70.1460    0.0850 N.am   75  GLU75      -0.1965
      8  CA        -6.5460   70.4340   -1.3390 C.3    75  GLU75       0.1733
      9  C         -5.9030   71.7740   -1.7150 C.2    75  GLU75       0.2616
     10  O         -5.3760   71.9210   -2.8140 O.2    75  GLU75      -0.2715
     11  CB        -8.0120   70.4380   -1.7820 C.3    75  GLU75       0.0429
     12  CG        -8.8410   69.2680   -1.2800 C.3    75  GLU75       0.1163
     13  CD       -10.1420   69.1230   -2.0490 C.2    75  GLU75       0.3649
     14  OE1      -10.2840   69.7910   -3.0950 O.co2  75  GLU75      -0.2457
     15  OE2      -11.0170   68.3440   -1.6150 O.co2  75  GLU75      -0.2457
     16  N         -5.9700   72.7530   -0.8150 N.am   76  ASN76      -0.1958
     17  CA        -5.4680   74.1010   -1.1040 C.3    76  ASN76       0.1819
     18  C         -4.6210   74.7340    0.0030 C.2    76  ASN76       0.2621
     19  O         -4.1640   75.8720   -0.1320 O.2    76  ASN76      -0.2715
     20  CB        -6.6320   75.0290   -1.4450 C.3    76  ASN76       0.1195
     21  CG        -7.3310   74.6180   -2.7190 C.2    76  ASN76       0.2630
     22  OD1       -6.8480   74.8890   -3.8210 O.2    76  ASN76      -0.2716
     23  ND2       -8.4710   73.9490   -2.5790 N.am   76  ASN76      -0.0877
     24  N         -4.4320   74.0060    1.0990 N.am   77  GLU77      -0.1963
     25  CA        -3.5560   74.4560    2.1740 C.3    77  GLU77       0.1733
     26  C         -2.6710   73.3080    2.6550 C.2    77  GLU77       0.2616
     27  O         -2.8510   72.1670    2.2360 O.2    77  GLU77      -0.2715
     28  CB        -4.3770   75.0250    3.3300 C.3    77  GLU77       0.0429
     29  CG        -5.3430   74.0230    3.9310 C.3    77  GLU77       0.1163
     30  CD        -6.1390   74.5950    5.0840 C.2    77  GLU77       0.3649
     31  OE1       -5.5180   75.0460    6.0710 O.co2  77  GLU77      -0.2457
     32  OE2       -7.3860   74.5860    5.0060 O.co2  77  GLU77      -0.2457
     33  N         -1.7590   73.6080    3.5760 N.am   78  GLU78      -0.1963
     34  CA        -0.7190   72.6670    3.9740 C.3    78  GLU78       0.1733
     35  C         -1.1940   71.6890    5.0320 C.2    78  GLU78       0.2616
     36  O         -2.0680   72.0080    5.8400 O.2    78  GLU78      -0.2715
     37  CB         0.4990   73.4270    4.5160 C.3    78  GLU78       0.0429
     38  CG         1.2000   74.3430    3.5150 C.3    78  GLU78       0.1163
     39  CD         1.7140   73.6020    2.2980 C.2    78  GLU78       0.3649
     40  OE1        2.2130   72.4660    2.4670 O.co2  78  GLU78      -0.2457
     41  OE2        1.6180   74.1540    1.1770 O.co2  78  GLU78      -0.2457
     42  N         -0.6300   70.4830    5.0000 N.am   79  CYS79      -0.1968
     43  CA        -0.8680   69.5050    6.0520 C.3    79  CYS79       0.1712
     44  C          0.0660   69.7710    7.2110 C.2    79  CYS79       0.2296
     45  O          1.2670   69.5310    7.1190 O.2    79  CYS79      -0.2864
     46  CB        -0.6570   68.0730    5.5550 C.3    79  CYS79       0.0983
     47  SG        -2.1430   67.2090    5.0470 S.3    79  CYS79      -0.0798
     48  N          3.5660   67.6430    9.2480 N.3    82  LYS82      -0.1231
     49  CA         4.2730   66.9600    8.1680 C.3    82  LYS82       0.1693
     50  C          3.5600   65.6990    7.6910 C.2    82  LYS82       0.2591
     51  O          4.2050   64.7200    7.3350 O.2    82  LYS82      -0.2718
     52  CB         5.7070   66.6250    8.5860 C.3    82  LYS82       0.0285
     53  CG         6.6380   67.8310    8.5950 C.3    82  LYS82       0.0035
     54  CD         8.0400   67.4490    9.0430 C.3    82  LYS82       0.0206
     55  CE         9.0660   68.4860    8.5990 C.3    82  LYS82       0.1093
     56  NZ         8.4380   69.7640    8.1550 N.3    82  LYS82      -0.1314
     57  N          2.2300   65.7300    7.6650 N.am   83  LEU83      -0.1980
     58  CA         1.4490   64.5810    7.2130 C.3    83  LEU83       0.1596
     59  C          1.3420   64.5380    5.6980 C.2    83  LEU83       0.2287
     60  O          1.4150   65.5630    5.0260 O.2    83  LEU83      -0.2864
     61  CB         0.0440   64.6110    7.8110 C.3    83  LEU83       0.0297
     62  CG        -0.0450   64.5900    9.3310 C.3    83  LEU83       0.0022
     63  CD1       -1.4470   64.9110    9.7740 C.3    83  LEU83       0.0001
     64  CD2        0.3650   63.2300    9.8180 C.3    83  LEU83       0.0001
     65  N         -0.5830   64.1920    2.1050 N.3    85  CYS85      -0.1235
     66  CA        -1.8610   64.6440    1.5840 C.3    85  CYS85       0.1677
     67  C         -2.3400   63.7040    0.4970 C.2    85  CYS85       0.2270
     68  O         -1.8070   63.7080   -0.6080 O.2    85  CYS85      -0.2867
     69  CB        -1.7690   66.0580    1.0230 C.3    85  CYS85       0.0956
     70  SG        -3.3510   66.6240    0.3920 S.3    85  CYS85      -0.0801
     71  N         -6.7340   64.8070   -1.2380 N.3    88  GLY88      -0.1225
     72  CA        -7.2370   66.0330   -0.6540 C.3    88  GLY88       0.1811
     73  C         -7.4050   66.0270    0.8550 C.2    88  GLY88       0.2280
     74  O         -7.7780   67.0520    1.4210 O.2    88  GLY88      -0.2866
@<TRIPOS>BOND
     1    22    21    2
     2    14    13   ar
     3    10     9    2
     4    21    23   am
     5    21    20    1
     6    13    15   ar
     7    13    12    1
     8    11     8    1
     9    11    12    1
    10     9     8    1
    11     9    16   am
    12    20    17    1
    13     8     7    1
    14    71    72    1
    15    17    16    1
    16    17    18    1
    17    72    73    1
    18    68    67    2
    19    19    18    2
    20    18    24   am
    21     4     3    2
    22     7     3   am
    23    70    69    1
    24    70     6    1
    25    67    66    1
    26     3     2    1
    27    73    74    2
    28    69    66    1
    29    24    25    1
    30    41    39   ar
    31    66    65    1
    32     6     5    1
    33    25    26    1
    34    25    28    1
    35     2     5    1
    36     2     1    1
    37    27    26    2
    38    39    40   ar
    39    39    38    1
    40    26    33   am
    41    28    29    1
    42    38    37    1
    43    33    34    1
    44    29    30    1
    45    34    37    1
    46    34    35    1
    47    42    35   am
    48    42    43    1
    49    32    30   ar
    50    60    59    2
    51    35    36    2
    52    47    46    1
    53    30    31   ar
    54    46    43    1
    55    59    58    1
    56    43    44    1
    57    45    44    2
    58    58    57    1
    59    58    61    1
    60    51    50    2
    61    57    50   am
    62    50    49    1
    63    61    62    1
    64    56    55    1
    65    49    52    1
    66    49    48    1
    67    52    53    1
    68    53    54    1
    69    55    54    1
    70    62    63    1
    71    62    64    1
