@<TRIPOS>MOLECULE
tmp/4zl9A01.pdb
 92 89 0 0 0
SMALL
GASTEIGER

@<TRIPOS>ATOM
      1  N         10.0050    5.2470   56.5390 N.3     1  ASP1       -0.1225
      2  CA         9.6760    6.6630   56.6830 C.3     1  ASP1        0.1805
      3  C         10.9220    7.4930   57.0060 C.2     1  ASP1        0.2597
      4  O         11.7140    7.1260   57.8640 O.2     1  ASP1       -0.2718
      5  CB         8.6220    6.8610   57.7780 C.3     1  ASP1        0.1424
      6  CG         9.1010    6.4040   59.1460 C.2     1  ASP1        0.3668
      7  OD1        8.8410    5.2330   59.5190 O.co2   1  ASP1       -0.2456
      8  OD2        9.7310    7.2250   59.8510 O.co2   1  ASP1       -0.2456
      9  N         11.0700    8.6170   56.3190 N.am    2  TYR2       -0.1976
     10  CA        12.2120    9.5090   56.5160 C.3     2  TYR2        0.1639
     11  C         11.9980   10.3850   57.7340 C.2     2  TYR2        0.2290
     12  O         10.8570   10.5760   58.1730 O.2     2  TYR2       -0.2864
     13  CB        12.4140   10.3770   55.2820 C.3     2  TYR2        0.0560
     14  CG        12.6140    9.5430   54.0480 C.ar    2  TYR2       -0.0198
     15  CD1       13.8720    9.0390   53.7200 C.ar    2  TYR2       -0.0009
     16  CD2       11.5460    9.2190   53.2370 C.ar    2  TYR2       -0.0009
     17  CE1       14.0540    8.2660   52.6220 C.ar    2  TYR2        0.0417
     18  CE2       11.7160    8.4520   52.1350 C.ar    2  TYR2        0.0417
     19  CZ        12.9640    7.9730   51.8210 C.ar    2  TYR2        0.1957
     20  OH        13.1050    7.1880   50.7110 O.3     2  TYR2       -0.2866
     21  N          8.4010   13.1880   35.8400 N.3    50  LEU50      -0.1231
     22  CA         7.6550   13.8460   36.9000 C.3    50  LEU50       0.1678
     23  C          6.2760   14.3100   36.4410 C.2    50  LEU50       0.2434
     24  O          6.0800   14.6130   35.2720 O.2    50  LEU50      -0.2733
     25  CB         8.4480   15.0180   37.4530 C.3    50  LEU50       0.0284
     26  CG         9.7610   14.6070   38.1380 C.3    50  LEU50       0.0019
     27  CD1       10.6250   15.8210   38.3780 C.3    50  LEU50       0.0001
     28  CD2        9.4760   13.8610   39.4650 C.3    50  LEU50       0.0001
     29  N          5.3150   14.3480   37.3680 N.am   51  PRO51      -0.2729
     30  CA         3.9300   14.6860   36.9700 C.3    51  PRO51       0.1401
     31  C          3.7160   16.1820   36.7130 C.2    51  PRO51       0.2269
     32  O          4.6180   17.0040   36.8990 O.2    51  PRO51      -0.2865
     33  CB         3.0970   14.2100   38.1620 C.3    51  PRO51       0.0296
     34  CG         4.0210   14.2240   39.3120 C.3    51  PRO51       0.0237
     35  CD         5.4010   13.9360   38.7810 C.3    51  PRO51       0.0939
     36  N         14.0670    8.7530   45.9330 N.3   173  LYS173     -0.1245
     37  CA        12.9280    8.2510   46.6970 C.3   173  LYS173      0.1561
     38  C         12.5200    9.2760   47.7380 C.2   173  LYS173      0.2260
     39  O         11.3400    9.4580   48.0140 O.2   173  LYS173     -0.2867
     40  CB        13.2700    6.9400   47.3860 C.3   173  LYS173      0.0271
     41  CG        13.2660    5.7500   46.5130 C.3   173  LYS173      0.0035
     42  CD        13.7630    4.5560   47.3270 C.3   173  LYS173      0.0206
     43  CE        13.9310    3.3320   46.5120 C.3   173  LYS173      0.1093
     44  NZ        14.6030    2.2720   47.3160 N.3   173  LYS173     -0.1314
     45  N         10.7040   12.0740   46.0700 N.3   176  ASP176     -0.1225
     46  CA         9.3350   11.6360   45.8340 C.3   176  ASP176      0.1805
     47  C          8.4840   11.8060   47.0900 C.2   176  ASP176      0.2597
     48  O          7.3350   12.2870   47.0390 O.2   176  ASP176     -0.2718
     49  CB         9.3290   10.1540   45.4170 C.3   176  ASP176      0.1424
     50  CG         9.7630    9.9040   43.9580 C.2   176  ASP176      0.3668
     51  OD1        9.7720   10.8180   43.1100 O.co2 176  ASP176     -0.2456
     52  OD2       10.0300    8.7180   43.6610 O.co2 176  ASP176     -0.2456
     53  N          9.0100   11.3400   48.2130 N.am  177  TYR177     -0.1976
     54  CA         8.3280   11.4380   49.4870 C.3   177  TYR177      0.1639
     55  C          8.0080   12.8850   49.7830 C.2   177  TYR177      0.2290
     56  O          6.9010   13.2130   50.2160 O.2   177  TYR177     -0.2864
     57  CB         9.2350   10.8710   50.5560 C.3   177  TYR177      0.0560
     58  CG         8.8030   10.9990   51.9950 C.ar  177  TYR177     -0.0198
     59  CD1        8.1380    9.9620   52.6230 C.ar  177  TYR177     -0.0009
     60  CD2        9.1530   12.1060   52.7540 C.ar  177  TYR177     -0.0009
     61  CE1        7.7720   10.0390   53.9540 C.ar  177  TYR177      0.0417
     62  CE2        8.7930   12.1960   54.0920 C.ar  177  TYR177      0.0417
     63  CZ         8.1080   11.1590   54.6830 C.ar  177  TYR177      0.1957
     64  OH         7.7620   11.2280   56.0080 O.3   177  TYR177     -0.2866
     65  N          7.8380   15.4200   47.6800 N.3   179  ILE179     -0.1231
     66  CA         6.8610   15.9000   46.7060 C.3   179  ILE179      0.1692
     67  C          5.4760   15.5220   47.1890 C.2   179  ILE179      0.2591
     68  O          4.5830   16.3530   47.2050 O.2   179  ILE179     -0.2718
     69  CB         7.1100   15.3400   45.2910 C.3   179  ILE179      0.0266
     70  CG1        8.3320   16.0140   44.6830 C.3   179  ILE179      0.0019
     71  CG2        5.9190   15.5860   44.3640 C.3   179  ILE179      0.0020
     72  CD1        8.8680   15.3140   43.4780 C.3   179  ILE179      0.0001
     73  N          5.2880   14.2750   47.6080 N.am  180  GLU180     -0.1979
     74  CA         3.9650   13.8760   48.1160 C.3   180  GLU180      0.1602
     75  C          3.5360   14.6730   49.3470 C.2   180  GLU180      0.2287
     76  O          2.3680   15.0010   49.5120 O.2   180  GLU180     -0.2864
     77  CB         3.9340   12.3910   48.4620 C.3   180  GLU180      0.0415
     78  CG         4.0930   11.5040   47.2630 C.3   180  GLU180      0.1163
     79  CD         2.9600   11.5640   46.2740 C.2   180  GLU180      0.3649
     80  OE1        1.8550   12.0790   46.5770 O.co2 180  GLU180     -0.2457
     81  OE2        3.1720   11.0300   45.1590 O.co2 180  GLU180     -0.2457
     82  N          2.2070   17.8520   48.0770 N.3   183  ARG183     -0.1245
     83  CA         0.9800   17.7010   47.2900 C.3   183  ARG183      0.1563
     84  C         -0.2200   17.5780   48.2230 C.2   183  ARG183      0.2260
     85  O         -1.3240   17.9960   47.8880 O.2   183  ARG183     -0.2867
     86  CB         1.0590   16.4810   46.3630 C.3   183  ARG183      0.0307
     87  CG        -0.1660   16.3190   45.4430 C.3   183  ARG183      0.0489
     88  CD        -0.0010   15.1860   44.4280 C.3   183  ARG183      0.2205
     89  NE         1.0440   15.4670   43.4390 N.pl3 183  ARG183     -0.0865
     90  CZ         2.2090   14.8310   43.3430 C.cat 183  ARG183      0.5346
     91  NH1        2.5130   13.8290   44.1530 N.pl3 183  ARG183      0.1354
     92  NH2        3.0830   15.1900   42.4140 N.pl3 183  ARG183      0.1354
@<TRIPOS>BOND
     1    24    23    2
     2    21    22    1
     3    23    22    1
     4    23    29   am
     5    31    32    2
     6    31    30    1
     7    22    25    1
     8    30    29    1
     9    30    33    1
    10    29    35    1
    11    25    26    1
    12    26    27    1
    13    26    28    1
    14    33    34    1
    15    35    34    1
    16    92    90    1
    17    51    50   ar
    18    90    89    2
    19    90    91    1
    20    89    88    1
    21    72    70    1
    22    52    50   ar
    23    50    49    1
    24    71    69    1
    25    88    87    1
    26    70    69    1
    27    81    79   ar
    28    69    66    1
    29    49    46    1
    30    87    86    1
    31    46    45    1
    32    46    47    1
    33    36    37    1
    34    79    80   ar
    35    79    78    1
    36    86    83    1
    37    43    44    1
    38    43    42    1
    39    41    42    1
    40    41    40    1
    41    37    40    1
    42    37    38    1
    43    66    67    1
    44    66    65    1
    45    48    47    2
    46    47    53   am
    47    67    68    2
    48    67    73   am
    49    78    77    1
    50    83    82    1
    51    83    84    1
    52    73    74    1
    53    38    39    2
    54    85    84    2
    55    74    77    1
    56    74    75    1
    57    53    54    1
    58    75    76    2
    59    54    55    1
    60    54    57    1
    61    55    56    2
    62    57    58    1
    63    20    19    1
    64    19    18   ar
    65    19    17   ar
    66    58    59   ar
    67    58    60   ar
    68    18    16   ar
    69    17    15   ar
    70    59    61   ar
    71    60    62   ar
    72    16    14   ar
    73    15    14   ar
    74    61    63   ar
    75    14    13    1
    76    62    63   ar
    77    63    64    1
    78    13    10    1
    79     9    10    1
    80     9     3   am
    81    10    11    1
    82     1     2    1
    83     2     3    1
    84     2     5    1
    85     3     4    2
    86    11    12    2
    87     5     6    1
    88     6     7   ar
    89     6     8   ar
