@<TRIPOS>MOLECULE
tmp/4zlaA00.pdb
 163 152 0 0 0
SMALL
GASTEIGER

@<TRIPOS>ATOM
      1  N         48.9150   12.3730  -13.6360 N.3   247  LYS247     -0.1245
      2  CA        47.7280   12.5350  -12.8030 C.3   247  LYS247      0.1561
      3  C         47.0330   11.1810  -12.6930 C.2   247  LYS247      0.2260
      4  O         46.5300   10.6500  -13.6970 O.2   247  LYS247     -0.2867
      5  CB        46.7790   13.5830  -13.4110 C.3   247  LYS247      0.0271
      6  CG        45.4030   13.7420  -12.6860 C.3   247  LYS247      0.0035
      7  CD        44.5120   14.7650  -13.3910 C.3   247  LYS247      0.0206
      8  CE        43.0550   14.7420  -12.8550 C.3   247  LYS247      0.1093
      9  NZ        42.1810   15.7890  -13.5200 N.3   247  LYS247     -0.1314
     10  N         37.0270   10.9830  -10.1510 N.3   252  ASP252     -0.1239
     11  CA        36.8460   12.4120   -9.9510 C.3   252  ASP252      0.1674
     12  C         35.3680   12.7530   -9.9730 C.2   252  ASP252      0.2266
     13  O         34.7870   12.8460  -11.0540 O.2   252  ASP252     -0.2867
     14  CB        37.6000   13.1780  -11.0440 C.3   252  ASP252      0.1410
     15  CG        37.5260   14.6920  -10.8750 C.2   252  ASP252      0.3668
     16  OD1       37.0810   15.1660   -9.8120 O.co2 252  ASP252     -0.2456
     17  OD2       37.9320   15.3970  -11.8180 O.co2 252  ASP252     -0.2456
     18  N         30.2470   17.3490   -9.8520 N.3   259  LYS259     -0.1245
     19  CA        29.9320   17.2320  -11.2810 C.3   259  LYS259      0.1561
     20  C         28.4920   16.8220  -11.5080 C.2   259  LYS259      0.2260
     21  O         27.9780   15.9790  -10.7810 O.2   259  LYS259     -0.2867
     22  CB        30.8500   16.1990  -11.9500 C.3   259  LYS259      0.0271
     23  CG        32.3380   16.5940  -11.9690 C.3   259  LYS259      0.0035
     24  CD        33.1600   15.5560  -12.7400 C.3   259  LYS259      0.0206
     25  CE        34.6270   15.9650  -12.9430 C.3   259  LYS259      0.1093
     26  NZ        34.7370   17.2220  -13.7500 N.3   259  LYS259     -0.1314
     27  N         28.3170   14.4760  -16.7440 N.3   263  TYR263     -0.1241
     28  CA        29.7530   14.7390  -16.8680 C.3   263  TYR263      0.1605
     29  C         30.6150   13.8830  -15.9440 C.2   263  TYR263      0.2264
     30  O         31.8330   13.8130  -16.1190 O.2   263  TYR263     -0.2867
     31  CB        30.0430   16.2200  -16.5940 C.3   263  TYR263      0.0534
     32  CG        29.6170   17.1170  -17.7340 C.ar  263  TYR263     -0.0201
     33  CD1       28.3140   17.5800  -17.8280 C.ar  263  TYR263     -0.0009
     34  CD2       30.5150   17.4800  -18.7290 C.ar  263  TYR263     -0.0009
     35  CE1       27.9130   18.3910  -18.8760 C.ar  263  TYR263      0.0417
     36  CE2       30.1270   18.2970  -19.7790 C.ar  263  TYR263      0.0417
     37  CZ        28.8230   18.7480  -19.8450 C.ar  263  TYR263      0.1957
     38  OH        28.4260   19.5550  -20.8870 O.3   263  TYR263     -0.2866
     39  N         32.3680    8.2550  -17.0220 N.3   266  THR266     -0.1203
     40  CA        33.7310    8.1450  -17.6040 C.3   266  THR266      0.1994
     41  C         34.8730    8.7110  -16.7330 C.2   266  THR266      0.2617
     42  O         36.0340    8.6550  -17.1390 O.2   266  THR266     -0.2717
     43  CB        33.8740    8.8050  -19.0230 C.3   266  THR266      0.1784
     44  OG1       34.0060   10.2260  -18.9060 O.3   266  THR266     -0.2211
     45  CG2       32.7030    8.4550  -19.9400 C.3   266  THR266      0.0376
     46  N         34.5890    9.2110  -15.5320 N.am  267  MET267     -0.1979
     47  CA        35.6730    9.8020  -14.7460 C.3   267  MET267      0.1605
     48  C         36.5670    8.7550  -14.0820 C.2   267  MET267      0.2287
     49  O         37.5270    9.1100  -13.3980 O.2   267  MET267     -0.2864
     50  CB        35.1180   10.7710  -13.6930 C.3   267  MET267      0.0413
     51  CG        34.7400   12.1350  -14.2870 C.3   267  MET267      0.0598
     52  SD        36.1480   13.0300  -15.0180 S.3   267  MET267     -0.1393
     53  CE        35.3700   13.7660  -16.4570 C.3   267  MET267      0.0692
     54  N         40.0430    9.3490  -15.2710 N.3   270  ASP270     -0.1239
     55  CA        40.8290   10.4880  -14.7990 C.3   270  ASP270      0.1674
     56  C         42.1960   10.0270  -14.2670 C.2   270  ASP270      0.2266
     57  O         42.9950   10.8290  -13.7640 O.2   270  ASP270     -0.2867
     58  CB        40.0720   11.2640  -13.7170 C.3   270  ASP270      0.1410
     59  CG        40.3660   12.7610  -13.7660 C.2   270  ASP270      0.3668
     60  OD1       40.7280   13.2450  -14.8670 O.co2 270  ASP270     -0.2456
     61  OD2       40.2420   13.4410  -12.7140 O.co2 270  ASP270     -0.2456
     62  N         37.2490   26.1800   -6.6020 N.3   327  ASN327     -0.1240
     63  CA        36.4470   25.0910   -7.1440 C.3   327  ASN327      0.1653
     64  C         37.2030   23.7710   -6.9530 C.2   327  ASN327      0.2266
     65  O         38.3510   23.6330   -7.3950 O.2   327  ASN327     -0.2867
     66  CB        36.1230   25.3790   -8.6160 C.3   327  ASN327      0.1155
     67  CG        35.1210   24.4040   -9.2100 C.2   327  ASN327      0.2627
     68  OD1       35.2770   23.1960   -9.0910 O.2   327  ASN327     -0.2716
     69  ND2       34.0850   24.9320   -9.8600 N.am  327  ASN327     -0.0877
     70  N         36.7250   20.9320   -8.1710 N.3   329  ASP329     -0.1225
     71  CA        36.7950   20.1540   -9.4180 C.3   329  ASP329      0.1805
     72  C         38.0490   20.4930  -10.2420 C.2   329  ASP329      0.2598
     73  O         38.2910   19.9010  -11.2960 O.2   329  ASP329     -0.2718
     74  CB        35.5300   20.4020  -10.2430 C.3   329  ASP329      0.1424
     75  CG        35.2030   19.2580  -11.1930 C.2   329  ASP329      0.3668
     76  OD1       35.8070   18.1740  -11.0880 O.co2 329  ASP329     -0.2456
     77  OD2       34.3180   19.4520  -12.0440 O.co2 329  ASP329     -0.2456
     78  N         38.8410   21.4600   -9.7730 N.am  330  ALA330     -0.1966
     79  CA        40.1680   21.7170  -10.3530 C.3   330  ALA330      0.1728
     80  C         41.2110   21.0710   -9.4470 C.2   330  ALA330      0.2616
     81  O         42.0840   21.7540   -8.8930 O.2   330  ALA330     -0.2715
     82  CB        40.4380   23.2240  -10.4990 C.3   330  ALA330      0.0334
     83  N         41.0870   19.7540   -9.2820 N.am  331  GLU331     -0.1963
     84  CA        41.8650   19.0000   -8.3050 C.3   331  GLU331      0.1733
     85  C         43.1660   18.4360   -8.8910 C.2   331  GLU331      0.2617
     86  O         44.1500   18.2660   -8.1790 O.2   331  GLU331     -0.2715
     87  CB        41.0120   17.8480   -7.7390 C.3   331  GLU331      0.0429
     88  CG        41.0750   16.5210   -8.5200 C.3   331  GLU331      0.1163
     89  CD        40.3960   16.5840   -9.8900 C.2   331  GLU331      0.3649
     90  OE1       39.5690   17.4900  -10.0960 O.co2 331  GLU331     -0.2457
     91  OE2       40.6960   15.7290  -10.7570 O.co2 331  GLU331     -0.2457
     92  N         43.1420   18.1260  -10.1800 N.am  332  GLY332     -0.1940
     93  CA        44.2830   17.5100  -10.8400 C.3   332  GLY332      0.2014
     94  C         45.5300   18.3650  -10.7690 C.2   332  GLY332      0.2638
     95  O         46.6300   17.8600  -10.5530 O.2   332  GLY332     -0.2714
     96  N         45.3480   19.6720  -10.9430 N.am  333  ARG333     -0.1977
     97  CA        46.4690   20.6000  -10.9580 C.3   333  ARG333      0.1597
     98  C         47.0550   20.7370   -9.5520 C.2   333  ARG333      0.2287
     99  O         48.2250   21.0830   -9.4040 O.2   333  ARG333     -0.2864
    100  CB        46.0300   21.9670  -11.5210 C.3   333  ARG333      0.0334
    101  CG        45.0670   22.7800  -10.6220 C.3   333  ARG333      0.0492
    102  CD        44.3590   23.8930  -11.4250 C.3   333  ARG333      0.2205
    103  NE        43.4950   23.3420  -12.4800 N.pl3 333  ARG333     -0.0865
    104  CZ        42.8740   24.0740  -13.4030 C.cat 333  ARG333      0.5346
    105  NH1       43.0230   25.3960  -13.4240 N.pl3 333  ARG333      0.1354
    106  NH2       42.1090   23.4800  -14.3140 N.pl3 333  ARG333      0.1354
    107  N         44.6740   14.0990  -17.7140 N.3   356  THR356     -0.1203
    108  CA        43.3410   14.3620  -18.2150 C.3   356  THR356      0.1994
    109  C         42.8290   15.5780  -17.4620 C.2   356  THR356      0.2618
    110  O         42.0240   15.4650  -16.5540 O.2   356  THR356     -0.2717
    111  CB        42.4180   13.1440  -18.0220 C.3   356  THR356      0.1784
    112  OG1       42.6040   12.6060  -16.7090 O.3   356  THR356     -0.2211
    113  CG2       42.7490   12.0560  -19.0580 C.3   356  THR356      0.0376
    114  N         43.3180   16.7540  -17.8340 N.am  357  LEU357     -0.1965
    115  CA        43.2670   17.8950  -16.9170 C.3   357  LEU357      0.1728
    116  C         42.0820   18.8500  -17.1100 C.2   357  LEU357      0.2617
    117  O         41.4830   19.3140  -16.1340 O.2   357  LEU357     -0.2715
    118  CB        44.5760   18.6840  -17.0190 C.3   357  LEU357      0.0311
    119  CG        44.8540   19.5950  -15.8220 C.3   357  LEU357      0.0022
    120  CD1       44.9030   18.7830  -14.5200 C.3   357  LEU357      0.0001
    121  CD2       46.1340   20.3440  -16.0570 C.3   357  LEU357      0.0001
    122  N         41.7340   19.1600  -18.3500 N.am  358  THR358     -0.1937
    123  CA        40.6520   20.1280  -18.5690 C.3   358  THR358      0.2028
    124  C         39.6710   19.7570  -19.6560 C.2   358  THR358      0.2643
    125  O         40.0490   19.2280  -20.6960 O.2   358  THR358     -0.2714
    126  CB        41.1970   21.5220  -18.9360 C.3   358  THR358      0.1808
    127  OG1       41.8920   21.4530  -20.1930 O.3   358  THR358     -0.2208
    128  CG2       42.1370   22.0570  -17.8430 C.3   358  THR358      0.0379
    129  N         38.4010   20.0780  -19.4240 N.am  359  GLY359     -0.1939
    130  CA        37.4010   19.9290  -20.4530 C.3   359  GLY359      0.2014
    131  C         37.5660   20.9790  -21.5270 C.2   359  GLY359      0.2638
    132  O         37.1850   20.7520  -22.6640 O.2   359  GLY359     -0.2714
    133  N         38.1200   22.1370  -21.1650 N.am  360  ALA360     -0.1977
    134  CA        38.3750   23.2040  -22.1380 C.3   360  ALA360      0.1597
    135  C         39.3420   22.7780  -23.2560 C.2   360  ALA360      0.2287
    136  O         39.2240   23.2220  -24.4070 O.2   360  ALA360     -0.2864
    137  CB        38.9090   24.4240  -21.4350 C.3   360  ALA360      0.0319
    138  N         39.4230   19.7670  -24.4660 N.3   362  VAL362     -0.1245
    139  CA        38.6130   18.9270  -25.3470 C.3   362  VAL362      0.1561
    140  C         37.6480   19.7920  -26.1760 C.2   362  VAL362      0.2260
    141  O         37.4000   19.5220  -27.3550 O.2   362  VAL362     -0.2867
    142  CB        37.8060   17.8700  -24.5620 C.3   362  VAL362      0.0252
    143  CG1       37.3260   16.7880  -25.5060 C.3   362  VAL362      0.0019
    144  CG2       38.6490   17.2700  -23.4200 C.3   362  VAL362      0.0019
    145  N         41.5460   28.1490  -10.0220 N.3   417  ILE417     -0.1231
    146  CA        40.7780   28.3300  -11.2580 C.3   417  ILE417      0.1692
    147  C         41.0450   29.7070  -11.8590 C.2   417  ILE417      0.2592
    148  O         41.5400   30.5940  -11.1880 O.2   417  ILE417     -0.2718
    149  CB        39.2390   28.1600  -11.0430 C.3   417  ILE417      0.0266
    150  CG1       38.6970   29.2600  -10.1330 C.3   417  ILE417      0.0019
    151  CG2       38.9210   26.7630  -10.5100 C.3   417  ILE417      0.0020
    152  CD1       37.1890   29.2810  -10.0310 C.3   417  ILE417      0.0001
    153  N         40.7150   29.8660  -13.1330 N.am  418  SER418     -0.1952
    154  CA        40.7680   31.1540  -13.8290 C.3   418  SER418      0.1924
    155  C         39.5430   32.0150  -13.5030 C.2   418  SER418      0.2314
    156  O         38.4810   31.4780  -13.2260 O.2   418  SER418     -0.2863
    157  CB        40.8540   30.9130  -15.3450 C.3   418  SER418      0.2116
    158  OG        40.6810   32.1100  -16.0890 O.3   418  SER418     -0.2180
    159  N         43.0600   14.9750  -21.9600 N.3   450  ALA450     -0.1245
    160  CA        41.6720   14.8410  -21.4820 C.3   450  ALA450      0.1562
    161  C         40.7360   14.3230  -22.5740 C.2   450  ALA450      0.2260
    162  O         39.7630   13.6210  -22.2890 O.2   450  ALA450     -0.2867
    163  CB        41.1630   16.1780  -20.9500 C.3   450  ALA450      0.0290
@<TRIPOS>BOND
     1   141   140    2
     2   140   139    1
     3   143   142    1
     4   139   142    1
     5   139   138    1
     6   142   144    1
     7   136   135    2
     8   135   134    1
     9   132   131    2
    10   161   162    2
    11   161   160    1
    12   134   137    1
    13   134   133    1
    14   159   160    1
    15   131   133   am
    16   131   130    1
    17   160   163    1
    18    38    37    1
    19   125   124    2
    20   130   129    1
    21   127   126    1
    22    45    43    1
    23    37    36   ar
    24    37    35   ar
    25    36    34   ar
    26   124   129   am
    27   124   123    1
    28   113   111    1
    29    43    44    1
    30    43    40    1
    31   126   123    1
    32   126   128    1
    33    35    33   ar
    34    34    32   ar
    35   123   122    1
    36   122   116   am
    37   108   111    1
    38   108   107    1
    39   108   109    1
    40   111   112    1
    41   114   109   am
    42   114   115    1
    43    33    32   ar
    44    32    31    1
    45    40    39    1
    46    40    41    1
    47   109   110    2
    48    42    41    2
    49   116   115    1
    50   116   117    2
    51   118   115    1
    52   118   119    1
    53    28    27    1
    54    28    31    1
    55    28    29    1
    56    41    46   am
    57    53    52    1
    58    30    29    2
    59   158   157    1
    60   121   119    1
    61   119   120    1
    62    46    47    1
    63   157   154    1
    64    54    55    1
    65    52    51    1
    66    60    59   ar
    67    55    56    1
    68    55    58    1
    69    47    48    1
    70    47    50    1
    71   106   104    1
    72    51    50    1
    73    56    57    2
    74    48    49    2
    75   154   155    1
    76   154   153    1
    77    59    58    1
    78    59    61   ar
    79    26    25    1
    80     4     3    2
    81     1     2    1
    82     9     8    1
    83   155   156    2
    84   105   104    1
    85     5     2    1
    86     5     6    1
    87   104   103    2
    88     7     8    1
    89     7     6    1
    90   153   147   am
    91    25    24    1
    92     2     3    1
    93    24    23    1
    94   103   102    1
    95    77    75   ar
    96    23    22    1
    97    22    19    1
    98   147   146    1
    99   147   148    2
   100    17    15   ar
   101   100    97    1
   102   100   101    1
   103    20    19    1
   104    20    21    2
   105   102   101    1
   106    73    72    2
   107    19    18    1
   108   146   149    1
   109   146   145    1
   110    75    76   ar
   111    75    74    1
   112    13    12    2
   113    14    15    1
   114    14    11    1
   115   149   151    1
   116   149   150    1
   117    97    96    1
   118    97    98    1
   119    96    94   am
   120    15    16   ar
   121    93    94    1
   122    93    92    1
   123    94    95    2
   124    91    89   ar
   125    82    79    1
   126    79    78    1
   127    79    80    1
   128    74    71    1
   129    72    78   am
   130    72    71    1
   131    92    85   am
   132    10    11    1
   133   150   152    1
   134    90    89   ar
   135    12    11    1
   136    89    88    1
   137    69    67   am
   138    98    99    2
   139    80    83   am
   140    80    81    2
   141    71    70    1
   142    83    84    1
   143    67    68    2
   144    67    66    1
   145    85    84    1
   146    85    86    2
   147    66    63    1
   148    88    87    1
   149    84    87    1
   150    65    64    2
   151    63    64    1
   152    63    62    1
