@<TRIPOS>MOLECULE
tmp/4zlbB02.pdb
 84 80 0 0 0
SMALL
GASTEIGER

@<TRIPOS>ATOM
      1  N         41.7840  122.3640   23.2680 N.3    22  ASP22      -0.1225
      2  CA        41.3660  123.3120   22.2300 C.3    22  ASP22       0.1805
      3  C         42.1450  124.6110   22.4370 C.2    22  ASP22       0.2598
      4  O         42.1160  125.1530   23.5430 O.2    22  ASP22      -0.2718
      5  CB        39.8500  123.5550   22.4000 C.3    22  ASP22       0.1424
      6  CG        39.2600  124.5230   21.3750 C.2    22  ASP22       0.3668
      7  OD1       39.7580  125.6600   21.2470 O.co2  22  ASP22      -0.2456
      8  OD2       38.2540  124.1560   20.7270 O.co2  22  ASP22      -0.2456
      9  N         42.8440  125.1030   21.4100 N.am   23  VAL23      -0.1966
     10  CA        43.4860  126.4340   21.5050 C.3    23  VAL23       0.1727
     11  C         42.4380  127.5060   21.1950 C.2    23  VAL23       0.2616
     12  O         41.7770  127.4630   20.1560 O.2    23  VAL23      -0.2715
     13  CB        44.8090  126.5900   20.6890 C.3    23  VAL23       0.0290
     14  CG1       44.6200  126.3830   19.1960 C.3    23  VAL23       0.0023
     15  CG2       45.4760  127.9380   20.9690 C.3    23  VAL23       0.0023
     16  N         42.3110  128.4530   22.1270 N.am   24  TYR24      -0.1960
     17  CA        41.2040  129.4130   22.1850 C.3    24  TYR24       0.1771
     18  C         41.0380  130.2400   20.9080 C.2    24  TYR24       0.2620
     19  O         41.9030  131.0550   20.5760 O.2    24  TYR24      -0.2715
     20  CB        41.3910  130.3510   23.3890 C.3    24  TYR24       0.0574
     21  CG        40.3500  131.4430   23.4630 C.ar   24  TYR24      -0.0198
     22  CD1       39.0090  131.1320   23.6780 C.ar   24  TYR24      -0.0009
     23  CD2       40.6990  132.7870   23.2980 C.ar   24  TYR24      -0.0009
     24  CE1       38.0440  132.1260   23.7330 C.ar   24  TYR24       0.0417
     25  CE2       39.7410  133.7890   23.3540 C.ar   24  TYR24       0.0417
     26  CZ        38.4160  133.4540   23.5720 C.ar   24  TYR24       0.1957
     27  OH        37.4600  134.4360   23.6270 O.3    24  TYR24      -0.2866
     28  N         39.9260  130.0180   20.2050 N.am   25  GLY25      -0.1940
     29  CA        39.6040  130.7400   18.9720 C.3    25  GLY25       0.2014
     30  C         40.6090  130.6080   17.8400 C.2    25  GLY25       0.2638
     31  O         40.7320  131.5140   17.0190 O.2    25  GLY25      -0.2714
     32  N         41.3250  129.4820   17.8080 N.am   26  ALA26      -0.1977
     33  CA        42.3380  129.1810   16.7860 C.3    26  ALA26       0.1597
     34  C         43.4790  130.2060   16.6720 C.2    26  ALA26       0.2287
     35  O         44.0730  130.3440   15.6050 O.2    26  ALA26      -0.2864
     36  CB        41.6630  128.9740   15.4300 C.3    26  ALA26       0.0319
     37  N         42.3720  125.5440   26.1790 N.3    35  ILE35      -0.1245
     38  CA        41.1690  125.4230   27.0190 C.3    35  ILE35       0.1561
     39  C         40.4580  124.0740   26.8550 C.2    35  ILE35       0.2260
     40  O         40.8040  123.2880   25.9730 O.2    35  ILE35      -0.2867
     41  CB        40.1410  126.5480   26.6990 C.3    35  ILE35       0.0252
     42  CG1       39.8290  126.6050   25.1950 C.3    35  ILE35       0.0019
     43  CG2       40.6630  127.8990   27.1620 C.3    35  ILE35       0.0019
     44  CD1       38.5040  127.2480   24.8520 C.3    35  ILE35       0.0001
     45  N         37.0440  122.5140   25.5050 N.3    37  TYR37      -0.1241
     46  CA        35.9940  122.8840   24.5640 C.3    37  TYR37       0.1605
     47  C         35.2490  121.6380   24.0850 C.2    37  TYR37       0.2264
     48  O         35.8600  120.5710   23.9890 O.2    37  TYR37      -0.2867
     49  CB        36.5920  123.6400   23.3770 C.3    37  TYR37       0.0534
     50  CG        35.5750  124.4800   22.6420 C.ar   37  TYR37      -0.0201
     51  CD1       35.0480  125.6340   23.2300 C.ar   37  TYR37      -0.0009
     52  CD2       35.1170  124.1190   21.3700 C.ar   37  TYR37      -0.0009
     53  CE1       34.1020  126.4110   22.5680 C.ar   37  TYR37       0.0417
     54  CE2       34.1700  124.8890   20.7010 C.ar   37  TYR37       0.0417
     55  CZ        33.6670  126.0360   21.3020 C.ar   37  TYR37       0.1957
     56  OH        32.7330  126.8070   20.6500 O.3    37  TYR37      -0.2866
     57  N         37.5070  120.6120   14.0790 N.3    42  GLN42      -0.1245
     58  CA        38.2470  121.8340   13.7210 C.3    42  GLN42       0.1566
     59  C         39.7560  121.6740   13.8750 C.2    42  GLN42       0.2260
     60  O         40.2250  120.8830   14.6830 O.2    42  GLN42      -0.2867
     61  CB        37.7650  123.0540   14.5190 C.3    42  GLN42       0.0367
     62  CG        37.7300  122.9030   16.0400 C.3    42  GLN42       0.0905
     63  CD        36.3410  122.6150   16.5780 C.2    42  GLN42       0.2608
     64  OE1       35.5870  121.8300   15.9990 O.2    42  GLN42      -0.2717
     65  NE2       35.9980  123.2460   17.6960 N.am   42  GLN42      -0.0878
     66  N         42.1590  123.4510   15.0960 N.3    44  ASN44      -0.1240
     67  CA        42.7760  123.8370   16.3700 C.3    44  ASN44       0.1653
     68  C         42.5470  122.8570   17.5470 C.2    44  ASN44       0.2266
     69  O         43.0450  123.1030   18.6480 O.2    44  ASN44      -0.2867
     70  CB        42.3520  125.2670   16.7490 C.3    44  ASN44       0.1155
     71  CG        40.8640  125.3930   17.0150 C.2    44  ASN44       0.2627
     72  OD1       40.0520  125.0690   16.1510 O.2    44  ASN44      -0.2716
     73  ND2       40.4990  125.8700   18.2060 N.am   44  ASN44      -0.0877
     74  N         35.5140  126.6550   27.7530 N.3   112  ARG112     -0.1245
     75  CA        36.4690  127.7690   27.8800 C.3   112  ARG112      0.1563
     76  C         37.3130  127.7920   29.1660 C.2   112  ARG112      0.2260
     77  O         37.9060  128.8280   29.4860 O.2   112  ARG112     -0.2867
     78  CB        35.7710  129.1280   27.7200 C.3   112  ARG112      0.0307
     79  CG        35.0330  129.3340   26.4120 C.3   112  ARG112      0.0489
     80  CD        34.8800  130.8240   26.1500 C.3   112  ARG112      0.2205
     81  NE        33.7950  131.1170   25.2260 N.pl3 112  ARG112     -0.0865
     82  CZ        33.4020  132.3430   24.8870 C.cat 112  ARG112      0.5346
     83  NH1       34.0050  133.4210   25.3880 N.pl3 112  ARG112      0.1354
     84  NH2       32.3920  132.4930   24.0350 N.pl3 112  ARG112      0.1354
@<TRIPOS>BOND
     1    58    59    1
     2    58    57    1
     3    58    61    1
     4    59    60    2
     5    61    62    1
     6    66    67    1
     7    36    33    1
     8    35    34    2
     9    64    63    2
    10    62    63    1
    11    72    71    2
    12    67    70    1
    13    67    68    1
    14    63    65   am
    15    34    33    1
    16    70    71    1
    17    33    32    1
    18    71    73   am
    19    31    30    2
    20    68    69    2
    21    32    30   am
    22    30    29    1
    23    29    28    1
    24    14    13    1
    25    12    11    2
    26    28    18   am
    27    19    18    2
    28    56    55    1
    29    13    15    1
    30    13    10    1
    31    54    55   ar
    32    54    52   ar
    33     8     6   ar
    34    18    17    1
    35    11    10    1
    36    11    16   am
    37     7     6   ar
    38    55    53   ar
    39    52    50   ar
    40     6     5    1
    41     9    10    1
    42     9     3   am
    43    16    17    1
    44    17    20    1
    45     2     5    1
    46     2     3    1
    47     2     1    1
    48     3     4    2
    49    53    51   ar
    50    50    51   ar
    51    50    49    1
    52    23    25   ar
    53    23    21   ar
    54    25    26   ar
    55    49    46    1
    56    20    21    1
    57    21    22   ar
    58    26    27    1
    59    26    24   ar
    60    22    24   ar
    61    48    47    2
    62    84    82    1
    63    47    46    1
    64    46    45    1
    65    44    42    1
    66    82    81    2
    67    82    83    1
    68    42    41    1
    69    81    80    1
    70    40    39    2
    71    80    79    1
    72    37    38    1
    73    79    78    1
    74    41    38    1
    75    41    43    1
    76    39    38    1
    77    78    75    1
    78    74    75    1
    79    75    76    1
    80    76    77    2
