@<TRIPOS>MOLECULE
tmp/4zlfA00.pdb
 162 154 0 0 0
SMALL
GASTEIGER

@<TRIPOS>ATOM
      1  N         62.7820  -44.7550  -15.5570 N.3   341  ARG341     -0.1245
      2  CA        63.6660  -44.4780  -14.4290 C.3   341  ARG341      0.1563
      3  C         65.0030  -45.2930  -14.4490 C.2   341  ARG341      0.2260
      4  O         65.5790  -45.3960  -13.3630 O.2   341  ARG341     -0.2867
      5  CB        62.9700  -44.5430  -13.0940 C.3   341  ARG341      0.0307
      6  CG        61.5940  -43.7950  -13.0880 C.3   341  ARG341      0.0489
      7  CD        61.0830  -43.7120  -11.6880 C.3   341  ARG341      0.2205
      8  NE        59.6410  -43.3960  -11.6850 N.pl3 341  ARG341     -0.0865
      9  CZ        58.9540  -43.0170  -10.6410 C.cat 341  ARG341      0.5346
     10  NH1       59.5170  -42.8480   -9.4600 N.pl3 341  ARG341      0.1354
     11  NH2       57.6320  -42.8050  -10.8010 N.pl3 341  ARG341      0.1354
     12  N         59.0240  -50.5970  -10.2120 N.3   347  GLN347     -0.1245
     13  CA        57.9030  -50.7840   -9.2770 C.3   347  GLN347      0.1566
     14  C         56.6430  -50.6840  -10.1370 C.2   347  GLN347      0.2260
     15  O         56.4920  -49.7730  -10.9070 O.2   347  GLN347     -0.2867
     16  CB        57.9350  -49.8000   -8.1760 C.3   347  GLN347      0.0367
     17  CG        59.1950  -49.8660   -7.2930 C.3   347  GLN347      0.0905
     18  CD        59.1820  -48.9940   -6.0870 C.2   347  GLN347      0.2608
     19  OE1       58.2780  -49.0390   -5.1880 O.2   347  GLN347     -0.2717
     20  NE2       60.2090  -48.3170   -5.9050 N.am  347  GLN347     -0.0878
     21  N         53.5080  -49.7060   -9.5670 N.3   349  ARG349     -0.1231
     22  CA        52.8250  -48.4740   -9.4950 C.3   349  ARG349      0.1694
     23  C         53.5510  -47.3530  -10.2150 C.2   349  ARG349      0.2592
     24  O         52.9490  -46.4450  -10.7730 O.2   349  ARG349     -0.2718
     25  CB        52.4430  -48.1200   -8.1070 C.3   349  ARG349      0.0321
     26  CG        53.5770  -47.4520   -7.2400 C.3   349  ARG349      0.0489
     27  CD        53.1220  -47.1400   -5.8040 C.3   349  ARG349      0.2205
     28  NE        52.9610  -48.3680   -5.0130 N.pl3 349  ARG349     -0.0865
     29  CZ        53.9600  -48.9450   -4.3200 C.cat 349  ARG349      0.5346
     30  NH1       53.7160  -50.0470   -3.6250 N.pl3 349  ARG349      0.1354
     31  NH2       55.2100  -48.4160   -4.4270 N.pl3 349  ARG349      0.1354
     32  N         54.9190  -47.4050  -10.2490 N.am  350  ASN350     -0.1974
     33  CA        55.6800  -46.4560  -10.9900 C.3   350  ASN350      0.1688
     34  C         55.5860  -46.6850  -12.4990 C.2   350  ASN350      0.2292
     35  O         55.3790  -45.7740  -13.2550 O.2   350  ASN350     -0.2864
     36  CB        57.1510  -46.4540  -10.5920 C.3   350  ASN350      0.1181
     37  CG        57.3690  -46.0080   -9.1520 C.2   350  ASN350      0.2629
     38  OD1       56.4630  -45.4590   -8.4880 O.2   350  ASN350     -0.2716
     39  ND2       58.6160  -46.1930   -8.6860 N.am  350  ASN350     -0.0877
     40  N         62.8620  -52.8370   -2.7150 N.3   398  ILE398     -0.1301
     41  CA        61.5040  -52.7580   -2.0840 C.3   398  ILE398      0.1246
     42  C         60.6180  -53.7200   -2.7860 C.3   398  ILE398      0.2009
     43  O         59.5680  -54.1940   -2.2150 O.3   398  ILE398     -0.2188
     44  CB        60.9370  -51.3160   -2.0480 C.3   398  ILE398      0.0202
     45  CG1       59.7490  -51.2510   -1.0970 C.3   398  ILE398      0.0015
     46  CG2       60.4790  -50.8940   -3.4600 C.3   398  ILE398      0.0016
     47  CD1       60.1210  -51.3780    0.3660 C.3   398  ILE398      0.0000
     48  N         50.8320  -47.6770   -1.2220 N.3   470  TRP470     -0.1227
     49  CA        51.5280  -46.5650   -1.8710 C.3   470  TRP470      0.1737
     50  C         52.6990  -46.0260   -1.0850 C.2   470  TRP470      0.2596
     51  O         53.7300  -45.5840   -1.5950 O.2   470  TRP470     -0.2718
     52  CB        50.5130  -45.4180   -2.2170 C.3   470  TRP470      0.0564
     53  CG        51.1900  -44.2090   -2.7720 C.ar  470  TRP470      0.0003
     54  CD1       51.4660  -43.9630   -4.0850 C.ar  470  TRP470      0.0946
     55  CD2       51.7470  -43.1370   -2.0540 C.ar  470  TRP470      0.0152
     56  NE1       52.1310  -42.8170   -4.2030 N.ar  470  TRP470     -0.2442
     57  CE2       52.3600  -42.2760   -2.9630 C.ar  470  TRP470      0.0810
     58  CE3       51.8410  -42.8020   -0.6650 C.ar  470  TRP470      0.0012
     59  CZ2       53.0310  -41.1290   -2.5830 C.ar  470  TRP470      0.0191
     60  CZ3       52.5340  -41.6480   -0.3120 C.ar  470  TRP470      0.0001
     61  CH2       53.0970  -40.8250   -1.2330 C.ar  470  TRP470      0.0015
     62  N         52.5310  -45.9640    0.2760 N.am  471  CYS471     -0.1956
     63  CA        53.6190  -45.5100    1.1660 C.3   471  CYS471      0.1843
     64  C         54.5180  -46.7270    1.3440 C.2   471  CYS471      0.2625
     65  O         54.3140  -47.6250    2.1940 O.2   471  CYS471     -0.2714
     66  CB        53.0310  -44.9780    2.4360 C.3   471  CYS471      0.0997
     67  SG        54.3000  -44.3750    3.5580 S.3   471  CYS471     -0.0797
     68  N         55.6080  -46.7170    0.5480 N.am  472  ASP472     -0.1958
     69  CA        56.5300  -47.8580    0.5110 C.3   472  ASP472      0.1825
     70  C         57.0500  -48.3220    1.9190 C.2   472  ASP472      0.2464
     71  O         57.0180  -49.4960    2.1940 O.2   472  ASP472     -0.2730
     72  CB        57.6910  -47.5100   -0.4150 C.3   472  ASP472      0.1450
     73  CG        57.5970  -48.1420   -1.8230 C.2   472  ASP472      0.3671
     74  OD1       56.7820  -49.0380   -2.0210 O.co2 472  ASP472     -0.2456
     75  OD2       58.5080  -47.6420   -2.6020 O.co2 472  ASP472     -0.2456
     76  N         57.4340  -47.3730    2.7450 N.am  473  PRO473     -0.2727
     77  CA        58.0280  -47.7270    4.0700 C.3   473  PRO473      0.1402
     78  C         57.0180  -47.8510    5.1800 C.2   473  PRO473      0.2269
     79  O         57.3770  -48.0090    6.3210 O.2   473  PRO473     -0.2865
     80  CB        58.9900  -46.6110    4.3910 C.3   473  PRO473      0.0296
     81  CG        58.6290  -45.4510    3.5110 C.3   473  PRO473      0.0237
     82  CD        57.7240  -46.0010    2.4320 C.3   473  PRO473      0.0939
     83  N         58.7000  -48.3240    9.3670 N.3   609  ARG609     -0.1245
     84  CA        59.9060  -47.6540    8.9630 C.3   609  ARG609      0.1563
     85  C         59.7270  -46.1750    8.5820 C.2   609  ARG609      0.2260
     86  O         60.5810  -45.3310    8.7740 O.2   609  ARG609     -0.2867
     87  CB        60.6060  -48.4670    7.8660 C.3   609  ARG609      0.0307
     88  CG        61.9920  -47.9340    7.5100 C.3   609  ARG609      0.0489
     89  CD        62.7960  -48.8860    6.6080 C.3   609  ARG609      0.2205
     90  NE        62.1110  -49.1990    5.3570 N.pl3 609  ARG609     -0.0865
     91  CZ        62.2230  -48.4790    4.2800 C.cat 609  ARG609      0.5346
     92  NH1       62.9390  -47.3910    4.1900 N.pl3 609  ARG609      0.1354
     93  NH2       61.5770  -48.9050    3.2170 N.pl3 609  ARG609      0.1354
     94  N         62.1240  -42.0540    9.5250 N.3   613  LYS613     -0.1245
     95  CA        62.8000  -41.0580    8.7280 C.3   613  LYS613      0.1561
     96  C         62.9080  -39.7250    9.4370 C.2   613  LYS613      0.2260
     97  O         62.1080  -39.4590   10.3290 O.2   613  LYS613     -0.2867
     98  CB        62.1680  -40.9350    7.3590 C.3   613  LYS613      0.0271
     99  CG        62.2720  -42.2100    6.5860 C.3   613  LYS613      0.0035
    100  CD        62.0330  -42.0800    5.1040 C.3   613  LYS613      0.0206
    101  CE        62.1270  -43.4130    4.3700 C.3   613  LYS613      0.1093
    102  NZ        62.0620  -43.1460    2.9370 N.3   613  LYS613     -0.1314
    103  N         61.1050  -37.0060    3.0310 N.3   618  ALA618     -0.1231
    104  CA        60.4630  -38.1040    2.3090 C.3   618  ALA618      0.1694
    105  C         59.0770  -38.4330    2.8190 C.2   618  ALA618      0.2591
    106  O         58.2820  -37.4600    3.0360 O.2   618  ALA618     -0.2718
    107  CB        61.4140  -39.3370    2.2600 C.3   618  ALA618      0.0304
    108  N         58.7380  -39.6530    3.0410 N.am  619  GLU619     -0.1979
    109  CA        57.3260  -39.9610    3.4230 C.3   619  GLU619      0.1602
    110  C         56.9720  -39.4860    4.7820 C.2   619  GLU619      0.2287
    111  O         55.7530  -39.5020    5.1540 O.2   619  GLU619     -0.2864
    112  CB        57.0300  -41.4060    3.2070 C.3   619  GLU619      0.0415
    113  CG        57.2230  -41.9140    1.7910 C.3   619  GLU619      0.1163
    114  CD        58.6120  -42.5670    1.5870 C.2   619  GLU619      0.3649
    115  OE1       59.5500  -42.1730    2.3360 O.co2 619  GLU619     -0.2457
    116  OE2       58.7390  -43.3780    0.6650 O.co2 619  GLU619     -0.2457
    117  N         55.4860  -34.0150   -0.0760 N.3   624  TYR624     -0.1241
    118  CA        55.7990  -35.0860   -0.9500 C.3   624  TYR624      0.1605
    119  C         54.9310  -34.8460   -2.2400 C.2   624  TYR624      0.2264
    120  O         53.7120  -34.9710   -2.1660 O.2   624  TYR624     -0.2867
    121  CB        55.5390  -36.4350   -0.3190 C.3   624  TYR624      0.0534
    122  CG        56.3220  -37.5460   -0.9590 C.ar  624  TYR624     -0.0201
    123  CD1       57.6890  -37.7200   -0.5720 C.ar  624  TYR624     -0.0009
    124  CD2       55.8510  -38.3330   -1.9180 C.ar  624  TYR624     -0.0009
    125  CE1       58.4350  -38.7150   -1.1340 C.ar  624  TYR624      0.0417
    126  CE2       56.6520  -39.3000   -2.5500 C.ar  624  TYR624      0.0417
    127  CZ        57.9590  -39.4660   -2.1440 C.ar  624  TYR624      0.1957
    128  OH        58.8140  -40.4190   -2.6990 O.3   624  TYR624     -0.2866
    129  N         54.1030  -36.0870   -4.9880 N.3   626  HIS626     -0.1241
    130  CA        53.2350  -37.0470   -5.5740 C.3   626  HIS626      0.1621
    131  C         51.9220  -37.1510   -4.7620 C.2   626  HIS626      0.2264
    132  O         50.8530  -37.2380   -5.3640 O.2   626  HIS626     -0.2867
    133  CB        53.9350  -38.3800   -5.7240 C.3   626  HIS626      0.0745
    134  CG        53.2950  -39.3100   -6.6900 C.ar  626  HIS626      0.0817
    135  ND1       53.9040  -40.4500   -7.0880 N.ar  626  HIS626     -0.2268
    136  CD2       52.1100  -39.2730   -7.3540 C.ar  626  HIS626      0.1154
    137  CE1       53.1470  -41.1070   -7.9660 C.ar  626  HIS626      0.1986
    138  NE2       52.0590  -40.3660   -8.1620 N.ar  626  HIS626     -0.2212
    139  N         61.0030  -34.9290   -6.0440 N.3   672  ASN672     -0.1240
    140  CA        60.0890  -35.8050   -5.3400 C.3   672  ASN672      0.1653
    141  C         59.5380  -35.1530   -4.0560 C.2   672  ASN672      0.2266
    142  O         58.4050  -35.4360   -3.6240 O.2   672  ASN672     -0.2867
    143  CB        60.6100  -37.2330   -5.1560 C.3   672  ASN672      0.1155
    144  CG        61.6610  -37.3730   -4.0590 C.2   672  ASN672      0.2627
    145  OD1       62.4310  -36.4780   -3.8420 O.2   672  ASN672     -0.2716
    146  ND2       61.6510  -38.4900   -3.3820 N.am  672  ASN672     -0.0877
    147  N         65.7120  -34.3460   -6.3460 N.3   691  LEU691     -0.1245
    148  CA        65.5500  -35.6440   -7.0530 C.3   691  LEU691      0.1561
    149  C         64.5150  -35.4480   -8.2230 C.2   691  LEU691      0.2260
    150  O         63.3430  -35.1960   -7.9240 O.2   691  LEU691     -0.2867
    151  CB        65.1260  -36.7530   -6.1570 C.3   691  LEU691      0.0270
    152  CG        66.1720  -37.0480   -5.0370 C.3   691  LEU691      0.0019
    153  CD1       65.5640  -38.1180   -4.1770 C.3   691  LEU691      0.0001
    154  CD2       67.4860  -37.5650   -5.6010 C.3   691  LEU691      0.0001
    155  N         63.6230  -37.8460  -10.3210 N.3   693  ASN693     -0.1296
    156  CA        62.7890  -39.0260  -10.3940 C.3   693  ASN693      0.1339
    157  C         61.5630  -38.9230   -9.4890 C.3   693  ASN693      0.2014
    158  O         61.7150  -38.8680   -8.2060 O.3   693  ASN693     -0.2188
    159  CB        63.5500  -40.2970  -10.0450 C.3   693  ASN693      0.1102
    160  CG        64.4660  -40.6980  -11.2350 C.2   693  ASN693      0.2623
    161  OD1       64.0910  -41.4040  -12.0970 O.2   693  ASN693     -0.2716
    162  ND2       65.7410  -40.2170  -11.2480 N.am  693  ASN693     -0.0877
@<TRIPOS>BOND
     1     1     2    1
     2     3     2    1
     3     3     4    2
     4     2     5    1
     5    35    34    2
     6     5     6    1
     7     6     7    1
     8    34    33    1
     9   161   160    2
    10     7     8    1
    11     8     9    2
    12   162   160   am
    13   160   159    1
    14    33    36    1
    15    33    32    1
    16    15    14    2
    17    11     9    1
    18    24    23    2
    19     9    10    1
    20    36    37    1
    21   156   155    1
    22   156   159    1
    23   156   157    1
    24    32    23   am
    25    23    22    1
    26    12    13    1
    27    14    13    1
    28    21    22    1
    29    22    25    1
    30   157   158    1
    31    13    16    1
    32    37    39   am
    33    37    38    2
    34   149   150    2
    35   149   148    1
    36    16    17    1
    37   138   137   ar
    38   138   136   ar
    39    25    26    1
    40   137   135   ar
    41   136   134   ar
    42    17    18    1
    43    26    27    1
    44   135   134   ar
    45   148   147    1
    46   148   151    1
    47   134   133    1
    48   151   152    1
    49    18    20   am
    50    18    19    2
    51   139   140    1
    52    27    28    1
    53   133   130    1
    54   154   152    1
    55   130   129    1
    56   130   131    1
    57   132   131    2
    58   140   143    1
    59   140   141    1
    60   143   144    1
    61   152   153    1
    62    28    29    2
    63    31    29    1
    64    29    30    1
    65    56    54   ar
    66    56    57   ar
    67    54    53   ar
    68   144   145    2
    69   144   146   am
    70   141   142    2
    71    46    44    1
    72    57    59   ar
    73    57    55   ar
    74    42    43    1
    75    42    41    1
    76    53    52    1
    77    53    55   ar
    78    40    41    1
    79   128   127    1
    80    75    73   ar
    81    59    61   ar
    82   126   127   ar
    83   126   124   ar
    84   119   120    2
    85   119   118    1
    86    52    49    1
    87   127   125   ar
    88    41    44    1
    89    55    58   ar
    90    44    45    1
    91    74    73   ar
    92   124   122   ar
    93    49    48    1
    94    49    50    1
    95    73    72    1
    96    51    50    2
    97    61    60   ar
    98   125   123   ar
    99    45    47    1
   100    50    62   am
   101   122   123   ar
   102   122   121    1
   103   118   121    1
   104   118   117    1
   105    58    60   ar
   106    72    69    1
   107    62    63    1
   108    69    68    1
   109    69    70    1
   110    68    64   am
   111   116   114   ar
   112    63    64    1
   113    63    66    1
   114    64    65    2
   115   114   113    1
   116   114   115   ar
   117   113   112    1
   118    70    71    2
   119    70    76   am
   120   107   104    1
   121   104   105    1
   122   104   103    1
   123    82    76    1
   124    82    81    1
   125    66    67    1
   126    76    77    1
   127   105   106    2
   128   105   108   am
   129   102   101    1
   130   108   109    1
   131   112   109    1
   132    93    91    1
   133   109   110    1
   134    81    80    1
   135    77    80    1
   136    77    78    1
   137    92    91    1
   138    91    90    2
   139   101   100    1
   140   110   111    2
   141   100    99    1
   142    78    79    2
   143    90    89    1
   144    99    98    1
   145    89    88    1
   146    98    95    1
   147    88    87    1
   148    87    84    1
   149    85    86    2
   150    85    84    1
   151    95    96    1
   152    95    94    1
   153    84    83    1
   154    96    97    2
