@<TRIPOS>MOLECULE
tmp/4zlgA01.pdb
 109 103 0 0 0
SMALL
GASTEIGER

@<TRIPOS>ATOM
      1  N        -69.9890   31.8380   15.2040 N.3   341  ARG341     -0.1245
      2  CA       -70.2060   32.7330   14.1350 C.3   341  ARG341      0.1563
      3  C        -71.5910   33.5060   14.1630 C.2   341  ARG341      0.2260
      4  O        -71.9680   33.9170   13.1280 O.2   341  ARG341     -0.2867
      5  CB       -69.9530   32.1250   12.7470 C.3   341  ARG341      0.0307
      6  CG       -68.6530   31.2600   12.6950 C.3   341  ARG341      0.0489
      7  CD       -68.2870   30.8000   11.3240 C.3   341  ARG341      0.2205
      8  NE       -67.2790   29.7180   11.4140 N.pl3 341  ARG341     -0.0865
      9  CZ       -66.4980   29.3050   10.4180 C.cat 341  ARG341      0.5346
     10  NH1      -66.6140   29.8950    9.2060 N.pl3 341  ARG341      0.1354
     11  NH2      -65.6290   28.2760   10.6560 N.pl3 341  ARG341      0.1354
     12  N        -73.0770   25.6450    9.9240 N.3   347  GLN347     -0.1245
     13  CA       -72.7300   24.5630    8.9870 C.3   347  GLN347      0.1566
     14  C        -71.9680   23.4700    9.8490 C.2   347  GLN347      0.2260
     15  O        -71.1320   23.8200   10.7040 O.2   347  GLN347     -0.2867
     16  CB       -71.7620   25.0670    7.9260 C.3   347  GLN347      0.0367
     17  CG       -72.4500   26.1350    7.0260 C.3   347  GLN347      0.0905
     18  CD       -71.6240   26.6280    5.8910 C.2   347  GLN347      0.2608
     19  OE1      -71.3270   27.8230    5.7650 O.2   347  GLN347     -0.2717
     20  NE2      -71.2830   25.7320    5.0070 N.am  347  GLN347     -0.0878
     21  N        -69.5680   21.2760    9.3730 N.3   349  ARG349     -0.1182
     22  CA       -68.1420   21.2830    9.3400 C.3   349  ARG349      0.1910
     23  C        -67.5620   22.4530   10.0480 C.2   349  ARG349      0.2634
     24  O        -66.4520   22.3820   10.6160 O.2   349  ARG349     -0.2714
     25  CB       -67.5680   21.2860    7.9150 C.2   349  ARG349      0.0007
     26  CG       -68.1720   20.2930    6.9710 C.2   349  ARG349      0.0176
     27  CD       -67.8440   20.3720    5.3990 C.3   349  ARG349      0.2464
     28  NE       -68.0140   21.6050    4.8950 N.pl3 349  ARG349     -0.0815
     29  CZ       -69.0210   22.0600    4.1240 C.cat 349  ARG349      0.5349
     30  NH1      -69.8600   21.3360    3.4130 N.pl3 349  ARG349      0.1354
     31  NH2      -69.1590   23.3920    4.1790 N.pl3 349  ARG349      0.1354
     32  N        -68.2570   23.6180   10.0280 N.am  350  ASN350     -0.1972
     33  CA       -67.8490   24.7460   10.8000 C.3   350  ASN350      0.1688
     34  C        -68.0070   24.5580   12.3230 C.2   350  ASN350      0.2292
     35  O        -67.1200   24.9400   13.0510 O.2   350  ASN350     -0.2864
     36  CB       -68.5280   26.0940   10.3760 C.3   350  ASN350      0.1181
     37  CG       -68.2540   26.4680    8.9430 C.2   350  ASN350      0.2629
     38  OD1      -67.3570   25.9570    8.2690 O.2   350  ASN350     -0.2716
     39  ND2      -69.0120   27.4330    8.4770 N.am  350  ASN350     -0.0877
     40  N        -65.1700   22.0790   13.4020 N.3   353  GLN353     -0.1245
     41  CA       -63.8570   22.6530   13.2900 C.3   353  GLN353      0.1566
     42  C        -63.6420   23.8080   14.2700 C.2   353  GLN353      0.2260
     43  O        -62.5860   23.9460   14.8980 O.2   353  GLN353     -0.2867
     44  CB       -63.4370   23.0480   11.8700 C.3   353  GLN353      0.0367
     45  CG       -63.4540   21.8450   10.9300 C.3   353  GLN353      0.0905
     46  CD       -63.1680   22.2010    9.5470 C.2   353  GLN353      0.2608
     47  OE1      -64.1370   22.4660    8.7400 O.2   353  GLN353     -0.2717
     48  NE2      -61.9320   22.3900    9.2530 N.am  353  GLN353     -0.0878
     49  N        -66.5150   19.9390    0.9180 N.3   470  TRP470     -0.1241
     50  CA       -65.9330   21.0880    1.6050 C.3   470  TRP470      0.1605
     51  C        -66.0470   22.3790    0.7880 C.2   470  TRP470      0.2264
     52  O        -66.1560   23.4540    1.3500 O.2   470  TRP470     -0.2867
     53  CB       -64.4350   20.8330    1.8960 C.3   470  TRP470      0.0550
     54  CG       -63.6850   21.9840    2.4800 C.ar  470  TRP470      0.0003
     55  CD1      -63.5920   22.3070    3.8030 C.ar  470  TRP470      0.0946
     56  CD2      -63.0860   23.0330    1.7650 C.ar  470  TRP470      0.0152
     57  NE1      -62.8970   23.4750    3.9320 N.ar  470  TRP470     -0.2442
     58  CE2      -62.5580   23.9390    2.7040 C.ar  470  TRP470      0.0810
     59  CE3      -62.8780   23.3000    0.3890 C.ar  470  TRP470      0.0012
     60  CZ2      -61.8500   25.1350    2.3020 C.ar  470  TRP470      0.0191
     61  CZ3      -62.1680   24.4140    0.0160 C.ar  470  TRP470      0.0001
     62  CH2      -61.7260   25.3550    0.9350 C.ar  470  TRP470      0.0015
     63  N        -68.0570   24.6400   -0.8330 N.3   472  ASP472     -0.1239
     64  CA       -69.5110   24.9170   -0.7880 C.3   472  ASP472      0.1674
     65  C        -70.1590   25.1350   -2.1720 C.2   472  ASP472      0.2266
     66  O        -71.1660   24.5350   -2.4240 O.2   472  ASP472     -0.2867
     67  CB       -69.8090   26.0880    0.1340 C.3   472  ASP472      0.1410
     68  CG       -70.1700   25.6030    1.6100 C.2   472  ASP472      0.3668
     69  OD1      -70.4980   24.4280    1.8260 O.co2 472  ASP472     -0.2456
     70  OD2      -70.0950   26.5060    2.4680 O.co2 472  ASP472     -0.2456
     71  N        -63.5490   30.7680   -3.2520 N.3   619  GLU619     -0.1245
     72  CA       -63.1700   29.4300   -3.6550 C.3   619  GLU619      0.1567
     73  C        -62.6280   29.3360   -5.0720 C.2   619  GLU619      0.2260
     74  O        -61.9730   28.3200   -5.4220 O.2   619  GLU619     -0.2867
     75  CB       -64.3340   28.4970   -3.5280 C.3   619  GLU619      0.0388
     76  CG       -64.8840   28.2950   -2.1160 C.3   619  GLU619      0.1160
     77  CD       -66.0120   29.2520   -1.7590 C.2   619  GLU619      0.3649
     78  OE1      -66.1820   30.2990   -2.4760 O.co2 619  GLU619     -0.2457
     79  OE2      -66.6150   28.9630   -0.7200 O.co2 619  GLU619     -0.2457
     80  N        -57.0580   30.8130   -0.1550 N.3   624  TYR624     -0.1241
     81  CA       -58.2020   30.5370    0.7120 C.3   624  TYR624      0.1605
     82  C        -57.5440   29.9180    1.9740 C.2   624  TYR624      0.2264
     83  O        -57.0630   28.7480    1.9110 O.2   624  TYR624     -0.2867
     84  CB       -59.2250   29.6430    0.0860 C.3   624  TYR624      0.0534
     85  CG       -60.5650   29.8230    0.7490 C.ar  624  TYR624     -0.0201
     86  CD1      -61.4170   30.9180    0.4090 C.ar  624  TYR624     -0.0009
     87  CD2      -60.9960   28.9640    1.7680 C.ar  624  TYR624     -0.0009
     88  CE1      -62.6160   31.1090    1.0550 C.ar  624  TYR624      0.0417
     89  CE2      -62.1850   29.1830    2.4380 C.ar  624  TYR624      0.0417
     90  CZ       -62.9760   30.3000    2.0860 C.ar  624  TYR624      0.1957
     91  OH       -64.1650   30.5530    2.7030 O.3   624  TYR624     -0.2866
     92  N        -58.0900   28.5380    4.7990 N.3   626  HIS626     -0.1241
     93  CA       -58.4150   27.2830    5.3610 C.3   626  HIS626      0.1621
     94  C        -57.9350   26.0680    4.5330 C.2   626  HIS626      0.2264
     95  O        -57.4920   25.0630    5.0870 O.2   626  HIS626     -0.2867
     96  CB       -59.9240   27.2080    5.4940 C.3   626  HIS626      0.0745
     97  CG       -60.3990   26.1950    6.4930 C.ar  626  HIS626      0.0817
     98  ND1      -61.7140   26.0910    6.8600 N.ar  626  HIS626     -0.2268
     99  CD2      -59.7230   25.2940    7.2650 C.ar  626  HIS626      0.1154
    100  CE1      -61.8460   25.1710    7.8290 C.ar  626  HIS626      0.1986
    101  NE2      -60.6420   24.6420    8.0340 N.ar  626  HIS626     -0.2212
    102  N        -60.5500   35.0940    5.8630 N.3   672  ASN672     -0.1240
    103  CA       -60.8410   33.8710    5.1300 C.3   672  ASN672      0.1653
    104  C        -60.0830   33.6970    3.8300 C.2   672  ASN672      0.2266
    105  O        -59.7690   32.5370    3.4180 O.2   672  ASN672     -0.2867
    106  CB       -62.3740   33.5980    4.9530 C.3   672  ASN672      0.1155
    107  CG       -63.0380   34.4320    3.8460 C.2   672  ASN672      0.2627
    108  OD1      -62.7100   35.5790    3.6260 O.2   672  ASN672     -0.2716
    109  ND2      -63.9040   33.7910    3.1090 N.am  672  ASN672     -0.0877
@<TRIPOS>BOND
     1    74    73    2
     2    73    72    1
     3    72    75    1
     4    72    71    1
     5    75    76    1
     6    78    77   ar
     7    66    65    2
     8    65    64    1
     9    76    77    1
    10    77    79   ar
    11    63    64    1
    12    64    67    1
    13    80    81    1
    14    61    59   ar
    15    61    62   ar
    16    84    81    1
    17    84    85    1
    18    67    68    1
    19    59    56   ar
    20    86    85   ar
    21    86    88   ar
    22    81    82    1
    23    85    87   ar
    24    51    52    2
    25    51    50    1
    26    49    50    1
    27    62    60   ar
    28    88    90   ar
    29    50    53    1
    30    68    69   ar
    31    68    70   ar
    32    56    54   ar
    33    56    58   ar
    34    87    89   ar
    35    53    54    1
    36    83    82    2
    37    90    89   ar
    38    90    91    1
    39    60    58   ar
    40    54    55   ar
    41    58    57   ar
    42   109   107   am
    43    30    29    1
    44   105   104    2
    45   108   107    2
    46    55    57   ar
    47   104   103    1
    48   107   106    1
    49    29    31    1
    50    29    28    2
    51    94    95    2
    52    94    93    1
    53    92    93    1
    54    28    27    1
    55   106   103    1
    56    20    18   am
    57   103   102    1
    58    93    96    1
    59    27    26    1
    60    96    97    1
    61    19    18    2
    62    18    17    1
    63    97    98   ar
    64    97    99   ar
    65    98   100   ar
    66    26    25    2
    67    17    16    1
    68    99   101   ar
    69   100   101   ar
    70    25    22    1
    71    16    13    1
    72    38    37    2
    73    39    37   am
    74    47    46    2
    75    37    36    1
    76    13    14    1
    77    13    12    1
    78    10     9    1
    79    48    46   am
    80    22    21    1
    81    22    23    1
    82    46    45    1
    83    14    15    2
    84    32    23   am
    85    32    33    1
    86    23    24    2
    87    36    33    1
    88     9    11    1
    89     9     8    2
    90    33    34    1
    91    45    44    1
    92     7     8    1
    93     7     6    1
    94    44    41    1
    95    34    35    2
    96     6     5    1
    97     5     2    1
    98     4     3    2
    99    41    40    1
   100    41    42    1
   101     2     3    1
   102     2     1    1
   103    42    43    2
