@<TRIPOS>MOLECULE
tmp/4zlgA00.pdb
 117 110 0 0 0
SMALL
GASTEIGER

@<TRIPOS>ATOM
      1  N        -69.9890   31.8380   15.2040 N.3   341  ARG341     -0.1245
      2  CA       -70.2060   32.7330   14.1350 C.3   341  ARG341      0.1563
      3  C        -71.5910   33.5060   14.1630 C.2   341  ARG341      0.2260
      4  O        -71.9680   33.9170   13.1280 O.2   341  ARG341     -0.2867
      5  CB       -69.9530   32.1250   12.7470 C.3   341  ARG341      0.0307
      6  CG       -68.6530   31.2600   12.6950 C.3   341  ARG341      0.0489
      7  CD       -68.2870   30.8000   11.3240 C.3   341  ARG341      0.2205
      8  NE       -67.2790   29.7180   11.4140 N.pl3 341  ARG341     -0.0865
      9  CZ       -66.4980   29.3050   10.4180 C.cat 341  ARG341      0.5346
     10  NH1      -66.6140   29.8950    9.2060 N.pl3 341  ARG341      0.1354
     11  NH2      -65.6290   28.2760   10.6560 N.pl3 341  ARG341      0.1354
     12  N        -73.0770   25.6450    9.9240 N.3   347  GLN347     -0.1245
     13  CA       -72.7300   24.5630    8.9870 C.3   347  GLN347      0.1566
     14  C        -71.9680   23.4700    9.8490 C.2   347  GLN347      0.2260
     15  O        -71.1320   23.8200   10.7040 O.2   347  GLN347     -0.2867
     16  CB       -71.7620   25.0670    7.9260 C.3   347  GLN347      0.0367
     17  CG       -72.4500   26.1350    7.0260 C.3   347  GLN347      0.0905
     18  CD       -71.6240   26.6280    5.8910 C.2   347  GLN347      0.2608
     19  OE1      -71.3270   27.8230    5.7650 O.2   347  GLN347     -0.2717
     20  NE2      -71.2830   25.7320    5.0070 N.am  347  GLN347     -0.0878
     21  N        -68.2570   23.6180   10.0280 N.3   350  ASN350     -0.1240
     22  CA       -67.8490   24.7460   10.8000 C.3   350  ASN350      0.1653
     23  C        -68.0070   24.5580   12.3230 C.2   350  ASN350      0.2266
     24  O        -67.1200   24.9400   13.0510 O.2   350  ASN350     -0.2867
     25  CB       -68.5280   26.0940   10.3760 C.3   350  ASN350      0.1155
     26  CG       -68.2540   26.4680    8.9430 C.2   350  ASN350      0.2627
     27  OD1      -67.3570   25.9570    8.2690 O.2   350  ASN350     -0.2716
     28  ND2      -69.0120   27.4330    8.4770 N.am  350  ASN350     -0.0877
     29  N        -79.8530   29.1440    3.8650 N.3   397  TYR397     -0.1227
     30  CA       -78.8450   29.3910    2.8650 C.3   397  TYR397      0.1736
     31  C        -78.1180   28.1140    2.4060 C.2   397  TYR397      0.2592
     32  O        -78.7880   27.1600    2.0500 O.2   397  TYR397     -0.2718
     33  CB       -77.8470   30.4340    3.3560 C.3   397  TYR397      0.0548
     34  CG       -78.5170   31.7710    3.7280 C.ar  397  TYR397     -0.0200
     35  CD1      -79.1270   32.5590    2.7250 C.ar  397  TYR397     -0.0009
     36  CD2      -78.5360   32.2530    5.0390 C.ar  397  TYR397     -0.0009
     37  CE1      -79.7210   33.7760    3.0480 C.ar  397  TYR397      0.0417
     38  CE2      -79.1790   33.4510    5.3850 C.ar  397  TYR397      0.0417
     39  CZ       -79.7450   34.2260    4.4050 C.ar  397  TYR397      0.1957
     40  OH       -80.3350   35.4590    4.7260 O.3   397  TYR397     -0.2866
     41  N        -76.7690   28.0470    2.5260 N.am  398  ILE398     -0.2033
     42  CA       -76.1240   26.8580    1.9270 C.3   398  ILE398      0.1282
     43  C        -76.5600   25.5910    2.5810 C.3   398  ILE398      0.2035
     44  O        -76.4180   24.4700    1.9600 O.3   398  ILE398     -0.2185
     45  CB       -74.5630   27.0530    1.8810 C.3   398  ILE398      0.0226
     46  CG1      -73.9410   26.1030    0.8750 C.3   398  ILE398      0.0018
     47  CG2      -73.9930   26.9490    3.3170 C.3   398  ILE398      0.0018
     48  CD1      -74.0730   26.5120   -0.5210 C.3   398  ILE398      0.0001
     49  N        -68.0570   24.6400   -0.8330 N.3   472  ASP472     -0.1225
     50  CA       -69.5110   24.9170   -0.7880 C.3   472  ASP472      0.1790
     51  C        -70.1590   25.1350   -2.1720 C.2   472  ASP472      0.2439
     52  O        -71.1660   24.5350   -2.4240 O.2   472  ASP472     -0.2733
     53  CB       -69.8090   26.0880    0.1340 C.3   472  ASP472      0.1423
     54  CG       -70.1700   25.6030    1.6100 C.2   472  ASP472      0.3668
     55  OD1      -70.4980   24.4280    1.8260 O.co2 472  ASP472     -0.2456
     56  OD2      -70.0950   26.5060    2.4680 O.co2 472  ASP472     -0.2456
     57  N        -69.5550   25.9430   -3.0230 N.am  473  PRO473     -0.2729
     58  CA       -70.2040   26.2310   -4.3320 C.3   473  PRO473      0.1401
     59  C        -69.8360   25.2610   -5.4220 C.2   473  PRO473      0.2269
     60  O        -70.1500   25.4840   -6.5880 O.2   473  PRO473     -0.2865
     61  CB       -69.7010   27.6120   -4.7050 C.3   473  PRO473      0.0296
     62  CG       -68.5020   27.8790   -3.9030 C.3   473  PRO473      0.0237
     63  CD       -68.4740   26.9110   -2.7420 C.3   473  PRO473      0.0939
     64  N        -71.0680   26.4750   -9.6450 N.3   609  ARG609     -0.1245
     65  CA       -71.0920   27.8380   -9.2060 C.3   609  ARG609      0.1563
     66  C        -69.7400   28.4330   -8.7970 C.2   609  ARG609      0.2260
     67  O        -69.4490   29.5830   -9.0110 O.2   609  ARG609     -0.2867
     68  CB       -72.1980   28.0340   -8.1630 C.3   609  ARG609      0.0307
     69  CG       -72.4660   29.5090   -7.8230 C.3   609  ARG609      0.0489
     70  CD       -73.7340   29.6040   -6.9380 C.3   609  ARG609      0.2205
     71  NE       -73.5470   28.9070   -5.6310 N.pl3 609  ARG609     -0.0865
     72  CZ       -72.9240   29.4140   -4.5810 C.cat 609  ARG609      0.5346
     73  NH1      -72.4280   30.6500   -4.5160 N.pl3 609  ARG609      0.1354
     74  NH2      -72.8650   28.6470   -3.5010 N.pl3 609  ARG609      0.1354
     75  N        -67.5360   32.5650   -9.6260 N.3   613  LYS613     -0.1245
     76  CA       -66.9760   33.6470   -8.8280 C.3   613  LYS613      0.1561
     77  C        -65.8100   34.3690   -9.5190 C.2   613  LYS613      0.2260
     78  O        -65.2280   33.8240  -10.4470 O.2   613  LYS613     -0.2867
     79  CB       -66.5540   33.0520   -7.4650 C.3   613  LYS613      0.0271
     80  CG       -67.7010   32.5600   -6.6450 C.3   613  LYS613      0.0035
     81  CD       -67.3800   32.4330   -5.1450 C.3   613  LYS613      0.0206
     82  CE       -68.5800   31.9650   -4.3370 C.3   613  LYS613      0.1093
     83  NZ       -68.3310   31.9840   -2.8740 N.3   613  LYS613     -0.1314
     84  N        -62.4630   34.1730   -3.1690 N.3   618  ALA618     -0.1231
     85  CA       -63.0690   33.0380   -2.4660 C.3   618  ALA618      0.1694
     86  C        -62.6450   31.6770   -3.0300 C.2   618  ALA618      0.2591
     87  O        -61.4870   31.4850   -3.3340 O.2   618  ALA618     -0.2718
     88  CB       -64.6110   33.2430   -2.4050 C.3   618  ALA618      0.0304
     89  N        -63.5490   30.7680   -3.2520 N.am  619  GLU619     -0.1979
     90  CA       -63.1700   29.4300   -3.6550 C.3   619  GLU619      0.1602
     91  C        -62.6280   29.3360   -5.0720 C.2   619  GLU619      0.2287
     92  O        -61.9730   28.3200   -5.4220 O.2   619  GLU619     -0.2864
     93  CB       -64.3340   28.4970   -3.5280 C.3   619  GLU619      0.0415
     94  CG       -64.8840   28.2950   -2.1160 C.3   619  GLU619      0.1163
     95  CD       -66.0120   29.2520   -1.7590 C.2   619  GLU619      0.3649
     96  OE1      -66.1820   30.2990   -2.4760 O.co2 619  GLU619     -0.2457
     97  OE2      -66.6150   28.9630   -0.7200 O.co2 619  GLU619     -0.2457
     98  N        -57.0580   30.8130   -0.1550 N.3   624  TYR624     -0.1241
     99  CA       -58.2020   30.5370    0.7120 C.3   624  TYR624      0.1605
    100  C        -57.5440   29.9180    1.9740 C.2   624  TYR624      0.2264
    101  O        -57.0630   28.7480    1.9110 O.2   624  TYR624     -0.2867
    102  CB       -59.2250   29.6430    0.0860 C.3   624  TYR624      0.0534
    103  CG       -60.5650   29.8230    0.7490 C.ar  624  TYR624     -0.0201
    104  CD1      -61.4170   30.9180    0.4090 C.ar  624  TYR624     -0.0009
    105  CD2      -60.9960   28.9640    1.7680 C.ar  624  TYR624     -0.0009
    106  CE1      -62.6160   31.1090    1.0550 C.ar  624  TYR624      0.0417
    107  CE2      -62.1850   29.1830    2.4380 C.ar  624  TYR624      0.0417
    108  CZ       -62.9760   30.3000    2.0860 C.ar  624  TYR624      0.1957
    109  OH       -64.1650   30.5530    2.7030 O.3   624  TYR624     -0.2866
    110  N        -60.5500   35.0940    5.8630 N.3   672  ASN672     -0.1240
    111  CA       -60.8410   33.8710    5.1300 C.3   672  ASN672      0.1653
    112  C        -60.0830   33.6970    3.8300 C.2   672  ASN672      0.2266
    113  O        -59.7690   32.5370    3.4180 O.2   672  ASN672     -0.2867
    114  CB       -62.3740   33.5980    4.9530 C.3   672  ASN672      0.1155
    115  CG       -63.0380   34.4320    3.8460 C.2   672  ASN672      0.2627
    116  OD1      -62.7100   35.5790    3.6260 O.2   672  ASN672     -0.2716
    117  ND2      -63.9040   33.7910    3.1090 N.am  672  ASN672     -0.0877
@<TRIPOS>BOND
     1    78    77    2
     2    64    65    1
     3    75    76    1
     4    77    76    1
     5    65    66    1
     6    65    68    1
     7    67    66    2
     8    76    79    1
     9    68    69    1
    10    69    70    1
    11    79    80    1
    12    70    71    1
    13    80    81    1
    14    60    59    2
    15    71    72    2
    16    92    91    2
    17    59    58    1
    18    81    82    1
    19    91    90    1
    20    61    58    1
    21    61    62    1
    22    72    73    1
    23    72    74    1
    24    82    83    1
    25    58    57    1
    26    62    63    1
    27    90    93    1
    28    90    89    1
    29    93    94    1
    30    87    86    2
    31    89    86   am
    32    84    85    1
    33    86    85    1
    34    57    63    1
    35    57    51   am
    36    96    95   ar
    37    85    88    1
    38    52    51    2
    39    51    50    1
    40    94    95    1
    41    95    97   ar
    42    49    50    1
    43    50    53    1
    44    48    46    1
    45    98    99    1
    46   102    99    1
    47   102   103    1
    48    53    54    1
    49   104   103   ar
    50   104   106   ar
    51    99   100    1
    52   103   105   ar
    53    46    45    1
    54   106   108   ar
    55    54    55   ar
    56    54    56   ar
    57   105   107   ar
    58    45    42    1
    59    45    47    1
    60   101   100    2
    61    42    41    1
    62    42    43    1
    63    44    43    1
    64    32    31    2
    65   108   107   ar
    66   108   109    1
    67    31    41   am
    68    31    30    1
    69    35    37   ar
    70    35    34   ar
    71    30    33    1
    72    30    29    1
    73    37    39   ar
    74   117   115   am
    75    33    34    1
    76   113   112    2
    77   116   115    2
    78    34    36   ar
    79   112   111    1
    80   115   114    1
    81    39    40    1
    82    39    38   ar
    83   114   111    1
    84    20    18   am
    85    36    38   ar
    86   111   110    1
    87    19    18    2
    88    18    17    1
    89    17    16    1
    90    16    13    1
    91    27    26    2
    92    28    26   am
    93    26    25    1
    94    13    14    1
    95    13    12    1
    96    10     9    1
    97    14    15    2
    98    21    22    1
    99    25    22    1
   100     9    11    1
   101     9     8    2
   102    22    23    1
   103     7     8    1
   104     7     6    1
   105    23    24    2
   106     6     5    1
   107     5     2    1
   108     4     3    2
   109     2     3    1
   110     2     1    1
