@<TRIPOS>MOLECULE
tmp/4zliA00.pdb
 158 150 0 0 0
SMALL
GASTEIGER

@<TRIPOS>ATOM
      1  N         35.2270  -41.0320   24.8350 N.3    65  MET65      -0.1245
      2  CA        36.2290  -41.7840   25.6500 C.3    65  MET65       0.1570
      3  C         36.6040  -40.9600   26.8360 C.2    65  MET65       0.2261
      4  O         36.4980  -39.7520   26.7890 O.2    65  MET65      -0.2867
      5  CB        37.5970  -41.9150   24.8920 C.3    65  MET65       0.0387
      6  CG        37.4730  -42.6310   23.6710 C.3    65  MET65       0.0595
      7  SD        39.0010  -43.1510   23.0550 S.3    65  MET65      -0.1393
      8  CE        39.8630  -44.1710   24.2330 C.3    65  MET65       0.0692
      9  N         39.8510  -39.8950   29.5110 N.3    67  PRO67      -0.2116
     10  CA        41.2890  -39.9700   29.6330 C.3    67  PRO67       0.1372
     11  C         41.6980  -41.1990   30.3550 C.2    67  PRO67       0.2244
     12  O         40.9740  -41.6660   31.3030 O.2    67  PRO67      -0.2868
     13  CB        41.6310  -38.7140   30.4520 C.3    67  PRO67       0.0268
     14  CG        40.3860  -38.2580   31.0850 C.3    67  PRO67       0.0207
     15  CD        39.2690  -38.7790   30.2990 C.3    67  PRO67       0.0892
     16  N         36.9780  -31.8420   15.4670 N.3   341  ARG341     -0.1245
     17  CA        36.8170  -32.7740   16.5220 C.3   341  ARG341      0.1563
     18  C         35.4340  -33.4720   16.5410 C.2   341  ARG341      0.2260
     19  O         35.1030  -34.0150   17.6240 O.2   341  ARG341     -0.2867
     20  CB        37.1030  -32.1580   17.8830 C.3   341  ARG341      0.0307
     21  CG        38.3910  -31.2880   17.8760 C.3   341  ARG341      0.0489
     22  CD        38.7210  -30.9080   19.3090 C.3   341  ARG341      0.2205
     23  NE        39.7490  -29.8430   19.3430 N.pl3 341  ARG341     -0.0865
     24  CZ        40.4040  -29.4800   20.4400 C.cat 341  ARG341      0.5346
     25  NH1       40.2890  -30.1490   21.5980 N.pl3 341  ARG341      0.1354
     26  NH2       41.3170  -28.4530   20.3160 N.pl3 341  ARG341      0.1354
     27  N         33.9480  -25.7170   20.9630 N.3   347  GLN347     -0.1245
     28  CA        34.2810  -24.6660   21.9040 C.3   347  GLN347      0.1566
     29  C         35.0420  -23.5690   21.0760 C.2   347  GLN347      0.2260
     30  O         35.8800  -23.8920   20.1790 O.2   347  GLN347     -0.2867
     31  CB        35.2130  -25.2340   22.9600 C.3   347  GLN347      0.0367
     32  CG        34.4730  -26.2420   23.8440 C.3   347  GLN347      0.0905
     33  CD        35.1900  -26.7730   25.0200 C.2   347  GLN347      0.2608
     34  OE1       35.2710  -28.0220   25.2000 O.2   347  GLN347     -0.2717
     35  NE2       35.7340  -25.9210   25.8440 N.am  347  GLN347     -0.0878
     36  N         37.4170  -21.4240   21.5730 N.3   349  ARG349     -0.1231
     37  CA        38.8740  -21.3870   21.6310 C.3   349  ARG349      0.1694
     38  C         39.4470  -22.5690   20.9200 C.2   349  ARG349      0.2592
     39  O         40.5540  -22.5110   20.3790 O.2   349  ARG349     -0.2718
     40  CB        39.4050  -21.3160   23.0790 C.3   349  ARG349      0.0321
     41  CG        39.3370  -22.6240   23.9230 C.3   349  ARG349      0.0489
     42  CD        39.8700  -22.3580   25.3450 C.3   349  ARG349      0.2205
     43  NE        38.8960  -21.6140   26.1240 N.pl3 349  ARG349     -0.0865
     44  CZ        37.8980  -22.1980   26.8310 C.cat 349  ARG349      0.5346
     45  NH1       37.0380  -21.4440   27.4960 N.pl3 349  ARG349      0.1354
     46  NH2       37.7370  -23.5120   26.8040 N.pl3 349  ARG349      0.1354
     47  N         38.7170  -23.7050   20.8610 N.am  350  ASN350     -0.1974
     48  CA        39.1760  -24.8570   20.1060 C.3   350  ASN350      0.1688
     49  C         38.9650  -24.6180   18.6170 C.2   350  ASN350      0.2292
     50  O         39.8690  -24.9590   17.8410 O.2   350  ASN350     -0.2864
     51  CB        38.4620  -26.1650   20.4910 C.3   350  ASN350      0.1181
     52  CG        38.6670  -26.5720   21.9010 C.2   350  ASN350      0.2629
     53  OD1       39.5760  -26.0820   22.5890 O.2   350  ASN350     -0.2716
     54  ND2       37.8640  -27.5640   22.3540 N.am  350  ASN350     -0.0877
     55  N         40.4660  -20.1130   29.9400 N.3   470  TRP470     -0.1227
     56  CA        41.0730  -21.2700   29.2390 C.3   470  TRP470      0.1737
     57  C         40.9620  -22.5600   30.0730 C.2   470  TRP470      0.2596
     58  O         40.8160  -23.6350   29.5530 O.2   470  TRP470     -0.2718
     59  CB        42.5470  -20.9980   28.9050 C.3   470  TRP470      0.0564
     60  CG        43.2940  -22.2090   28.3750 C.ar  470  TRP470      0.0003
     61  CD1       43.3940  -22.5680   27.0470 C.ar  470  TRP470      0.0946
     62  CD2       43.9230  -23.2220   29.1050 C.ar  470  TRP470      0.0152
     63  NE1       44.0890  -23.6820   26.9410 N.ar  470  TRP470     -0.2442
     64  CE2       44.3910  -24.1670   28.1720 C.ar  470  TRP470      0.0810
     65  CE3       44.1390  -23.4930   30.4890 C.ar  470  TRP470      0.0012
     66  CZ2       45.0770  -25.2940   28.5530 C.ar  470  TRP470      0.0191
     67  CZ3       44.7980  -24.5770   30.8210 C.ar  470  TRP470      0.0001
     68  CH2       45.2360  -25.5270   29.8710 C.ar  470  TRP470      0.0015
     69  N         41.0940  -22.4400   31.3910 N.am  471  CYS471     -0.1956
     70  CA        40.8920  -23.5700   32.2890 C.3   471  CYS471      0.1843
     71  C         39.4410  -23.8480   32.4880 C.2   471  CYS471      0.2625
     72  O         38.7790  -23.2350   33.3290 O.2   471  CYS471     -0.2714
     73  CB        41.6060  -23.3680   33.6280 C.3   471  CYS471      0.0997
     74  SG        41.6080  -24.7830   34.7300 S.3   471  CYS471     -0.0797
     75  N         38.9220  -24.8240   31.7420 N.am  472  ASP472     -0.1971
     76  CA        37.4640  -25.0290   31.6940 C.3   472  ASP472      0.1709
     77  C         36.8220  -25.1920   33.0790 C.2   472  ASP472      0.2293
     78  O         35.8200  -24.5910   33.3090 O.2   472  ASP472     -0.2864
     79  CB        37.1540  -26.2750   30.8020 C.3   472  ASP472      0.1436
     80  CG        36.7790  -25.8920   29.3360 C.2   472  ASP472      0.3671
     81  OD1       36.4600  -24.7320   29.0250 O.co2 472  ASP472     -0.2456
     82  OD2       36.8270  -26.8820   28.5410 O.co2 472  ASP472     -0.2456
     83  N         39.4490  -32.6380   40.5050 N.3   613  LYS613     -0.1245
     84  CA        39.9630  -33.7280   39.6860 C.3   613  LYS613      0.1561
     85  C         41.1070  -34.4650   40.3570 C.2   613  LYS613      0.2260
     86  O         41.7390  -33.9270   41.2860 O.2   613  LYS613     -0.2867
     87  CB        40.4020  -33.1500   38.3300 C.3   613  LYS613      0.0271
     88  CG        39.2380  -32.6670   37.5370 C.3   613  LYS613      0.0035
     89  CD        39.5200  -32.5140   36.0350 C.3   613  LYS613      0.0206
     90  CE        38.3310  -32.0020   35.2870 C.3   613  LYS613      0.1093
     91  NZ        38.4550  -32.0630   33.8370 N.3   613  LYS613     -0.1314
     92  N         44.4810  -34.3310   34.0390 N.3   618  ALA618     -0.1231
     93  CA        43.7760  -33.2280   33.3590 C.3   618  ALA618      0.1694
     94  C         44.2290  -31.8270   33.8820 C.2   618  ALA618      0.2591
     95  O         45.4180  -31.6680   34.1580 O.2   618  ALA618     -0.2718
     96  CB        42.2290  -33.4730   33.3860 C.3   618  ALA618      0.0304
     97  N         43.3250  -30.9230   34.1390 N.am  619  GLU619     -0.1979
     98  CA        43.7130  -29.5650   34.5050 C.3   619  GLU619      0.1602
     99  C         44.2980  -29.5200   35.8960 C.2   619  GLU619      0.2287
    100  O         44.8700  -28.4680   36.2480 O.2   619  GLU619     -0.2864
    101  CB        42.5850  -28.6000   34.3800 C.3   619  GLU619      0.0415
    102  CG        42.0090  -28.4220   33.0010 C.3   619  GLU619      0.1163
    103  CD        40.8660  -29.3930   32.6460 C.2   619  GLU619      0.3649
    104  OE1       40.6990  -30.4370   33.3670 O.co2 619  GLU619     -0.2457
    105  OE2       40.1470  -29.0650   31.6690 O.co2 619  GLU619     -0.2457
    106  N         50.0170  -30.9330   31.0360 N.3   624  TYR624     -0.1241
    107  CA        48.9350  -30.6650   30.1880 C.3   624  TYR624      0.1605
    108  C         49.5950  -30.0830   28.9370 C.2   624  TYR624      0.2264
    109  O         50.1200  -28.9500   28.9300 O.2   624  TYR624     -0.2867
    110  CB        47.9320  -29.7430   30.7970 C.3   624  TYR624      0.0534
    111  CG        46.5710  -29.8880   30.0930 C.ar  624  TYR624     -0.0201
    112  CD1       45.6890  -30.9010   30.4920 C.ar  624  TYR624     -0.0009
    113  CD2       46.1580  -29.0770   29.0100 C.ar  624  TYR624     -0.0009
    114  CE1       44.4960  -31.1410   29.8370 C.ar  624  TYR624      0.0417
    115  CE2       44.9220  -29.2980   28.3680 C.ar  624  TYR624      0.0417
    116  CZ        44.1220  -30.3830   28.7780 C.ar  624  TYR624      0.1957
    117  OH        42.9420  -30.6660   28.1550 O.3   624  TYR624     -0.2866
    118  N         48.9490  -28.7240   26.1460 N.3   626  HIS626     -0.1241
    119  CA        48.6080  -27.5240   25.5300 C.3   626  HIS626      0.1621
    120  C         49.1440  -26.3030   26.3630 C.2   626  HIS626      0.2264
    121  O         49.5710  -25.2870   25.7810 O.2   626  HIS626     -0.2867
    122  CB        47.0770  -27.4330   25.3910 C.3   626  HIS626      0.0745
    123  CG        46.5950  -26.4060   24.4340 C.ar  626  HIS626      0.0817
    124  ND1       45.2800  -26.3050   24.0810 N.ar  626  HIS626     -0.2268
    125  CD2       47.2430  -25.4330   23.7130 C.ar  626  HIS626      0.1154
    126  CE1       45.1070  -25.3370   23.1820 C.ar  626  HIS626      0.1986
    127  NE2       46.3130  -24.7910   22.9570 N.ar  626  HIS626     -0.2212
    128  N         46.4550  -35.3180   25.0020 N.3   672  ASN672     -0.1240
    129  CA        46.2120  -34.0590   25.7270 C.3   672  ASN672      0.1653
    130  C         47.0380  -33.8910   27.0060 C.2   672  ASN672      0.2266
    131  O         47.2620  -32.7380   27.4330 O.2   672  ASN672     -0.2867
    132  CB        44.7110  -33.7100   25.9190 C.3   672  ASN672      0.1155
    133  CG        44.0570  -34.5300   27.0140 C.2   672  ASN672      0.2627
    134  OD1       44.3340  -35.6680   27.1970 O.2   672  ASN672     -0.2716
    135  ND2       43.2870  -33.8640   27.8050 N.am  672  ASN672     -0.0877
    136  N         44.5270  -39.5200   24.7670 N.3   691  LEU691     -0.1245
    137  CA        43.5120  -38.7460   24.0210 C.3   691  LEU691      0.1561
    138  C         44.2050  -37.9610   22.8820 C.2   691  LEU691      0.2260
    139  O         44.9640  -37.0380   23.1760 O.2   691  LEU691     -0.2867
    140  CB        42.7550  -37.7880   24.9270 C.3   691  LEU691      0.0270
    141  CG        41.9170  -38.5150   26.0520 C.3   691  LEU691      0.0019
    142  CD1       41.2300  -37.3940   26.8390 C.3   691  LEU691      0.0001
    143  CD2       40.8680  -39.4690   25.4640 C.3   691  LEU691      0.0001
    144  N         42.6050  -35.9930   20.7750 N.3   693  ASN693     -0.1225
    145  CA        41.9900  -34.6700   20.6270 C.3   693  ASN693      0.1785
    146  C         42.6880  -33.6540   21.5420 C.2   693  ASN693      0.2597
    147  O         42.6150  -33.7450   22.7950 O.2   693  ASN693     -0.2718
    148  CB        40.4690  -34.6850   20.9790 C.3   693  ASN693      0.1169
    149  CG        39.6450  -35.2260   19.8130 C.2   693  ASN693      0.2627
    150  OD1       39.2350  -34.5100   18.9150 O.2   693  ASN693     -0.2716
    151  ND2       39.4330  -36.5250   19.8070 N.am  693  ASN693     -0.0877
    152  N         43.4410  -32.7380   20.9440 N.am  694  THR694     -0.1953
    153  CA        44.1510  -31.7610   21.6910 C.3   694  THR694      0.1897
    154  C         44.6010  -30.5870   20.7440 C.2   694  THR694      0.2313
    155  O         45.1680  -30.8510   19.6780 O.2   694  THR694     -0.2863
    156  CB        45.3980  -32.3370   22.3800 C.3   694  THR694      0.1794
    157  OG1       46.1260  -31.2210   23.0280 O.3   694  THR694     -0.2208
    158  CG2       46.3520  -33.1190   21.4530 C.3   694  THR694      0.0378
@<TRIPOS>BOND
     1    16    17    1
     2    17    18    1
     3    17    20    1
     4    18    19    2
     5    50    49    2
     6    21    20    1
     7    21    22    1
     8    49    48    1
     9   150   149    2
    10    22    23    1
    11    23    24    2
    12   155   154    2
    13   151   149   am
    14   149   148    1
    15    48    51    1
    16    48    47    1
    17    30    29    2
    18    26    24    1
    19    39    38    2
    20    24    25    1
    21    51    52    1
    22   145   144    1
    23   145   148    1
    24   145   146    1
    25   154   153    1
    26    47    38   am
    27    38    37    1
    28   152   146   am
    29   152   153    1
    30    27    28    1
    31    29    28    1
    32   158   156    1
    33   146   147    2
    34    36    37    1
    35    37    40    1
    36   153   156    1
    37    52    54   am
    38    52    53    2
    39    28    31    1
    40   156   157    1
    41   138   139    2
    42   138   137    1
    43   127   126   ar
    44   127   125   ar
    45    31    32    1
    46     7     6    1
    47     7     8    1
    48    40    41    1
    49   126   124   ar
    50     6     5    1
    51   125   123   ar
    52    32    33    1
    53    41    42    1
    54   137   136    1
    55   137   140    1
    56   124   123   ar
    57   123   122    1
    58     1     2    1
    59     5     2    1
    60   140   141    1
    61   128   129    1
    62    33    34    2
    63    33    35   am
    64    42    43    1
    65   122   119    1
    66   143   141    1
    67   119   118    1
    68   119   120    1
    69     2     3    1
    70   129   132    1
    71   129   130    1
    72   121   120    2
    73   132   133    1
    74   141   142    1
    75    43    44    2
    76     4     3    2
    77    46    44    1
    78    44    45    1
    79    63    61   ar
    80    63    64   ar
    81   130   131    2
    82   133   134    2
    83   133   135   am
    84    61    60   ar
    85   117   116    1
    86    64    66   ar
    87    64    62   ar
    88   115   116   ar
    89   115   113   ar
    90    60    59    1
    91    60    62   ar
    92    82    80   ar
    93    66    68   ar
    94   116   114   ar
    95    59    56    1
    96   109   108    2
    97   108   107    1
    98   113   111   ar
    99    81    80   ar
   100    62    65   ar
   101    56    55    1
   102    56    57    1
   103    80    79    1
   104     9    10    1
   105     9    15    1
   106    58    57    2
   107    10    11    1
   108    10    13    1
   109   114   112   ar
   110    68    67   ar
   111    57    69   am
   112   111   112   ar
   113   111   110    1
   114   107   110    1
   115   107   106    1
   116    15    14    1
   117    11    12    2
   118    13    14    1
   119    65    67   ar
   120    79    76    1
   121    69    70    1
   122   105   103   ar
   123    76    75    1
   124    76    77    1
   125    75    71   am
   126    70    71    1
   127    70    73    1
   128    71    72    2
   129   103   102    1
   130   103   104   ar
   131   102   101    1
   132    77    78    2
   133    93    96    1
   134    93    94    1
   135    93    92    1
   136    73    74    1
   137    91    90    1
   138    94    97   am
   139    94    95    2
   140    97    98    1
   141   101    98    1
   142    98    99    1
   143    90    89    1
   144    99   100    2
   145    89    88    1
   146    88    87    1
   147    87    84    1
   148    84    85    1
   149    84    83    1
   150    85    86    2
