@<TRIPOS>MOLECULE
tmp/4zloA00.pdb
 167 160 0 0 0
SMALL
GASTEIGER

@<TRIPOS>ATOM
      1  N         49.5700    1.6620  -27.8880 N.3    55  LEU55      -0.1245
      2  CA        48.6440    2.3500  -26.9930 C.3    55  LEU55       0.1561
      3  C         48.3630    1.5350  -25.7270 C.2    55  LEU55       0.2260
      4  O         48.2220    2.1210  -24.6530 O.2    55  LEU55      -0.2867
      5  CB        47.3280    2.6550  -27.7300 C.3    55  LEU55       0.0270
      6  CG        46.4100    3.7520  -27.2330 C.3    55  LEU55       0.0019
      7  CD1       47.0700    5.1230  -27.2990 C.3    55  LEU55       0.0001
      8  CD2       45.1240    3.7480  -28.0630 C.3    55  LEU55       0.0001
      9  N         51.3590    1.6680  -22.9960 N.3    58  ASN58      -0.1225
     10  CA        51.3010    2.9240  -22.2680 C.3    58  ASN58       0.1785
     11  C         50.1220    2.9540  -21.3000 C.2    58  ASN58       0.2597
     12  O         50.2830    3.4450  -20.1910 O.2    58  ASN58      -0.2718
     13  CB        51.3260    4.1200  -23.2300 C.3    58  ASN58       0.1169
     14  CG        51.3860    5.4710  -22.5380 C.2    58  ASN58       0.2627
     15  OD1       50.3970    6.2090  -22.4880 O.2    58  ASN58      -0.2716
     16  ND2       52.5520    5.8510  -22.0200 N.am   58  ASN58      -0.0877
     17  N         48.9620    2.3990  -21.6970 N.am   59  GLU59      -0.1979
     18  CA        47.7680    2.3260  -20.8510 C.3    59  GLU59       0.1602
     19  C         47.9980    1.4590  -19.6010 C.2    59  GLU59       0.2287
     20  O         47.5240    1.8190  -18.5290 O.2    59  GLU59      -0.2864
     21  CB        46.5450    1.8580  -21.6480 C.3    59  GLU59       0.0415
     22  CG        45.9270    2.9730  -22.4740 C.3    59  GLU59       0.1163
     23  CD        44.4140    2.9880  -22.5870 C.2    59  GLU59       0.3649
     24  OE1       43.7330    2.4750  -21.6680 O.co2  59  GLU59      -0.2457
     25  OE2       43.9070    3.5960  -23.5580 O.co2  59  GLU59      -0.2457
     26  N         50.4560    3.4760  -17.3000 N.3    62  VAL62      -0.1231
     27  CA        49.7060    4.5880  -16.6820 C.3    62  VAL62       0.1692
     28  C         48.9440    4.0420  -15.4830 C.2    62  VAL62       0.2591
     29  O         49.1920    4.4930  -14.3750 O.2    62  VAL62      -0.2718
     30  CB        48.8170    5.3980  -17.6730 C.3    62  VAL62       0.0266
     31  CG1       47.9790    6.4430  -16.9460 C.3    62  VAL62       0.0020
     32  CG2       49.6800    6.0850  -18.7320 C.3    62  VAL62       0.0020
     33  N         48.1210    2.9960  -15.6970 N.am   63  MET63      -0.1979
     34  CA        47.3320    2.2740  -14.6860 C.3    63  MET63       0.1605
     35  C         48.1780    1.7630  -13.5390 C.2    63  MET63       0.2287
     36  O         47.7500    1.8420  -12.3920 O.2    63  MET63      -0.2864
     37  CB        46.6620    1.0550  -15.3120 C.3    63  MET63       0.0413
     38  CG        45.4130    1.3590  -16.0420 C.3    63  MET63       0.0598
     39  SD        44.7350   -0.1690  -16.7100 S.3    63  MET63      -0.1393
     40  CE        44.3710    0.4000  -18.3440 C.3    63  MET63       0.0692
     41  N         49.7010    4.8800  -11.5530 N.3    66  ASN66      -0.1240
     42  CA        48.7270    5.8250  -11.0310 C.3    66  ASN66       0.1653
     43  C         47.5630    5.1290  -10.3460 C.2    66  ASN66       0.2266
     44  O         46.7810    4.4350  -10.9980 O.2    66  ASN66      -0.2867
     45  CB        48.2880    6.7840  -12.1270 C.3    66  ASN66       0.1155
     46  CG        49.4400    7.5680  -12.6800 C.2    66  ASN66       0.2627
     47  OD1       49.9750    7.2730  -13.7560 O.2    66  ASN66      -0.2716
     48  ND2       49.8850    8.5430  -11.9210 N.am   66  ASN66      -0.0877
     49  N         38.6670    4.5470   -8.1780 N.3    71  ILE71      -0.1231
     50  CA        38.6840    3.8540   -9.4680 C.3    71  ILE71       0.1692
     51  C         39.0870    2.4210   -9.1740 C.2    71  ILE71       0.2592
     52  O         39.7440    2.1550   -8.1480 O.2    71  ILE71      -0.2718
     53  CB        39.6100    4.4990  -10.5520 C.3    71  ILE71       0.0266
     54  CG1       41.0990    4.5860  -10.0680 C.3    71  ILE71       0.0019
     55  CG2       39.0810    5.8670  -11.0880 C.3    71  ILE71       0.0020
     56  CD1       42.1520    4.1910  -11.1570 C.3    71  ILE71       0.0001
     57  N         38.6890    1.4860  -10.0510 N.am   72  VAL72      -0.1966
     58  CA        39.1540    0.1030   -9.9190 C.3    72  VAL72       0.1727
     59  C         40.6010    0.1730  -10.4260 C.2    72  VAL72       0.2616
     60  O         40.8480    0.7040  -11.5110 O.2    72  VAL72      -0.2715
     61  CB        38.3000   -0.9590  -10.6600 C.3    72  VAL72       0.0290
     62  CG1       36.9340   -1.1240   -9.9930 C.3    72  VAL72       0.0023
     63  CG2       38.1730   -0.6670  -12.1570 C.3    72  VAL72       0.0023
     64  N         41.5530   -0.1620   -9.5560 N.am   73  ASN73      -0.1958
     65  CA        42.9640   -0.0690   -9.8900 C.3    73  ASN73       0.1819
     66  C         43.4710   -1.3360  -10.4780 C.2    73  ASN73       0.2621
     67  O         42.8750   -2.3950  -10.2770 O.2    73  ASN73      -0.2715
     68  CB        43.7970    0.2770   -8.6590 C.3    73  ASN73       0.1195
     69  CG        43.5650    1.6690   -8.1660 C.2    73  ASN73       0.2630
     70  OD1       43.9780    2.6400   -8.7790 O.2    73  ASN73      -0.2716
     71  ND2       42.8810    1.7950   -7.0640 N.am   73  ASN73      -0.0877
     72  N         44.5920   -1.2060  -11.2170 N.am   74  TYR74      -0.1974
     73  CA        45.3860   -2.2670  -11.8170 C.3    74  TYR74       0.1639
     74  C         46.0670   -3.0210  -10.6540 C.2    74  TYR74       0.2290
     75  O         46.6490   -2.3950   -9.7630 O.2    74  TYR74      -0.2864
     76  CB        46.4400   -1.6240  -12.7370 C.3    74  TYR74       0.0560
     77  CG        47.5220   -2.5660  -13.2180 C.ar   74  TYR74      -0.0198
     78  CD1       48.6740   -2.7790  -12.4640 C.ar   74  TYR74      -0.0009
     79  CD2       47.3930   -3.2530  -14.4240 C.ar   74  TYR74      -0.0009
     80  CE1       49.6590   -3.6660  -12.8850 C.ar   74  TYR74       0.0417
     81  CE2       48.3950   -4.1080  -14.8770 C.ar   74  TYR74       0.0417
     82  CZ        49.5280   -4.3070  -14.1020 C.ar   74  TYR74       0.1957
     83  OH        50.5210   -5.1580  -14.4970 O.3    74  TYR74      -0.2866
     84  N         42.3040   -6.2890  -12.3950 N.3    88  MET88      -0.1245
     85  CA        41.9170   -5.0640  -11.7020 C.3    88  MET88       0.1570
     86  C         41.0600   -5.3450  -10.5060 C.2    88  MET88       0.2261
     87  O         40.5270   -6.4370  -10.3790 O.2    88  MET88      -0.2867
     88  CB        41.1880   -4.1080  -12.6320 C.3    88  MET88       0.0387
     89  CG        42.1260   -3.3940  -13.5650 C.3    88  MET88       0.0595
     90  SD        41.3400   -3.1290  -15.1410 S.3    88  MET88      -0.1393
     91  CE        40.7360   -4.8240  -15.5340 C.3    88  MET88       0.0692
     92  N         41.1500   13.0690  -10.3080 N.3   123  PHE123     -0.1227
     93  CA        42.2960   12.1820  -10.5090 C.3   123  PHE123      0.1736
     94  C         42.5610   11.8530  -12.0030 C.2   123  PHE123      0.2595
     95  O         43.6950   11.9900  -12.4520 O.2   123  PHE123     -0.2718
     96  CB        42.1100   10.8960   -9.6820 C.3   123  PHE123      0.0547
     97  CG        43.0990    9.8030  -10.0160 C.ar  123  PHE123     -0.0202
     98  CD1       44.4050    9.8420   -9.5140 C.ar  123  PHE123     -0.0042
     99  CD2       42.7330    8.7400  -10.8500 C.ar  123  PHE123     -0.0042
    100  CE1       45.3150    8.8260   -9.8230 C.ar  123  PHE123     -0.0003
    101  CE2       43.6430    7.7240  -11.1550 C.ar  123  PHE123     -0.0003
    102  CZ        44.9290    7.7740  -10.6450 C.ar  123  PHE123     -0.0000
    103  N         41.5270   11.4060  -12.7470 N.am  124  LEU124     -0.1980
    104  CA        41.6220   11.0460  -14.1650 C.3   124  LEU124      0.1596
    105  C         41.9840   12.2180  -15.0520 C.2   124  LEU124      0.2287
    106  O         42.8030   12.0680  -15.9480 O.2   124  LEU124     -0.2864
    107  CB        40.3250   10.3880  -14.6700 C.3   124  LEU124      0.0297
    108  CG        40.0290    8.9630  -14.1610 C.3   124  LEU124      0.0022
    109  CD1       38.6790    8.5140  -14.6490 C.3   124  LEU124      0.0001
    110  CD2       41.0880    7.9450  -14.6240 C.3   124  LEU124      0.0001
    111  N         45.5010   13.2650  -14.8980 N.3   127  ASN127     -0.1225
    112  CA        46.2610   12.2720  -15.6600 C.3   127  ASN127      0.1785
    113  C         45.9080   12.3380  -17.1600 C.2   127  ASN127      0.2597
    114  O         46.2470   11.4320  -17.9180 O.2   127  ASN127     -0.2718
    115  CB        46.0650   10.8720  -15.0700 C.3   127  ASN127      0.1169
    116  CG        46.7740   10.6880  -13.7540 C.2   127  ASN127      0.2627
    117  OD1       48.0050   10.7530  -13.6630 O.2   127  ASN127     -0.2716
    118  ND2       46.0190   10.4580  -12.6950 N.am  127  ASN127     -0.0877
    119  N         45.2590   13.4380  -17.5790 N.am  128  GLN128     -0.1965
    120  CA        44.8390   13.7380  -18.9530 C.3   128  GLN128      0.1733
    121  C         44.0050   12.6130  -19.5840 C.2   128  GLN128      0.2616
    122  O         44.1790   12.2770  -20.7590 O.2   128  GLN128     -0.2715
    123  CB        46.0420   14.1460  -19.8410 C.3   128  GLN128      0.0408
    124  CG        46.7500   15.4430  -19.4560 C.3   128  GLN128      0.0908
    125  CD        45.8180   16.6270  -19.4510 C.2   128  GLN128      0.2608
    126  OE1       45.1200   16.8530  -20.4580 O.2   128  GLN128     -0.2717
    127  NE2       45.6880   17.2960  -18.3490 N.am  128  GLN128     -0.0878
    128  N         43.0790   12.0540  -18.7940 N.am  129  VAL129     -0.1977
    129  CA        42.1540   10.9980  -19.2130 C.3   129  VAL129      0.1596
    130  C         40.7300   11.5610  -19.1420 C.2   129  VAL129      0.2287
    131  O         40.3470   12.1520  -18.1310 O.2   129  VAL129     -0.2864
    132  CB        42.3200    9.6870  -18.3790 C.3   129  VAL129      0.0276
    133  CG1       41.2530    8.6570  -18.7290 C.3   129  VAL129      0.0022
    134  CG2       43.7070    9.0850  -18.5560 C.3   129  VAL129      0.0022
    135  N         36.9960   10.1480  -19.3970 N.3   131  HIS131     -0.1241
    136  CA        36.2830    8.8890  -19.2990 C.3   131  HIS131      0.1621
    137  C         35.3500    8.6680  -20.4840 C.2   131  HIS131      0.2264
    138  O         35.4630    7.6260  -21.1290 O.2   131  HIS131     -0.2867
    139  CB        35.5850    8.7800  -17.9490 C.3   131  HIS131      0.0745
    140  CG        35.0640    7.4200  -17.6710 C.ar  131  HIS131      0.0817
    141  ND1       33.9060    6.9640  -18.2480 N.ar  131  HIS131     -0.2268
    142  CD2       35.5300    6.4910  -16.8190 C.ar  131  HIS131      0.1154
    143  CE1       33.7350    5.7450  -17.7720 C.ar  131  HIS131      0.1986
    144  NE2       34.6830    5.4290  -16.8940 N.ar  131  HIS131     -0.2212
    145  N         34.7240    4.0120   -9.7760 N.3   149  LEU149     -0.1231
    146  CA        34.4480    4.2320  -11.1870 C.3   149  LEU149      0.1693
    147  C         35.1760    3.1500  -12.0170 C.2   149  LEU149      0.2593
    148  O         36.3180    2.8250  -11.7080 O.2   149  LEU149     -0.2718
    149  CB        34.9520    5.6430  -11.5260 C.3   149  LEU149      0.0284
    150  CG        34.8520    6.1540  -12.9360 C.3   149  LEU149      0.0019
    151  CD1       33.4050    6.0880  -13.4590 C.3   149  LEU149      0.0001
    152  CD2       35.4640    7.5480  -13.0240 C.3   149  LEU149      0.0001
    153  N         34.4970    2.5670  -13.0220 N.am  150  THR150     -0.1939
    154  CA        35.0460    1.5480  -13.9460 C.3   150  THR150      0.2028
    155  C         34.8600    2.0370  -15.3920 C.2   150  THR150      0.2642
    156  O         34.2990    3.1030  -15.6080 O.2   150  THR150     -0.2714
    157  CB        34.3340    0.1720  -13.8170 C.3   150  THR150      0.1808
    158  OG1       32.9630    0.3080  -14.1630 O.3   150  THR150     -0.2208
    159  CG2       34.4550   -0.4570  -12.4560 C.3   150  THR150      0.0379
    160  N         35.2830    1.2310  -16.3800 N.am  151  ASP151     -0.1971
    161  CA        35.1010    1.5480  -17.7970 C.3   151  ASP151      0.1709
    162  C         34.8980    0.2200  -18.5500 C.2   151  ASP151      0.2293
    163  O         33.7400   -0.1940  -18.7330 O.2   151  ASP151     -0.2864
    164  CB        36.2740    2.3970  -18.3510 C.3   151  ASP151      0.1436
    165  CG        35.9290    3.3780  -19.4610 C.2   151  ASP151      0.3671
    166  OD1       34.7640    3.3570  -19.9450 O.co2 151  ASP151     -0.2456
    167  OD2       36.8210    4.1760  -19.8460 O.co2 151  ASP151     -0.2456
@<TRIPOS>BOND
     1     8     6    1
     2     1     2    1
     3     5     6    1
     4     5     2    1
     5     7     6    1
     6     2     3    1
     7     3     4    2
     8    25    23   ar
     9    13    14    1
    10    13    10    1
    11     9    10    1
    12    23    22    1
    13    23    24   ar
    14    14    15    2
    15    14    16   am
    16    22    21    1
    17    10    11    1
    18    17    11   am
    19    17    18    1
    20    21    18    1
    21    11    12    2
    22   138   137    2
    23    18    19    1
    24   122   121    2
    25   137   136    1
    26   126   125    2
    27   166   165   ar
    28   167   165   ar
    29   123   124    1
    30   123   120    1
    31    19    20    2
    32   121   120    1
    33   121   128   am
    34   165   164    1
    35   124   125    1
    36   125   127   am
    37   135   136    1
    38   136   139    1
    39   129   130    1
    40   129   128    1
    41   129   132    1
    42   130   131    2
    43   120   119    1
    44   163   162    2
    45    32    30    1
    46   133   132    1
    47   134   132    1
    48   162   161    1
    49   164   161    1
    50    40    39    1
    51   141   143   ar
    52   141   140   ar
    53   139   140    1
    54   114   113    2
    55   161   160    1
    56   143   144   ar
    57    30    31    1
    58    30    27    1
    59   140   142   ar
    60   119   113   am
    61    26    27    1
    62   113   112    1
    63   144   142   ar
    64    39    38    1
    65    27    28    1
    66   160   155   am
    67    38    37    1
    68   106   105    2
    69    33    28   am
    70    33    34    1
    71   112   115    1
    72   112   111    1
    73   156   155    2
    74    91    90    1
    75    28    29    2
    76   155   154    1
    77    37    34    1
    78    90    89    1
    79   115   116    1
    80   105   104    1
    81    81    79   ar
    82    81    82   ar
    83    34    35    1
    84   107   104    1
    85   107   108    1
    86   109   108    1
    87   110   108    1
    88    83    82    1
    89    79    77   ar
    90   104   103    1
    91   158   157    1
    92    82    80   ar
    93   154   157    1
    94   154   153    1
    95   157   159    1
    96    47    46    2
    97   116   117    2
    98   116   118   am
    99    89    88    1
   100    35    36    2
   101   151   150    1
   102    77    76    1
   103    77    78   ar
   104   152   150    1
   105   153   147   am
   106   150   149    1
   107    80    78   ar
   108   103    94   am
   109    76    73    1
   110    46    45    1
   111    46    48   am
   112    88    85    1
   113    95    94    2
   114    84    85    1
   115    63    61    1
   116    45    42    1
   117   147   148    2
   118   147   146    1
   119    94    93    1
   120    73    72    1
   121    73    74    1
   122    85    86    1
   123    41    42    1
   124   149   146    1
   125    60    59    2
   126    72    66   am
   127   146   145    1
   128    56    54    1
   129   101    99   ar
   130   101   102   ar
   131    55    53    1
   132    42    43    1
   133    44    43    2
   134    99    97   ar
   135    61    62    1
   136    61    58    1
   137    74    75    2
   138   102   100   ar
   139    53    54    1
   140    53    50    1
   141    93    92    1
   142    93    96    1
   143    86    87    2
   144    66    67    2
   145    66    65    1
   146    59    58    1
   147    59    64   am
   148    57    58    1
   149    57    51   am
   150    97    96    1
   151    97    98   ar
   152    65    64    1
   153    65    68    1
   154   100    98   ar
   155    50    51    1
   156    50    49    1
   157    51    52    2
   158    70    69    2
   159    68    69    1
   160    69    71   am
