@<TRIPOS>MOLECULE
tmp/4zlrC00.pdb
 78 75 0 0 0
SMALL
GASTEIGER

@<TRIPOS>ATOM
      1  N        -20.1820  -51.1610  -45.7640 N.3   209  ASN209     -0.1225
      2  CA       -19.9970  -51.3950  -44.3360 C.3   209  ASN209      0.1785
      3  C        -20.7790  -52.6080  -43.8440 C.2   209  ASN209      0.2598
      4  O        -21.4420  -53.2920  -44.6230 O.2   209  ASN209     -0.2718
      5  CB       -20.3780  -50.1430  -43.5260 C.3   209  ASN209      0.1169
      6  CG       -21.8460  -49.7660  -43.6500 C.2   209  ASN209      0.2627
      7  OD1      -22.6900  -50.5720  -44.0430 O.2   209  ASN209     -0.2716
      8  ND2      -22.1560  -48.5240  -43.2940 N.am  209  ASN209     -0.0877
      9  N        -20.6930  -52.8600  -42.5420 N.am  210  SER210     -0.1938
     10  CA       -21.3070  -54.0310  -41.9270 C.3   210  SER210      0.2055
     11  C        -22.8310  -54.0300  -42.0460 C.2   210  SER210      0.2643
     12  O        -23.4720  -55.0630  -41.8630 O.2   210  SER210     -0.2714
     13  CB       -20.9010  -54.1090  -40.4580 C.3   210  SER210      0.2130
     14  OG       -21.2620  -52.9230  -39.7770 O.3   210  SER210     -0.2179
     15  N        -23.4030  -52.8710  -42.3600 N.am  211  ASN211     -0.1971
     16  CA       -24.8450  -52.7520  -42.5570 C.3   211  ASN211      0.1688
     17  C        -25.2480  -53.0010  -44.0030 C.2   211  ASN211      0.2292
     18  O        -26.4300  -52.9530  -44.3400 O.2   211  ASN211     -0.2864
     19  CB       -25.3280  -51.3650  -42.1320 C.3   211  ASN211      0.1181
     20  CG       -25.2470  -51.1540  -40.6400 C.2   211  ASN211      0.2629
     21  OD1      -25.4840  -52.0730  -39.8580 O.2   211  ASN211     -0.2716
     22  ND2      -24.8980  -49.9390  -40.2340 N.am  211  ASN211     -0.0877
     23  N        -24.4950  -50.9940  -46.2230 N.3   213  GLU213     -0.1245
     24  CA       -24.6640  -49.6530  -46.7680 C.3   213  GLU213      0.1567
     25  C        -23.4640  -49.2880  -47.6350 C.2   213  GLU213      0.2260
     26  O        -22.3320  -49.6640  -47.3300 O.2   213  GLU213     -0.2867
     27  CB       -24.8470  -48.6370  -45.6380 C.3   213  GLU213      0.0388
     28  CG       -25.9980  -48.9840  -44.6930 C.3   213  GLU213      0.1160
     29  CD       -25.9730  -48.1970  -43.3930 C.2   213  GLU213      0.3649
     30  OE1      -24.8810  -47.7730  -42.9570 O.co2 213  GLU213     -0.2457
     31  OE2      -27.0560  -48.0130  -42.7970 O.co2 213  GLU213     -0.2457
     32  N        -13.5010  -48.7680  -41.5190 N.3   253  MET253     -0.1230
     33  CA       -13.2100  -49.3710  -40.2190 C.3   253  MET253      0.1702
     34  C        -14.5060  -49.6530  -39.4680 C.2   253  MET253      0.2592
     35  O        -15.4720  -48.8990  -39.5900 O.2   253  MET253     -0.2718
     36  CB       -12.3060  -48.4670  -39.3880 C.3   253  MET253      0.0401
     37  CG       -10.9740  -48.1660  -40.0460 C.3   253  MET253      0.0596
     38  SD        -9.9210  -47.1240  -39.0200 S.3   253  MET253     -0.1393
     39  CE        -9.4270  -48.2900  -37.7560 C.3   253  MET253      0.0692
     40  N        -14.5230  -50.7440  -38.7050 N.am  254  ASP254     -0.1960
     41  CA       -15.7470  -51.2280  -38.0650 C.3   254  ASP254      0.1840
     42  C        -16.3730  -50.2550  -37.0750 C.2   254  ASP254      0.2622
     43  O        -17.5410  -50.4090  -36.7250 O.2   254  ASP254     -0.2715
     44  CB       -15.4710  -52.5370  -37.3180 C.3   254  ASP254      0.1450
     45  CG       -15.1280  -53.6800  -38.2420 C.2   254  ASP254      0.3671
     46  OD1      -15.6080  -53.6880  -39.3960 O.co2 254  ASP254     -0.2456
     47  OD2      -14.3760  -54.5740  -37.8080 O.co2 254  ASP254     -0.2456
     48  N        -15.6240  -49.2550  -36.6250 N.am  255  ASP255     -0.1957
     49  CA       -16.1860  -48.2920  -35.6830 C.3   255  ASP255      0.1840
     50  C        -17.0310  -47.2340  -36.3860 C.2   255  ASP255      0.2622
     51  O        -17.5900  -46.3490  -35.7400 O.2   255  ASP255     -0.2715
     52  CB       -15.0740  -47.6340  -34.8490 C.3   255  ASP255      0.1450
     53  CG       -14.1070  -46.8020  -35.6820 C.2   255  ASP255      0.3671
     54  OD1      -14.5540  -45.9650  -36.4930 O.co2 255  ASP255     -0.2456
     55  OD2      -12.8830  -46.9790  -35.5100 O.co2 255  ASP255     -0.2456
     56  N        -17.1410  -47.3410  -37.7050 N.am  256  GLY256     -0.1954
     57  CA       -17.8870  -46.3690  -38.4760 C.3   256  GLY256      0.1869
     58  C        -16.9720  -45.2410  -38.8940 C.2   256  GLY256      0.2309
     59  O        -17.2710  -44.0690  -38.6670 O.2   256  GLY256     -0.2863
     60  N        -17.8840  -41.2930  -39.4030 N.3   272  TYR272     -0.1227
     61  CA       -19.1370  -40.9120  -40.0520 C.3   272  TYR272      0.1736
     62  C        -20.3490  -41.4160  -39.2710 C.2   272  TYR272      0.2595
     63  O        -21.4560  -41.4840  -39.8070 O.2   272  TYR272     -0.2718
     64  CB       -19.1750  -41.4210  -41.4980 C.3   272  TYR272      0.0548
     65  CG       -19.2310  -42.9230  -41.6620 C.ar  272  TYR272     -0.0200
     66  CD1      -18.0680  -43.6780  -41.7520 C.ar  272  TYR272     -0.0009
     67  CD2      -20.4490  -43.5820  -41.7570 C.ar  272  TYR272     -0.0009
     68  CE1      -18.1210  -45.0510  -41.9160 C.ar  272  TYR272      0.0417
     69  CE2      -20.5100  -44.9520  -41.9200 C.ar  272  TYR272      0.0417
     70  CZ       -19.3460  -45.6820  -41.9990 C.ar  272  TYR272      0.1957
     71  OH       -19.4130  -47.0480  -42.1640 O.3   272  TYR272     -0.2866
     72  N        -20.1280  -41.7620  -38.0050 N.am  273  VAL273     -0.1980
     73  CA       -21.2140  -42.0510  -37.0700 C.3   273  VAL273      0.1595
     74  C        -21.1100  -41.1370  -35.8560 C.2   273  VAL273      0.2287
     75  O        -20.0560  -40.5580  -35.5970 O.2   273  VAL273     -0.2864
     76  CB       -21.2090  -43.5170  -36.5980 C.3   273  VAL273      0.0276
     77  CG1      -21.6670  -44.4300  -37.7150 C.3   273  VAL273      0.0022
     78  CG2      -19.8280  -43.9210  -36.0940 C.3   273  VAL273      0.0022
@<TRIPOS>BOND
     1    25    26    2
     2    25    24    1
     3    24    23    1
     4    24    27    1
     5     1     2    1
     6    27    28    1
     7    28    29    1
     8     4     3    2
     9    18    17    2
    10     2     3    1
    11     2     5    1
    12     7     6    2
    13    17    16    1
    14     3     9   am
    15     6     5    1
    16     6     8   am
    17    29    30   ar
    18    29    31   ar
    19    16    15    1
    20    16    19    1
    21     9    10    1
    22    15    11   am
    23    71    70    1
    24    19    20    1
    25    11    10    1
    26    11    12    2
    27    70    69   ar
    28    70    68   ar
    29    10    13    1
    30    69    67   ar
    31    68    66   ar
    32    67    65   ar
    33    66    65   ar
    34    65    64    1
    35    32    33    1
    36    64    61    1
    37    20    22   am
    38    20    21    2
    39    13    14    1
    40    33    34    1
    41    33    36    1
    42    61    60    1
    43    61    62    1
    44    37    36    1
    45    37    38    1
    46    63    62    2
    47    35    34    2
    48    34    40   am
    49    46    45   ar
    50    62    72   am
    51    38    39    1
    52    58    59    2
    53    58    57    1
    54    40    41    1
    55    57    56    1
    56    45    47   ar
    57    45    44    1
    58    41    44    1
    59    41    42    1
    60    72    73    1
    61    77    76    1
    62    56    50   am
    63    42    43    2
    64    42    48   am
    65    73    76    1
    66    73    74    1
    67    48    49    1
    68    76    78    1
    69    54    53   ar
    70    50    51    2
    71    50    49    1
    72    74    75    2
    73    49    52    1
    74    53    55   ar
    75    53    52    1
