@<TRIPOS>MOLECULE
tmp/4zlsB00.pdb
 136 128 0 0 0
SMALL
GASTEIGER

@<TRIPOS>ATOM
      1  N         20.3370   34.5430   24.7290 N.3     8  ARG8       -0.1245
      2  CA        19.5830   33.2840   24.8580 C.3     8  ARG8        0.1563
      3  C         18.6330   33.3500   26.0350 C.2     8  ARG8        0.2260
      4  O         19.0660   33.8570   27.0810 O.2     8  ARG8       -0.2867
      5  CB        20.5680   32.1480   25.0520 C.3     8  ARG8        0.0307
      6  CG        21.2350   31.6990   23.7470 C.3     8  ARG8        0.0489
      7  CD        21.8810   30.3200   23.9880 C.3     8  ARG8        0.2205
      8  NE        22.4790   29.8450   22.7300 N.pl3   8  ARG8       -0.0865
      9  CZ        23.1100   28.6730   22.6440 C.cat   8  ARG8        0.5346
     10  NH1       23.1960   27.9150   23.7280 N.pl3   8  ARG8        0.1354
     11  NH2       23.6270   28.2910   21.4870 N.pl3   8  ARG8        0.1354
     12  N         17.0280   26.4810   28.3900 N.3    23  LEU23      -0.1245
     13  CA        16.5720   27.3910   27.3270 C.3    23  LEU23       0.1561
     14  C         15.0780   27.3680   27.1110 C.2    23  LEU23       0.2260
     15  O         14.5050   26.2870   26.8650 O.2    23  LEU23      -0.2867
     16  CB        17.3310   26.9500   26.0750 C.3    23  LEU23       0.0270
     17  CG        17.4260   27.8200   24.8380 C.3    23  LEU23       0.0019
     18  CD1       18.0140   29.1780   25.1660 C.3    23  LEU23       0.0001
     19  CD2       18.2780   27.1000   23.7830 C.3    23  LEU23       0.0001
     20  N         12.3710   27.3640   24.7390 N.3    25  ASP25      -0.1239
     21  CA        12.4780   27.1610   23.3000 C.3    25  ASP25       0.1674
     22  C         11.1540   26.9340   22.5960 C.2    25  ASP25       0.2266
     23  O         10.5840   25.8330   22.6520 O.2    25  ASP25      -0.2867
     24  CB        13.3380   25.9070   23.0450 C.3    25  ASP25       0.1410
     25  CG        13.7430   25.7150   21.6020 C.2    25  ASP25       0.3668
     26  OD1       13.2210   26.4600   20.7450 O.co2  25  ASP25      -0.2456
     27  OD2       14.5750   24.8270   21.3340 O.co2  25  ASP25      -0.2456
     28  N         10.6070   26.6890   19.6180 N.3    27  GLY27      -0.1210
     29  CA        10.7190   25.8250   18.4300 C.3    27  GLY27       0.1956
     30  C         10.8600   24.3630   18.7840 C.2    27  GLY27       0.2612
     31  O         11.0030   23.5270   17.8890 O.2    27  GLY27      -0.2717
     32  N         10.8160   24.0110   20.0680 N.am   28  ALA28      -0.1965
     33  CA        10.9020   22.6150   20.5160 C.3    28  ALA28       0.1728
     34  C          9.5400   22.0910   20.9540 C.2    28  ALA28       0.2616
     35  O          8.8720   22.6620   21.8250 O.2    28  ALA28      -0.2715
     36  CB        11.8930   22.5410   21.6780 C.3    28  ALA28       0.0334
     37  N          9.0660   20.9980   20.3460 N.am   29  ASP29      -0.1957
     38  CA         7.7400   20.5070   20.7220 C.3    29  ASP29       0.1840
     39  C          7.7650   19.9720   22.1550 C.2    29  ASP29       0.2622
     40  O          6.7800   20.0910   22.8840 O.2    29  ASP29      -0.2715
     41  CB         7.3460   19.3540   19.8090 C.3    29  ASP29       0.1450
     42  CG         7.0800   19.7350   18.3620 C.2    29  ASP29       0.3671
     43  OD1        6.7890   20.9100   18.0430 O.co2  29  ASP29      -0.2456
     44  OD2        7.1610   18.7970   17.5150 O.co2  29  ASP29      -0.2456
     45  N          8.8950   19.3670   22.4630 N.am   30  ASP30      -0.1971
     46  CA         9.0620   18.6370   23.7230 C.3    30  ASP30       0.1709
     47  C         10.2630   19.1730   24.4900 C.2    30  ASP30       0.2293
     48  O         11.1270   19.8690   23.9700 O.2    30  ASP30      -0.2864
     49  CB         9.2620   17.1350   23.4650 C.3    30  ASP30       0.1436
     50  CG         8.0920   16.4930   22.7280 C.2    30  ASP30       0.3671
     51  OD1        6.9270   16.8370   23.0220 O.co2  30  ASP30      -0.2456
     52  OD2        8.3250   15.6500   21.8390 O.co2  30  ASP30      -0.2456
     53  N         13.7520   18.5670   26.4520 N.3    32  VAL32      -0.1245
     54  CA        14.8720   17.6440   26.3320 C.3    32  VAL32       0.1561
     55  C         15.9660   18.1130   27.2760 C.2    32  VAL32       0.2260
     56  O         16.4330   19.2550   27.1970 O.2    32  VAL32      -0.2867
     57  CB        15.4530   17.5600   24.9030 C.3    32  VAL32       0.0252
     58  CG1       16.5670   16.5180   24.8280 C.3    32  VAL32       0.0019
     59  CG2       14.3550   17.2170   23.9130 C.3    32  VAL32       0.0019
     60  N         11.8340    6.9960   22.3830 N.3    45  LYS45      -0.1245
     61  CA        11.3120    8.0510   21.5340 C.3    45  LYS45       0.1561
     62  C         12.4010    8.5340   20.5870 C.2    45  LYS45       0.2260
     63  O         13.5750    8.5540   20.9250 O.2    45  LYS45      -0.2867
     64  CB        10.7870    9.2460   22.3510 C.3    45  LYS45       0.0271
     65  CG         9.7320   10.0510   21.5790 C.3    45  LYS45       0.0035
     66  CD         9.3690   11.3270   22.3020 C.3    45  LYS45       0.0206
     67  CE         8.7590   12.3370   21.3450 C.3    45  LYS45       0.1093
     68  NZ         7.5510   11.7650   20.6890 N.3    45  LYS45      -0.1314
     69  N         13.5170   11.8530   18.2530 N.3    47  ILE47      -0.1231
     70  CA        13.2280   13.2630   17.9910 C.3    47  ILE47       0.1692
     71  C         14.1580   13.7720   16.8880 C.2    47  ILE47       0.2593
     72  O         15.2710   13.3050   16.7280 O.2    47  ILE47      -0.2718
     73  CB        13.3580   14.1500   19.2360 C.3    47  ILE47       0.0266
     74  CG1       14.7500   14.1890   19.8450 C.3    47  ILE47       0.0019
     75  CG2       12.2810   13.7090   20.2290 C.3    47  ILE47       0.0020
     76  CD1       14.8730   15.1370   21.0410 C.3    47  ILE47       0.0001
     77  N         13.6340   14.7230   16.1150 N.am   48  GLY48      -0.1942
     78  CA        14.4020   15.2230   14.9750 C.3    48  GLY48       0.2014
     79  C         14.7550   16.6880   15.1610 C.2    48  GLY48       0.2639
     80  O         13.8930   17.5070   15.4680 O.2    48  GLY48      -0.2714
     81  N         16.0430   16.9970   14.9670 N.am   49  GLY49      -0.1939
     82  CA        16.4490   18.3870   15.0860 C.3    49  GLY49       0.2014
     83  C         17.1050   18.8490   13.7880 C.2    49  GLY49       0.2638
     84  O         16.8750   18.2600   12.7280 O.2    49  GLY49      -0.2714
     85  N         17.9410   19.8790   13.8960 N.am   50  ILE50      -0.1977
     86  CA        18.6300   20.4520   12.7460 C.3    50  ILE50       0.1596
     87  C         19.4440   19.4190   12.0000 C.2    50  ILE50       0.2287
     88  O         19.5580   19.4550   10.7620 O.2    50  ILE50      -0.2864
     89  CB        19.5360   21.6210   13.1920 C.3    50  ILE50       0.0276
     90  CG1       19.7870   22.6680   12.1010 C.3    50  ILE50       0.0022
     91  CG2       20.8600   21.1450   13.7820 C.3    50  ILE50       0.0022
     92  CD1       18.5120   23.0900   11.3960 C.3    50  ILE50       0.0001
     93  N         17.4030   11.4120   16.6030 N.3    54  ILE54      -0.1245
     94  CA        18.1180   10.6620   17.6130 C.3    54  ILE54       0.1561
     95  C         17.1460    9.9860   18.5980 C.2    54  ILE54       0.2260
     96  O         15.9900   10.4120   18.6760 O.2    54  ILE54      -0.2867
     97  CB        19.0600   11.5070   18.4730 C.3    54  ILE54       0.0252
     98  CG1       18.3470   12.5890   19.2960 C.3    54  ILE54       0.0019
     99  CG2       20.1300   12.1270   17.5710 C.3    54  ILE54       0.0019
    100  CD1       19.2210   13.2520   20.3410 C.3    54  ILE54       0.0001
    101  N         21.5770   13.0550   24.8280 N.3    79  PRO79      -0.2102
    102  CA        22.8560   13.7580   24.8060 C.3    79  PRO79       0.1504
    103  C         22.7400   15.0860   24.0690 C.2    79  PRO79       0.2576
    104  O         22.6720   15.1040   22.8440 O.2    79  PRO79      -0.2718
    105  CB        23.7570   12.7980   24.0300 C.3    79  PRO79       0.0282
    106  CG        22.8230   12.0900   23.1030 C.3    79  PRO79       0.0208
    107  CD        21.4800   12.0200   23.7920 C.3    79  PRO79       0.0893
    108  N         22.7150   16.1590   24.8390 N.am   80  THR80      -0.1940
    109  CA        22.5730   17.5290   24.3560 C.3    80  THR80       0.2013
    110  C         23.4870   18.4020   25.2030 C.2    80  THR80       0.2484
    111  O         23.8110   18.0280   26.3350 O.2    80  THR80      -0.2729
    112  CB        21.1030   17.9690   24.4050 C.3    80  THR80       0.1807
    113  OG1       21.0080   19.3790   24.1500 O.3    80  THR80      -0.2208
    114  CG2       20.5040   17.7920   25.8030 C.3    80  THR80       0.0379
    115  N         24.0100   19.5270   24.7250 N.am   81  PRO81      -0.2715
    116  CA        24.7780   20.4890   25.5060 C.3    81  PRO81       0.1536
    117  C         23.9240   21.4620   26.3040 C.2    81  PRO81       0.2598
    118  O         24.4310   22.1710   27.1830 O.2    81  PRO81      -0.2715
    119  CB        25.4920   21.3260   24.4300 C.3    81  PRO81       0.0310
    120  CG        24.4740   21.3520   23.3370 C.3    81  PRO81       0.0237
    121  CD        23.9770   19.9290   23.3300 C.3    81  PRO81       0.0939
    122  N         22.6440   21.4530   25.9210 N.am   82  VAL82      -0.1978
    123  CA        21.7420   22.3920   26.5630 C.3    82  VAL82       0.1596
    124  C         20.4830   21.6640   27.0020 C.2    82  VAL82       0.2287
    125  O         20.0340   20.7490   26.3180 O.2    82  VAL82      -0.2864
    126  CB        21.3800   23.5460   25.6000 C.3    82  VAL82       0.0276
    127  CG1       22.6390   24.3100   25.2450 C.3    82  VAL82       0.0022
    128  CG2       20.6530   22.9800   24.3830 C.3    82  VAL82       0.0022
    129  N         16.6510   22.0030   27.1840 N.3    84  ILE84      -0.1245
    130  CA        15.6630   22.6940   26.3860 C.3    84  ILE84       0.1561
    131  C         14.2630   22.5310   26.9510 C.2    84  ILE84       0.2260
    132  O         13.7750   21.4040   27.1380 O.2    84  ILE84      -0.2867
    133  CB        15.7150   22.1110   24.9460 C.3    84  ILE84       0.0252
    134  CG1       17.0420   22.3990   24.2340 C.3    84  ILE84       0.0019
    135  CG2       14.5220   22.6110   24.1400 C.3    84  ILE84       0.0019
    136  CD1       17.3270   21.3600   23.1510 C.3    84  ILE84       0.0001
@<TRIPOS>BOND
     1    88    87    2
     2    92    90    1
     3    87    86    1
     4    90    89    1
     5    84    83    2
     6    86    89    1
     7    86    85    1
     8    89    91    1
     9    83    85   am
    10    83    82    1
    11    81    82    1
    12    81    79   am
    13    78    79    1
    14    78    77    1
    15    79    80    2
    16    77    71   am
    17    93    94    1
    18    72    71    2
    19    71    70    1
    20    44    42   ar
    21    99    97    1
    22    94    97    1
    23    94    95    1
    24    31    30    2
    25    70    69    1
    26    70    73    1
    27    43    42   ar
    28    42    41    1
    29    29    30    1
    30    29    28    1
    31    97    98    1
    32    95    96    2
    33    30    32   am
    34    73    74    1
    35    73    75    1
    36    98   100    1
    37    41    38    1
    38    74    76    1
    39    32    33    1
    40    37    38    1
    41    37    34   am
    42    33    34    1
    43    33    36    1
    44    62    63    2
    45    62    61    1
    46    68    67    1
    47    38    39    1
    48    26    25   ar
    49    34    35    2
    50    27    25   ar
    51    67    66    1
    52    11     9    1
    53    61    64    1
    54    61    60    1
    55    65    66    1
    56    65    64    1
    57    25    24    1
    58    52    50   ar
    59    39    45   am
    60    39    40    2
    61    45    46    1
    62    22    23    2
    63    22    21    1
    64     9     8    2
    65     9    10    1
    66    50    51   ar
    67    50    49    1
    68     8     7    1
    69   104   103    2
    70    24    21    1
    71   106   107    1
    72   106   105    1
    73   136   134    1
    74    21    20    1
    75   121   120    1
    76   121   115    1
    77   120   119    1
    78    49    46    1
    79    46    47    1
    80     6     7    1
    81     6     5    1
    82    19    17    1
    83   107   101    1
    84    59    57    1
    85    48    47    2
    86   105   102    1
    87   103   102    1
    88   103   108   am
    89   135   133    1
    90   113   112    1
    91   134   133    1
    92   109   112    1
    93   109   108    1
    94   109   110    1
    95   128   126    1
    96   112   114    1
    97   119   116    1
    98   115   110   am
    99   115   116    1
   100     1     2    1
   101   102   101    1
   102    58    57    1
   103    17    18    1
   104    17    16    1
   105     2     5    1
   106     2     3    1
   107    57    54    1
   108   133   130    1
   109   110   111    2
   110   127   126    1
   111   116   117    1
   112   126   123    1
   113   122   117   am
   114   122   123    1
   115     3     4    2
   116    16    13    1
   117   117   118    2
   118   125   124    2
   119    54    53    1
   120    54    55    1
   121   130   131    1
   122   130   129    1
   123   123   124    1
   124    15    14    2
   125   131   132    2
   126    14    13    1
   127    56    55    2
   128    13    12    1
