@<TRIPOS>MOLECULE
tmp/4zlyA00.pdb
 118 110 0 0 0
SMALL
GASTEIGER

@<TRIPOS>ATOM
      1  N         25.2920    1.3860   -1.0470 N.3    20  LEU20      -0.1231
      2  CA        24.6670    2.6270   -1.5040 C.3    20  LEU20       0.1693
      3  C         25.4940    3.8770   -1.2280 C.2    20  LEU20       0.2593
      4  O         25.5280    4.8120   -2.0380 O.2    20  LEU20      -0.2718
      5  CB        23.2750    2.7680   -0.8960 C.3    20  LEU20       0.0284
      6  CG        22.2790    1.7070   -1.3490 C.3    20  LEU20       0.0019
      7  CD1       20.9680    1.9100   -0.6250 C.3    20  LEU20       0.0001
      8  CD2       22.0980    1.8010   -2.8570 C.3    20  LEU20       0.0001
      9  N         26.1640    3.8870   -0.0860 N.am   21  GLY21      -0.1942
     10  CA        26.9860    5.0230    0.3020 C.3    21  GLY21       0.2014
     11  C         27.2970    4.9680    1.7750 C.2    21  GLY21       0.2640
     12  O         27.0620    3.9620    2.4330 O.2    21  GLY21      -0.2714
     13  N         27.8350    6.0620    2.2920 N.am   22  THR22      -0.1936
     14  CA        28.1960    6.1460    3.6920 C.3    22  THR22       0.2028
     15  C         27.6250    7.4560    4.2350 C.2    22  THR22       0.2642
     16  O         27.3420    8.3800    3.4680 O.2    22  THR22      -0.2714
     17  CB        29.7250    6.0380    3.9100 C.3    22  THR22       0.1808
     18  OG1       30.0150    6.0310    5.3140 O.3    22  THR22      -0.2208
     19  CG2       30.4680    7.1900    3.2410 C.3    22  THR22       0.0379
     20  N         27.4010    7.4990    5.5440 N.am   23  GLY23      -0.1954
     21  CA        26.9560    8.7020    6.2250 C.3    23  GLY23       0.1869
     22  C         27.6470    8.7760    7.5650 C.2    23  GLY23       0.2309
     23  O         28.6170    8.0540    7.8180 O.2    23  GLY23      -0.2863
     24  N         25.6800    2.3620    4.2240 N.3    28  VAL28      -0.1245
     25  CA        24.2800    2.0270    3.9370 C.3    28  VAL28       0.1561
     26  C         24.2300    1.0600    2.7610 C.2    28  VAL28       0.2260
     27  O         24.8970    1.2820    1.7540 O.2    28  VAL28      -0.2867
     28  CB        23.4260    3.2640    3.6110 C.3    28  VAL28       0.0252
     29  CG1       21.9750    2.8480    3.3800 C.3    28  VAL28       0.0019
     30  CG2       23.5140    4.2960    4.7320 C.3    28  VAL28       0.0019
     31  N         16.6020   -0.3180    2.5380 N.3    40  ALA40      -0.1245
     32  CA        17.9340    0.1940    2.7830 C.3    40  ALA40       0.1562
     33  C         18.3390   -0.2730    4.1810 C.2    40  ALA40       0.2260
     34  O         17.5080   -0.3140    5.0870 O.2    40  ALA40      -0.2867
     35  CB        17.9540    1.7050    2.7060 C.3    40  ALA40       0.0290
     36  N         20.9530    0.4420    7.1350 N.3    42  LYS42      -0.1245
     37  CA        21.9390    1.3740    7.6850 C.3    42  LYS42       0.1561
     38  C         22.7060    0.6300    8.7670 C.2    42  LYS42       0.2260
     39  O         22.1300    0.2680    9.7850 O.2    42  LYS42      -0.2867
     40  CB        21.2460    2.6020    8.2860 C.3    42  LYS42       0.0271
     41  CG        20.4270    3.4280    7.2910 C.3    42  LYS42       0.0035
     42  CD        19.4220    4.3590    7.9700 C.3    42  LYS42       0.0206
     43  CE        20.0650    5.4440    8.8280 C.3    42  LYS42       0.1093
     44  NZ        20.6850    6.5350    8.0240 N.3    42  LYS42      -0.1314
     45  N         10.7300    9.2680    4.5680 N.3    70  VAL70      -0.1245
     46  CA        11.3650    7.9520    4.3930 C.3    70  VAL70       0.1561
     47  C         10.9660    7.0340    5.5670 C.2    70  VAL70       0.2260
     48  O         11.2730    7.3440    6.7360 O.2    70  VAL70      -0.2867
     49  CB        12.9050    8.0730    4.3020 C.3    70  VAL70       0.0252
     50  CG1       13.5140    6.6870    4.1980 C.3    70  VAL70       0.0019
     51  CG2       13.3110    8.9020    3.0860 C.3    70  VAL70       0.0019
     52  N         15.1650    0.8220    6.4970 N.3    86  THR86      -0.1203
     53  CA        14.2810    1.8880    6.0330 C.3    86  THR86       0.1994
     54  C         13.8340    1.6730    4.5940 C.2    86  THR86       0.2618
     55  O         14.3170    0.7960    3.8620 O.2    86  THR86      -0.2717
     56  CB        14.9470    3.2990    6.1050 C.3    86  THR86       0.1784
     57  OG1       15.9120    3.4300    5.0490 O.3    86  THR86      -0.2211
     58  CG2       15.6390    3.5440    7.4420 C.3    86  THR86       0.0376
     59  N         12.8720    2.4950    4.1990 N.am   87  GLU87      -0.1965
     60  CA        12.4480    2.6060    2.8090 C.3    87  GLU87       0.1733
     61  C         13.6390    2.8310    1.8830 C.2    87  GLU87       0.2616
     62  O         14.5360    3.6090    2.2070 O.2    87  GLU87      -0.2715
     63  CB        11.5030    3.7860    2.7060 C.3    87  GLU87       0.0429
     64  CG        10.9840    4.0520    1.3100 C.3    87  GLU87       0.1163
     65  CD         9.8660    5.0820    1.3070 C.2    87  GLU87       0.3649
     66  OE1        9.4800    5.5680    2.3970 O.co2  87  GLU87      -0.2457
     67  OE2        9.3680    5.3820    0.2150 O.co2  87  GLU87      -0.2457
     68  N         13.6490    2.1380    0.7460 N.am   88  TYR88      -0.1960
     69  CA        14.7220    2.2300   -0.2330 C.3    88  TYR88       0.1771
     70  C         14.4420    3.3930   -1.1830 C.2    88  TYR88       0.2619
     71  O         13.3530    3.5070   -1.7400 O.2    88  TYR88      -0.2715
     72  CB        14.8080    0.9210   -1.0340 C.3    88  TYR88       0.0574
     73  CG        15.8010    0.9590   -2.1690 C.ar   88  TYR88      -0.0198
     74  CD1       17.1370    1.3370   -1.9470 C.ar   88  TYR88      -0.0009
     75  CD2       15.4270    0.5780   -3.4470 C.ar   88  TYR88      -0.0009
     76  CE1       18.0540    1.3660   -2.9850 C.ar   88  TYR88       0.0417
     77  CE2       16.3420    0.6030   -4.4920 C.ar   88  TYR88       0.0417
     78  CZ        17.6470    0.9960   -4.2500 C.ar   88  TYR88       0.1957
     79  OH        18.5630    1.0210   -5.2780 O.3    88  TYR88      -0.2866
     80  N         15.4510    4.2390   -1.3750 N.am   89  MET89      -0.1963
     81  CA        15.3440    5.4060   -2.2240 C.3    89  MET89       0.1736
     82  C         16.4210    5.3280   -3.3100 C.2    89  MET89       0.2616
     83  O         17.5850    5.6760   -3.0900 O.2    89  MET89      -0.2715
     84  CB        15.5220    6.6600   -1.3540 C.3    89  MET89       0.0427
     85  CG        14.5150    6.7320   -0.2070 C.3    89  MET89       0.0599
     86  SD        12.8370    7.1190   -0.7680 S.3    89  MET89      -0.1393
     87  CE        13.0570    8.8580   -1.2060 C.3    89  MET89       0.0692
     88  N         16.0310    4.8420   -4.4880 N.am   90  ALA90      -0.1977
     89  CA        17.0070    4.4090   -5.4840 C.3    90  ALA90       0.1597
     90  C         17.9310    5.4980   -6.0160 C.2    90  ALA90       0.2287
     91  O         19.0530    5.2010   -6.4630 O.2    90  ALA90      -0.2864
     92  CB        16.2900    3.6990   -6.6350 C.3    90  ALA90       0.0319
     93  N         19.1780    8.0270   -4.2890 N.3    92  GLY92      -0.1210
     94  CA        20.1320    8.4750   -3.2620 C.3    92  GLY92       0.1956
     95  C         19.9050    9.8680   -2.6990 C.2    92  GLY92       0.2612
     96  O         18.7880   10.3780   -2.6780 O.2    92  GLY92      -0.2717
     97  N         20.9870   10.4880   -2.2550 N.am   93  CYS93      -0.1970
     98  CA        20.8780   11.7230   -1.4930 C.3    93  CYS93       0.1712
     99  C         20.5300   12.9250   -2.3720 C.2    93  CYS93       0.2296
    100  O         21.0680   13.0660   -3.4670 O.2    93  CYS93      -0.2864
    101  CB        22.0640   11.9510   -0.5570 C.3    93  CYS93       0.0983
    102  SG        23.4560   12.8060   -1.2870 S.3    93  CYS93      -0.0798
    103  N         23.5120   15.2560   -3.6910 N.3    96  ASN96      -0.1240
    104  CA        24.2200   14.7260   -4.8630 C.3    96  ASN96       0.1653
    105  C         23.3910   14.8160   -6.1390 C.2    96  ASN96       0.2266
    106  O         23.9140   15.1400   -7.2090 O.2    96  ASN96      -0.2867
    107  CB        24.6670   13.2820   -4.6060 C.3    96  ASN96       0.1155
    108  CG        25.8080   13.1950   -3.6150 C.2    96  ASN96       0.2627
    109  OD1       26.3650   14.2120   -3.1940 O.2    96  ASN96      -0.2716
    110  ND2       26.1810   11.9700   -3.2500 N.am   96  ASN96      -0.0877
    111  N         16.2970   12.3180    0.5580 N.3   140  LEU140     -0.1245
    112  CA        16.5910   11.2420   -0.3860 C.3   140  LEU140      0.1561
    113  C         15.6320   11.3130   -1.5530 C.2   140  LEU140      0.2260
    114  O         14.5970   11.9640   -1.4620 O.2   140  LEU140     -0.2867
    115  CB        16.4570    9.8730    0.3050 C.3   140  LEU140      0.0270
    116  CG        17.5040    9.6110    1.3920 C.3   140  LEU140      0.0019
    117  CD1       17.1630    8.3540    2.1870 C.3   140  LEU140      0.0001
    118  CD2       18.8940    9.5110    0.7700 C.3   140  LEU140      0.0001
@<TRIPOS>BOND
     1   106   105    2
     2    92    89    1
     3    91    90    2
     4   105   104    1
     5    90    89    1
     6    89    88    1
     7    79    78    1
     8   104   107    1
     9   104   103    1
    10   107   108    1
    11    77    78   ar
    12    77    75   ar
    13    88    82   am
    14    93    94    1
    15    78    76   ar
    16   108   110   am
    17   108   109    2
    18   100    99    2
    19    75    73   ar
    20    82    83    2
    21    82    81    1
    22    94    95    1
    23    76    74   ar
    24     8     6    1
    25    95    96    2
    26    95    97   am
    27    99    98    1
    28    97    98    1
    29    81    80    1
    30    81    84    1
    31    73    74   ar
    32    73    72    1
    33     4     3    2
    34    71    70    2
    35   113   114    2
    36   113   112    1
    37     2     3    1
    38     2     1    1
    39     2     5    1
    40    98   101    1
    41    80    70   am
    42    84    85    1
    43     6     5    1
    44     6     7    1
    45   102   101    1
    46     3     9   am
    47    87    86    1
    48    70    69    1
    49    72    69    1
    50    86    85    1
    51   112   115    1
    52   112   111    1
    53    69    68    1
    54     9    10    1
    55    67    65   ar
    56    10    11    1
    57   115   116    1
    58    68    61   am
    59   118   116    1
    60    65    64    1
    61    65    66   ar
    62    64    63    1
    63   116   117    1
    64    27    26    2
    65    11    13   am
    66    11    12    2
    67    61    62    2
    68    61    60    1
    69    13    14    1
    70    31    32    1
    71    35    32    1
    72    63    60    1
    73    26    25    1
    74    32    33    1
    75    60    59    1
    76    51    49    1
    77    19    17    1
    78    29    28    1
    79    16    15    2
    80    28    25    1
    81    28    30    1
    82    14    17    1
    83    14    15    1
    84    55    54    2
    85    17    18    1
    86    25    24    1
    87    33    34    2
    88    50    49    1
    89    59    54   am
    90    15    20   am
    91    49    46    1
    92    46    45    1
    93    46    47    1
    94    54    53    1
    95    57    56    1
    96    20    21    1
    97    47    48    2
    98    53    56    1
    99    53    52    1
   100    56    58    1
   101    21    22    1
   102    36    37    1
   103    41    42    1
   104    41    40    1
   105    22    23    2
   106    37    40    1
   107    37    38    1
   108    42    43    1
   109    44    43    1
   110    38    39    2
