@<TRIPOS>MOLECULE
tmp/4zlzA00.pdb
 158 147 0 0 0
SMALL
GASTEIGER

@<TRIPOS>ATOM
      1  N        -24.6850    1.8100    0.6990 N.3    20  LEU20      -0.1231
      2  CA       -23.9380    2.9860    1.1750 C.3    20  LEU20       0.1693
      3  C        -24.6390    4.2930    0.8860 C.2    20  LEU20       0.2593
      4  O        -24.4560    5.2770    1.6110 O.2    20  LEU20      -0.2718
      5  CB       -22.5320    3.0370    0.5660 C.3    20  LEU20       0.0284
      6  CG       -21.5790    1.9470    1.0770 C.3    20  LEU20       0.0019
      7  CD1      -20.2580    1.9970    0.3180 C.3    20  LEU20       0.0001
      8  CD2      -21.3320    2.1320    2.5750 C.3    20  LEU20       0.0001
      9  N        -25.4300    4.3190   -0.1820 N.am   21  GLY21      -0.1942
     10  CA       -26.0950    5.5530   -0.5930 C.3    21  GLY21       0.2014
     11  C        -26.4380    5.5020   -2.0690 C.2    21  GLY21       0.2640
     12  O        -26.4570    4.4270   -2.6820 O.2    21  GLY21      -0.2714
     13  N        -26.6920    6.6760   -2.6370 N.am   22  THR22      -0.1936
     14  CA       -27.2260    6.7850   -3.9800 C.3    22  THR22       0.2028
     15  C        -26.8960    8.1470   -4.5750 C.2    22  THR22       0.2643
     16  O        -26.4290    9.0430   -3.8730 O.2    22  THR22      -0.2714
     17  CB       -28.7600    6.5560   -4.0080 C.3    22  THR22       0.1808
     18  OG1      -29.1950    6.4450   -5.3660 O.3    22  THR22      -0.2208
     19  CG2      -29.5060    7.7270   -3.3350 C.3    22  THR22       0.0379
     20  N        -27.1440    8.2790   -5.8750 N.am   23  GLY23      -0.1939
     21  CA       -26.8720    9.5040   -6.6020 C.3    23  GLY23       0.2014
     22  C        -27.2830    9.3280   -8.0420 C.2    23  GLY23       0.2639
     23  O        -28.1690    8.5140   -8.3560 O.2    23  GLY23      -0.2714
     24  N        -26.6240   10.0620   -8.9330 N.am   24  GLN24      -0.1963
     25  CA       -27.1130   10.1410  -10.3020 C.3    24  GLN24       0.1733
     26  C        -27.0380    8.8510  -11.1180 C.2    24  GLN24       0.2616
     27  O        -27.7850    8.7270  -12.0720 O.2    24  GLN24      -0.2715
     28  CB       -26.5110   11.3070  -11.0590 C.3    24  GLN24       0.0408
     29  CG       -25.0760   11.1130  -11.4830 C.3    24  GLN24       0.0908
     30  CD       -24.5040   12.3920  -12.0600 C.2    24  GLN24       0.2608
     31  OE1      -25.2450   13.3320  -12.3720 O.2    24  GLN24      -0.2717
     32  NE2      -23.1810   12.4360  -12.2080 N.am   24  GLN24      -0.0878
     33  N        -26.1650    7.9100  -10.7460 N.am   25  PHE25      -0.1960
     34  CA       -26.1140    6.5920  -11.4070 C.3    25  PHE25       0.1771
     35  C        -26.7670    5.4720  -10.5790 C.2    25  PHE25       0.2620
     36  O        -26.6350    4.2740  -10.8910 O.2    25  PHE25      -0.2715
     37  CB       -24.6740    6.2260  -11.7820 C.3    25  PHE25       0.0574
     38  CG       -24.0120    7.2050  -12.7320 C.ar   25  PHE25      -0.0200
     39  CD1      -24.4580    7.3470  -14.0500 C.ar   25  PHE25      -0.0042
     40  CD2      -22.9370    7.9770  -12.3130 C.ar   25  PHE25      -0.0042
     41  CE1      -23.8450    8.2400  -14.9150 C.ar   25  PHE25      -0.0003
     42  CE2      -22.3060    8.8600  -13.1860 C.ar   25  PHE25      -0.0003
     43  CZ       -22.7580    8.9920  -14.4850 C.ar   25  PHE25      -0.0000
     44  N        -27.4840    5.8720   -9.5330 N.am   26  GLY26      -0.1954
     45  CA       -28.2480    4.9610   -8.6990 C.3    26  GLY26       0.1869
     46  C        -27.4710    4.5450   -7.4710 C.2    26  GLY26       0.2309
     47  O        -26.7290    5.3470   -6.9010 O.2    26  GLY26      -0.2863
     48  N        -25.0720    2.6480   -4.5640 N.3    28  VAL28      -0.1245
     49  CA       -23.6770    2.3020   -4.2560 C.3    28  VAL28       0.1561
     50  C        -23.7110    1.4040   -3.0230 C.2    28  VAL28       0.2260
     51  O        -24.3500    1.7340   -2.0240 O.2    28  VAL28      -0.2867
     52  CB       -22.8190    3.5580   -3.9610 C.3    28  VAL28       0.0252
     53  CG1      -21.3910    3.1750   -3.5760 C.3    28  VAL28       0.0019
     54  CG2      -22.7910    4.4930   -5.1620 C.3    28  VAL28       0.0019
     55  N        -16.2840   -0.2830   -2.5800 N.3    40  ALA40      -0.1245
     56  CA       -17.5790    0.3000   -2.9180 C.3    40  ALA40       0.1562
     57  C        -17.9520   -0.1930   -4.3140 C.2    40  ALA40       0.2260
     58  O        -17.1080   -0.2780   -5.1880 O.2    40  ALA40      -0.2867
     59  CB       -17.5000    1.8190   -2.9220 C.3    40  ALA40       0.0290
     60  N        -20.4490    0.6600   -7.2970 N.3    42  LYS42      -0.1245
     61  CA       -21.4220    1.5470   -7.9240 C.3    42  LYS42       0.1561
     62  C        -22.1900    0.7190   -8.9350 C.2    42  LYS42       0.2260
     63  O        -21.6280    0.3120   -9.9480 O.2    42  LYS42      -0.2867
     64  CB       -20.7390    2.7340   -8.6020 C.3    42  LYS42       0.0271
     65  CG       -19.8750    3.5700   -7.6600 C.3    42  LYS42       0.0035
     66  CD       -18.9060    4.4760   -8.4170 C.3    42  LYS42       0.0206
     67  CE       -19.6060    5.6820   -9.0480 C.3    42  LYS42       0.1093
     68  NZ       -20.4840    6.4610   -8.1220 N.3    42  LYS42      -0.1314
     69  N        -10.2230    9.1880   -4.6010 N.3    70  VAL70      -0.1245
     70  CA       -10.8370    7.8560   -4.4780 C.3    70  VAL70       0.1561
     71  C        -10.3130    6.9340   -5.5960 C.2    70  VAL70       0.2260
     72  O        -10.3990    7.2630   -6.7810 O.2    70  VAL70      -0.2867
     73  CB       -12.3890    7.9280   -4.4770 C.3    70  VAL70       0.0252
     74  CG1      -12.9970    6.5170   -4.5240 C.3    70  VAL70       0.0019
     75  CG2      -12.8770    8.6620   -3.2340 C.3    70  VAL70       0.0019
     76  N        -14.7280    0.8610   -6.5850 N.3    86  THR86      -0.1203
     77  CA       -13.8340    1.8910   -6.0440 C.3    86  THR86       0.1994
     78  C        -13.4060    1.6460   -4.5900 C.2    86  THR86       0.2617
     79  O        -13.9000    0.7420   -3.9150 O.2    86  THR86      -0.2717
     80  CB       -14.4520    3.3200   -6.1240 C.3    86  THR86       0.1784
     81  OG1      -15.5150    3.4450   -5.1660 O.3    86  THR86      -0.2211
     82  CG2      -14.9770    3.6220   -7.5210 C.3    86  THR86       0.0376
     83  N        -12.4620    2.4700   -4.1340 N.am   87  GLU87      -0.1979
     84  CA       -12.0760    2.5380   -2.7380 C.3    87  GLU87       0.1602
     85  C        -13.3170    2.7610   -1.8550 C.2    87  GLU87       0.2287
     86  O        -14.1610    3.6150   -2.1600 O.2    87  GLU87      -0.2864
     87  CB       -11.0460    3.6710   -2.5760 C.3    87  GLU87       0.0415
     88  CG       -10.6570    4.0660   -1.1620 C.3    87  GLU87       0.1163
     89  CD        -9.5130    5.0850   -1.1610 C.2    87  GLU87       0.3649
     90  OE1       -9.1490    5.5870   -2.2560 O.co2  87  GLU87      -0.2457
     91  OE2       -8.9570    5.3650   -0.0790 O.co2  87  GLU87      -0.2457
     92  N        -15.2260    4.1170    1.3310 N.3    89  MET89      -0.1245
     93  CA       -15.1240    5.2810    2.2130 C.3    89  MET89       0.1570
     94  C        -16.2160    5.1940    3.2700 C.2    89  MET89       0.2261
     95  O        -17.3620    5.5760    3.0110 O.2    89  MET89      -0.2867
     96  CB       -15.2340    6.5920    1.4240 C.3    89  MET89       0.0387
     97  CG       -14.2860    6.6990    0.2480 C.3    89  MET89       0.0595
     98  SD       -12.5850    6.9740    0.7920 S.3    89  MET89      -0.1393
     99  CE       -12.7390    8.6980    1.2850 C.3    89  MET89       0.0692
    100  N        -18.8560    8.0000    4.2760 N.3    92  GLY92      -0.1210
    101  CA       -19.8120    8.4130    3.2650 C.3    92  GLY92       0.1956
    102  C        -19.5050    9.7920    2.7140 C.2    92  GLY92       0.2612
    103  O        -18.3630   10.2760    2.7800 O.2    92  GLY92      -0.2717
    104  N        -20.5440   10.4280    2.1990 N.am   93  CYS93      -0.1970
    105  CA       -20.3930   11.6470    1.4120 C.3    93  CYS93       0.1712
    106  C        -20.1630   12.8550    2.3100 C.2    93  CYS93       0.2296
    107  O        -20.7050   12.9370    3.4080 O.2    93  CYS93      -0.2864
    108  CB       -21.6390   11.7820    0.5300 C.3    93  CYS93       0.0983
    109  SG       -22.1800   13.4280    0.0590 S.3    93  CYS93      -0.0798
    110  N        -23.2220   15.1050    3.6680 N.3    96  ASN96      -0.1240
    111  CA       -23.9460   14.5650    4.8300 C.3    96  ASN96       0.1653
    112  C        -23.1320   14.6350    6.1250 C.2    96  ASN96       0.2266
    113  O        -23.6690   14.8670    7.2040 O.2    96  ASN96      -0.2867
    114  CB       -24.3940   13.1200    4.5720 C.3    96  ASN96       0.1155
    115  CG       -25.6250   13.0370    3.6900 C.2    96  ASN96       0.2627
    116  OD1      -26.1780   14.0520    3.2630 O.2    96  ASN96      -0.2716
    117  ND2      -26.0630   11.8180    3.4200 N.am   96  ASN96      -0.0877
    118  N        -20.9710   16.9460   -2.5920 N.3   137  ARG137     -0.1231
    119  CA       -21.6710   15.6900   -2.8800 C.3   137  ARG137      0.1694
    120  C        -20.7370   14.6950   -3.5570 C.2   137  ARG137      0.2592
    121  O        -20.9670   13.4800   -3.5080 O.2   137  ARG137     -0.2718
    122  CB       -22.9260   15.9200   -3.7310 C.3   137  ARG137      0.0321
    123  CG       -22.6620   16.6590   -5.0200 C.3   137  ARG137      0.0489
    124  CD       -23.9030   16.8260   -5.8830 C.3   137  ARG137      0.2205
    125  NE       -23.5150   17.6290   -7.0340 N.pl3 137  ARG137     -0.0865
    126  CZ       -23.5130   18.9610   -7.0350 C.cat 137  ARG137      0.5346
    127  NH1      -23.9250   19.6370   -5.9670 N.pl3 137  ARG137      0.1354
    128  NH2      -23.1180   19.6090   -8.1040 N.pl3 137  ARG137      0.1354
    129  N        -19.6780   15.2150   -4.1790 N.am  138  ASN138     -0.1974
    130  CA       -18.6980   14.3860   -4.8570 C.3   138  ASN138      0.1688
    131  C        -17.3770   14.2320   -4.1130 C.2   138  ASN138      0.2292
    132  O        -16.3250   14.0120   -4.7190 O.2   138  ASN138     -0.2864
    133  CB       -18.4770   14.8820   -6.2970 C.3   138  ASN138      0.1181
    134  CG       -19.6180   14.4960   -7.2080 C.2   138  ASN138      0.2629
    135  OD1      -20.1300   13.3720   -7.1170 O.2   138  ASN138     -0.2716
    136  ND2      -20.0430   15.4230   -8.0810 N.am  138  ASN138     -0.0877
    137  N        -15.8310   12.3020   -0.4520 N.3   140  LEU140     -0.1245
    138  CA       -16.1200   11.2060    0.4450 C.3   140  LEU140      0.1561
    139  C        -15.2220   11.2850    1.6580 C.2   140  LEU140      0.2260
    140  O        -14.1730   11.9240    1.6130 O.2   140  LEU140     -0.2867
    141  CB       -15.9820    9.8520   -0.2840 C.3   140  LEU140      0.0270
    142  CG       -17.0760    9.5600   -1.3220 C.3   140  LEU140      0.0019
    143  CD1      -16.7410    8.3800   -2.2240 C.3   140  LEU140      0.0001
    144  CD2      -18.4270    9.3630   -0.6530 C.3   140  LEU140      0.0001
    145  N        -14.1810   12.1860   -5.3460 N.3   150  SER150     -0.1202
    146  CA       -14.7360   11.0120   -6.0190 C.3   150  SER150      0.2020
    147  C        -15.4390   11.3710   -7.3290 C.2   150  SER150      0.2618
    148  O        -15.6700   12.5560   -7.6140 O.2   150  SER150     -0.2717
    149  CB       -15.7030   10.2860   -5.0860 C.3   150  SER150      0.2103
    150  OG       -16.9910   10.8650   -5.1210 O.3   150  SER150     -0.2182
    151  N        -15.7940   10.3420   -8.1090 N.am  151  ASP151     -0.1973
    152  CA       -16.6020   10.5210   -9.3300 C.3   151  ASP151      0.1709
    153  C        -16.0320   11.5700  -10.2970 C.2   151  ASP151      0.2293
    154  O        -16.7810   12.2180  -11.0300 O.2   151  ASP151     -0.2864
    155  CB       -18.0550   10.8820   -8.9760 C.3   151  ASP151      0.1436
    156  CG       -18.7730    9.7780   -8.2210 C.2   151  ASP151      0.3671
    157  OD1      -18.3820    9.4730   -7.0710 O.co2 151  ASP151     -0.2456
    158  OD2      -19.7660    9.2350   -8.7590 O.co2 151  ASP151     -0.2456
@<TRIPOS>BOND
     1    41    43   ar
     2    41    39   ar
     3    43    42   ar
     4    39    38   ar
     5    42    40   ar
     6    38    40   ar
     7    38    37    1
     8    31    30    2
     9    32    30   am
    10    27    26    2
    11    30    29    1
    12    37    34    1
    13    29    28    1
    14    34    33    1
    15    34    35    1
    16    26    33   am
    17    26    25    1
    18    28    25    1
    19   154   153    2
    20    36    35    2
    21    35    44   am
    22    25    24    1
    23   153   152    1
    24    63    62    2
    25    44    45    1
    26   152   155    1
    27   152   151    1
    28    67    66    1
    29    67    68    1
    30   155   156    1
    31    62    61    1
    32    24    22   am
    33   158   156   ar
    34    45    46    1
    35    64    61    1
    36    64    65    1
    37    66    65    1
    38    23    22    2
    39   156   157   ar
    40   151   147   am
    41   128   126    1
    42   136   134   am
    43    22    21    1
    44    61    60    1
    45   148   147    2
    46    82    80    1
    47    46    47    2
    48   147   146    1
    49   134   135    2
    50   134   133    1
    51   126   125    2
    52   126   127    1
    53   125   124    1
    54    72    71    2
    55    21    20    1
    56    76    77    1
    57   133   130    1
    58    80    77    1
    59    80    81    1
    60    77    78    1
    61   146   145    1
    62   146   149    1
    63   124   123    1
    64    20    15   am
    65    71    70    1
    66    18    17    1
    67    58    57    2
    68    54    52    1
    69   150   149    1
    70   123   122    1
    71   130   129    1
    72   130   131    1
    73   132   131    2
    74    69    70    1
    75    78    83   am
    76    78    79    2
    77    15    14    1
    78    15    16    2
    79    48    49    1
    80    74    73    1
    81    70    73    1
    82    73    75    1
    83    57    56    1
    84    49    52    1
    85    49    50    1
    86   129   120   am
    87    83    84    1
    88    17    14    1
    89    17    19    1
    90    14    13    1
    91    52    53    1
    92   122   119    1
    93   120   121    2
    94   120   119    1
    95    50    51    2
    96    59    56    1
    97    56    55    1
    98   119   118    1
    99    84    87    1
   100    84    85    1
   101    12    11    2
   102    13    11   am
   103    87    88    1
   104    90    89   ar
   105   143   142    1
   106    86    85    2
   107    11    10    1
   108   142   144    1
   109   142   141    1
   110    88    89    1
   111    89    91   ar
   112    10     9    1
   113   137   138    1
   114   141   138    1
   115     9     3   am
   116   109   108    1
   117    97    98    1
   118    97    96    1
   119     7     6    1
   120   138   139    1
   121   108   105    1
   122     5     6    1
   123     5     2    1
   124     1     2    1
   125    98    99    1
   126     3     2    1
   127     3     4    2
   128     6     8    1
   129    92    93    1
   130   105   104    1
   131   105   106    1
   132    96    93    1
   133   140   139    2
   134   104   102   am
   135    93    94    1
   136   106   107    2
   137   102   103    2
   138   102   101    1
   139    95    94    2
   140   116   115    2
   141   101   100    1
   142   117   115   am
   143   110   111    1
   144   115   114    1
   145   114   111    1
   146   111   112    1
   147   112   113    2
