@<TRIPOS>MOLECULE
tmp/4zm3D03.pdb
 112 106 0 0 0
SMALL
GASTEIGER

@<TRIPOS>ATOM
      1  N         21.1420    6.7480   46.9350 N.3   107  GLY107     -0.1210
      2  CA        19.7220    6.5660   46.7020 C.3   107  GLY107      0.1956
      3  C         19.1750    5.3530   47.3990 C.2   107  GLY107      0.2612
      4  O         17.9420    5.2770   47.6240 O.2   107  GLY107     -0.2717
      5  N         20.0700    4.4310   47.7990 N.am  108  HIS108     -0.1961
      6  CA        19.6830    3.2660   48.5430 C.3   108  HIS108      0.1787
      7  C         19.3860    3.6130   49.9890 C.2   108  HIS108      0.2620
      8  O         20.1460    4.2750   50.6510 O.2   108  HIS108     -0.2715
      9  CB        20.7560    2.1770   48.4420 C.3   108  HIS108      0.0785
     10  CG        20.9250    1.6590   47.0540 C.ar  108  HIS108      0.0821
     11  ND1       20.8440    0.3170   46.7390 N.ar  108  HIS108     -0.2267
     12  CD2       21.1250    2.3160   45.8780 C.ar  108  HIS108      0.1154
     13  CE1       21.0260    0.1670   45.4400 C.ar  108  HIS108      0.1986
     14  NE2       21.1860    1.3640   44.8890 N.ar  108  HIS108     -0.2212
     15  N         18.2550    3.1450   50.4850 N.am  109  TYR109     -0.1974
     16  CA        17.8000    3.4820   51.8020 C.3   109  TYR109      0.1639
     17  C         17.7470    2.2350   52.6670 C.2   109  TYR109      0.2290
     18  O         17.1190    1.2550   52.2910 O.2   109  TYR109     -0.2864
     19  CB        16.4100    4.1800   51.7160 C.3   109  TYR109      0.0560
     20  CG        15.8650    4.5150   53.0790 C.ar  109  TYR109     -0.0198
     21  CD1       16.4010    5.5720   53.8320 C.ar  109  TYR109     -0.0009
     22  CD2       14.7760    3.7940   53.6330 C.ar  109  TYR109     -0.0009
     23  CE1       15.8720    5.9180   55.1070 C.ar  109  TYR109      0.0417
     24  CE2       14.2710    4.1150   54.9100 C.ar  109  TYR109      0.0417
     25  CZ        14.8090    5.1840   55.6200 C.ar  109  TYR109      0.1957
     26  OH        14.3240    5.4630   56.8640 O.3   109  TYR109     -0.2866
     27  N         22.1550    6.4260   57.8970 N.3   117  LEU117     -0.1231
     28  CA        21.1670    7.4290   57.4770 C.3   117  LEU117      0.1693
     29  C         21.8590    8.5920   56.7420 C.2   117  LEU117      0.2591
     30  O         22.3980    9.4870   57.3630 O.2   117  LEU117     -0.2718
     31  CB        20.3650    7.9530   58.6700 C.3   117  LEU117      0.0284
     32  CG        19.2710    8.9730   58.3430 C.3   117  LEU117      0.0019
     33  CD1       18.3000    8.4750   57.2900 C.3   117  LEU117      0.0001
     34  CD2       18.4960    9.3440   59.6060 C.3   117  LEU117      0.0001
     35  N         21.8330    8.5160   55.4090 N.am  118  ARG118     -0.1980
     36  CA        22.3230    9.5180   54.5210 C.3   118  ARG118      0.1597
     37  C         21.1810   10.3750   53.9560 C.2   118  ARG118      0.2287
     38  O         20.0070    9.9400   53.9240 O.2   118  ARG118     -0.2864
     39  CB        23.1010    8.8650   53.4100 C.3   118  ARG118      0.0334
     40  CG        24.4050    8.1430   53.8400 C.3   118  ARG118      0.0492
     41  CD        24.4560    6.6020   53.6270 C.3   118  ARG118      0.2205
     42  NE        23.9340    6.1910   52.3830 N.pl3 118  ARG118     -0.0865
     43  CZ        22.9020    5.4080   52.0990 C.cat 118  ARG118      0.5346
     44  NH1       22.1110    4.8520   52.9960 N.pl3 118  ARG118      0.1354
     45  NH2       22.6710    5.2210   50.8050 N.pl3 118  ARG118      0.1354
     46  N         19.0610   11.4170   51.2100 N.3   120  GLY120     -0.1210
     47  CA        18.8290   10.7910   49.9260 C.3   120  GLY120      0.1956
     48  C         18.5220   11.8110   48.8540 C.2   120  GLY120      0.2611
     49  O         18.7670   11.5790   47.6710 O.2   120  GLY120     -0.2717
     50  N         17.9840   12.9560   49.2600 N.am  121  LYS121     -0.1979
     51  CA        17.6140   14.0100   48.3090 C.3   121  LYS121      0.1596
     52  C         18.7900   14.4610   47.4770 C.2   121  LYS121      0.2287
     53  O         18.6630   14.7610   46.3060 O.2   121  LYS121     -0.2864
     54  CB        17.0480   15.2390   49.0340 C.3   121  LYS121      0.0298
     55  CG        17.4270   15.4180   50.5260 C.3   121  LYS121      0.0038
     56  CD        17.1760   16.8430   51.0450 C.3   121  LYS121      0.0206
     57  CE        18.1980   17.2710   52.0860 C.3   121  LYS121      0.1093
     58  NZ        17.8930   16.7190   53.4300 N.3   121  LYS121     -0.1314
     59  N         19.7740   13.1590   43.8770 N.3   124  LEU124     -0.1245
     60  CA        19.0660   13.5650   42.6790 C.3   124  LEU124      0.1561
     61  C         19.7820   14.6560   41.8930 C.2   124  LEU124      0.2260
     62  O         19.2800   15.1110   40.8600 O.2   124  LEU124     -0.2867
     63  CB        17.6370   13.9680   43.0280 C.3   124  LEU124      0.0270
     64  CG        16.7500   12.9590   43.7440 C.3   124  LEU124      0.0019
     65  CD1       15.3030   13.4510   43.8370 C.3   124  LEU124      0.0001
     66  CD2       16.7690   11.6190   43.0790 C.3   124  LEU124      0.0001
     67  N         13.2540    1.5910   46.9100 N.3   177  ASN177     -0.1225
     68  CA        12.5760    2.5550   47.8040 C.3   177  ASN177      0.1785
     69  C         12.2250    3.7480   46.8790 C.2   177  ASN177      0.2597
     70  O         11.3030    4.5330   47.1050 O.2   177  ASN177     -0.2718
     71  CB        13.5090    3.0120   48.8660 C.3   177  ASN177      0.1169
     72  CG        14.3630    4.1880   48.4050 C.2   177  ASN177      0.2627
     73  OD1       13.9740    5.3860   48.5120 O.2   177  ASN177     -0.2716
     74  ND2       15.5570    3.8730   47.9900 N.am  177  ASN177     -0.0877
     75  N         12.9970    3.8360   45.8160 N.am  178  ALA178     -0.1979
     76  CA        12.7390    4.8280   44.7990 C.3   178  ALA178      0.1597
     77  C         13.1240    4.3530   43.3650 C.2   178  ALA178      0.2287
     78  O         13.8550    3.3600   43.1910 O.2   178  ALA178     -0.2864
     79  CB        13.3770    6.1480   45.2310 C.3   178  ALA178      0.0319
     80  N         19.5350    7.1170   40.2040 N.3   328  LEU328     -0.1245
     81  CA        18.4500    8.0880   40.5440 C.3   328  LEU328      0.1561
     82  C         18.7300    9.4520   39.8880 C.2   328  LEU328      0.2260
     83  O         17.7990   10.1010   39.4070 O.2   328  LEU328     -0.2867
     84  CB        18.0630    8.2250   42.0580 C.3   328  LEU328      0.0270
     85  CG        17.3410    7.1590   42.8780 C.3   328  LEU328      0.0019
     86  CD1       16.9680    7.6640   44.2640 C.3   328  LEU328      0.0001
     87  CD2       16.0970    6.6620   42.1490 C.3   328  LEU328      0.0001
     88  N          5.3310   12.2530   44.1670 N.3   357  ASN357     -0.1240
     89  CA         6.7020   12.1750   43.7160 C.3   357  ASN357      0.1653
     90  C          6.8120   11.0260   42.7670 C.2   357  ASN357      0.2266
     91  O          6.6760    9.8420   43.1710 O.2   357  ASN357     -0.2867
     92  CB         7.6220   11.9620   44.9050 C.3   357  ASN357      0.1155
     93  CG         9.0870   12.0010   44.5230 C.2   357  ASN357      0.2627
     94  OD1        9.4900   11.6190   43.4170 O.2   357  ASN357     -0.2716
     95  ND2        9.8930   12.4670   45.4350 N.am  357  ASN357     -0.0877
     96  N          9.2370    9.4560   41.6410 N.3   359  LEU359     -0.1231
     97  CA        10.2250    8.4010   42.0030 C.3   359  LEU359      0.1693
     98  C          9.6910    7.4070   43.0220 C.2   359  LEU359      0.2591
     99  O         10.3230    6.3690   43.2410 O.2   359  LEU359     -0.2718
    100  CB        11.4950    9.0240   42.6040 C.3   359  LEU359      0.0284
    101  CG        12.2670    9.9590   41.6880 C.3   359  LEU359      0.0019
    102  CD1       13.4050   10.5950   42.4770 C.3   359  LEU359      0.0001
    103  CD2       12.7700    9.2690   40.4580 C.3   359  LEU359      0.0001
    104  N          8.5680    7.7100   43.6770 N.am  360  GLU360     -0.1979
    105  CA         8.0030    6.7310   44.5790 C.3   360  GLU360      0.1602
    106  C          7.2710    5.6890   43.7650 C.2   360  GLU360      0.2287
    107  O          6.3510    6.0080   43.0590 O.2   360  GLU360     -0.2864
    108  CB         7.1070    7.3830   45.6150 C.3   360  GLU360      0.0415
    109  CG         7.8690    8.2640   46.6030 C.3   360  GLU360      0.1163
    110  CD         8.9180    7.4950   47.4080 C.2   360  GLU360      0.3649
    111  OE1        8.7390    6.2700   47.6880 O.co2 360  GLU360     -0.2457
    112  OE2        9.9350    8.1430   47.7610 O.co2 360  GLU360     -0.2457
@<TRIPOS>BOND
     1    83    82    2
     2    82    81    1
     3    80    81    1
     4   103   101    1
     5    81    84    1
     6    62    61    2
     7    96    97    1
     8   101   102    1
     9   101   100    1
    10    61    60    1
    11    97   100    1
    12    97    98    1
    13    84    85    1
    14    87    85    1
    15    60    63    1
    16    60    59    1
    17    90    91    2
    18    90    89    1
    19    85    86    1
    20    98    99    2
    21    98   104   am
    22    63    64    1
    23   107   106    2
    24    66    64    1
    25    78    77    2
    26    77    76    1
    27    94    93    2
    28   104   105    1
    29    89    88    1
    30    89    92    1
    31    64    65    1
    32   106   105    1
    33    93    92    1
    34    93    95   am
    35   105   108    1
    36    76    79    1
    37    76    75    1
    38    14    13   ar
    39    14    12   ar
    40    13    11   ar
    41   108   109    1
    42    75    69   am
    43    12    10   ar
    44    53    52    2
    45   109   110    1
    46     2     1    1
    47     2     3    1
    48    11    10   ar
    49    69    70    2
    50    69    68    1
    51    67    68    1
    52    10     9    1
    53     3     4    2
    54     3     5   am
    55   110   111   ar
    56   110   112   ar
    57    52    51    1
    58    49    48    2
    59     5     6    1
    60    68    71    1
    61    74    72   am
    62    51    54    1
    63    51    50    1
    64    72    73    2
    65    72    71    1
    66     9     6    1
    67     6     7    1
    68    48    50   am
    69    48    47    1
    70    54    55    1
    71    47    46    1
    72     7    15   am
    73     7     8    2
    74    15    16    1
    75    55    56    1
    76    45    43    1
    77    56    57    1
    78    19    16    1
    79    19    20    1
    80    16    17    1
    81    57    58    1
    82    43    42    2
    83    43    44    1
    84    18    17    2
    85    42    41    1
    86    20    22   ar
    87    20    21   ar
    88    39    40    1
    89    39    36    1
    90    41    40    1
    91    22    24   ar
    92    21    23   ar
    93    38    37    2
    94    37    36    1
    95    36    35    1
    96    24    25   ar
    97    23    25   ar
    98    35    29   am
    99    25    26    1
   100    29    30    2
   101    29    28    1
   102    33    32    1
   103    28    27    1
   104    28    31    1
   105    32    31    1
   106    32    34    1
