@<TRIPOS>MOLECULE
tmp/4zm4E00.pdb
 178 171 0 0 0
SMALL
GASTEIGER

@<TRIPOS>ATOM
      1  N         62.0670  -58.2700  -48.6900 N.3    19  SER19      -0.1217
      2  CA        63.2010  -59.0470  -49.1560 C.3    19  SER19       0.1889
      3  C         64.0120  -58.2980  -50.2430 C.2    19  SER19       0.2288
      4  O         63.4610  -57.9070  -51.2720 O.2    19  SER19      -0.2866
      5  CB        62.7370  -60.3950  -49.6990 C.3    19  SER19       0.2089
      6  OG        63.7490  -60.9330  -50.5640 O.3    19  SER19      -0.2183
      7  N         65.9840  -59.1640  -52.5770 N.3    21  MET21      -0.1230
      8  CA        65.8860  -59.6960  -53.9510 C.3    21  MET21       0.1702
      9  C         64.5490  -59.3380  -54.5910 C.2    21  MET21       0.2592
     10  O         64.5110  -58.8030  -55.7050 O.2    21  MET21      -0.2718
     11  CB        66.0190  -61.2200  -53.9970 C.3    21  MET21       0.0401
     12  CG        67.3770  -61.7740  -53.6020 C.3    21  MET21       0.0596
     13  SD        67.2910  -62.7090  -52.0590 S.3    21  MET21      -0.1393
     14  CE        67.7170  -61.4130  -50.9200 C.3    21  MET21       0.0692
     15  N         63.4580  -59.5970  -53.8680 N.am   22  ARG22      -0.1980
     16  CA        62.1290  -59.3700  -54.3970 C.3    22  ARG22       0.1597
     17  C         61.7710  -57.8860  -54.5680 C.2    22  ARG22       0.2287
     18  O         60.7230  -57.5600  -55.1380 O.2    22  ARG22      -0.2864
     19  CB        61.0680  -60.0910  -53.5440 C.3    22  ARG22       0.0334
     20  CG        61.2010  -61.6070  -53.5400 C.3    22  ARG22       0.0492
     21  CD        60.0350  -62.3070  -52.8340 C.3    22  ARG22       0.2205
     22  NE        60.1130  -62.2130  -51.3590 N.pl3  22  ARG22      -0.0865
     23  CZ        59.2410  -61.5910  -50.5650 C.cat  22  ARG22       0.5346
     24  NH1       58.1770  -60.9860  -51.0630 N.pl3  22  ARG22       0.1354
     25  NH2       59.4530  -61.5560  -49.2510 N.pl3  22  ARG22       0.1354
     26  N         57.0660  -67.8900  -55.8670 N.3    55  TYR55      -0.1241
     27  CA        58.3440  -68.5580  -55.6300 C.3    55  TYR55       0.1605
     28  C         58.2770  -70.0190  -55.0990 C.2    55  TYR55       0.2264
     29  O         59.1610  -70.4520  -54.3810 O.2    55  TYR55      -0.2867
     30  CB        59.2540  -67.6540  -54.7610 C.3    55  TYR55       0.0534
     31  CG        59.5650  -66.2840  -55.3600 C.ar   55  TYR55      -0.0201
     32  CD1       60.6210  -66.1050  -56.2550 C.ar   55  TYR55      -0.0009
     33  CD2       58.8030  -65.1780  -55.0330 C.ar   55  TYR55      -0.0009
     34  CE1       60.8990  -64.8490  -56.7990 C.ar   55  TYR55       0.0417
     35  CE2       59.0550  -63.9260  -55.5810 C.ar   55  TYR55       0.0417
     36  CZ        60.1040  -63.7590  -56.4570 C.ar   55  TYR55       0.1957
     37  OH        60.3490  -62.5050  -56.9980 O.3    55  TYR55      -0.2866
     38  N         60.6880  -70.9810  -41.7110 N.3   110  SER110     -0.1202
     39  CA        61.2730  -70.6220  -43.0150 C.3   110  SER110      0.2020
     40  C         62.3760  -71.5850  -43.4060 C.2   110  SER110      0.2619
     41  O         62.9690  -72.2360  -42.5390 O.2   110  SER110     -0.2717
     42  CB        61.8770  -69.2460  -42.9340 C.3   110  SER110      0.2103
     43  OG        62.9590  -69.2310  -42.0340 O.3   110  SER110     -0.2182
     44  N         62.6570  -71.6750  -44.7010 N.am  111  GLY111     -0.1942
     45  CA        63.8010  -72.4500  -45.1530 C.3   111  GLY111      0.2014
     46  C         65.1290  -72.0090  -44.5690 C.2   111  GLY111      0.2639
     47  O         66.0040  -72.8220  -44.2580 O.2   111  GLY111     -0.2714
     48  N         65.2860  -70.6990  -44.4030 N.am  112  THR112     -0.1950
     49  CA        66.4890  -70.1400  -43.7960 C.3   112  THR112      0.1897
     50  C         66.6990  -70.7260  -42.3710 C.2   112  THR112      0.2313
     51  O         67.7950  -71.1770  -42.0360 O.2   112  THR112     -0.2863
     52  CB        66.4220  -68.5930  -43.7750 C.3   112  THR112      0.1794
     53  OG1       66.5780  -68.1000  -45.0970 O.3   112  THR112     -0.2208
     54  CG2       67.5030  -67.9900  -42.8770 C.3   112  THR112      0.0378
     55  N         67.3460  -74.6350  -42.4860 N.3   115  VAL115     -0.1245
     56  CA        68.7460  -74.8810  -42.9360 C.3   115  VAL115      0.1561
     57  C         69.7210  -74.6150  -41.7950 C.2   115  VAL115      0.2260
     58  O         70.5830  -75.4580  -41.4950 O.2   115  VAL115     -0.2867
     59  CB        69.0740  -74.0090  -44.1810 C.3   115  VAL115      0.0252
     60  CG1       70.5780  -73.8560  -44.3940 C.3   115  VAL115      0.0019
     61  CG2       68.4080  -74.5710  -45.4220 C.3   115  VAL115      0.0019
     62  N         71.3360  -71.9070  -53.2320 N.3   138  TYR138     -0.1227
     63  CA        70.9490  -70.9850  -52.2040 C.3   138  TYR138      0.1736
     64  C         70.2580  -71.7240  -51.0680 C.2   138  TYR138      0.2595
     65  O         69.3330  -72.5240  -51.2900 O.2   138  TYR138     -0.2718
     66  CB        70.0440  -69.8810  -52.8130 C.3   138  TYR138      0.0548
     67  CG        69.5500  -68.8670  -51.8090 C.ar  138  TYR138     -0.0200
     68  CD1       70.4150  -67.9450  -51.2220 C.ar  138  TYR138     -0.0009
     69  CD2       68.2070  -68.8020  -51.4820 C.ar  138  TYR138     -0.0009
     70  CE1       69.9500  -66.9880  -50.3150 C.ar  138  TYR138      0.0417
     71  CE2       67.7450  -67.8430  -50.5620 C.ar  138  TYR138      0.0417
     72  CZ        68.6300  -66.9520  -49.9880 C.ar  138  TYR138      0.1957
     73  OH        68.1220  -66.0650  -49.1110 O.3   138  TYR138     -0.2866
     74  N         70.7210  -71.4690  -49.8450 N.am  139  HIS139     -0.1961
     75  CA        70.2040  -72.1390  -48.6620 C.3   139  HIS139      0.1787
     76  C         69.6740  -71.1840  -47.5990 C.2   139  HIS139      0.2621
     77  O         69.6720  -71.4780  -46.4070 O.2   139  HIS139     -0.2715
     78  CB        71.3040  -73.0490  -48.1470 C.3   139  HIS139      0.0785
     79  CG        71.8130  -73.9840  -49.2040 C.ar  139  HIS139      0.0821
     80  ND1       70.9720  -74.8180  -49.9090 N.ar  139  HIS139     -0.2267
     81  CD2       73.0510  -74.1890  -49.7070 C.ar  139  HIS139      0.1154
     82  CE1       71.6740  -75.4980  -50.7950 C.ar  139  HIS139      0.1986
     83  NE2       72.9360  -75.1260  -50.7040 N.ar  139  HIS139     -0.2212
     84  N         69.2100  -70.0270  -48.0370 N.am  140  GLY140     -0.1940
     85  CA        68.7390  -69.0060  -47.1310 C.3   140  GLY140      0.2014
     86  C         69.8660  -68.0830  -46.7160 C.2   140  GLY140      0.2638
     87  O         70.9730  -68.1790  -47.2280 O.2   140  GLY140     -0.2714
     88  N         69.5630  -67.1790  -45.7920 N.am  141  TRP141     -0.1973
     89  CA        70.4770  -66.0770  -45.4620 C.3   141  TRP141      0.1640
     90  C         71.1320  -66.1630  -44.0970 C.2   141  TRP141      0.2290
     91  O         71.6270  -65.1660  -43.6010 O.2   141  TRP141     -0.2864
     92  CB        69.7360  -64.7540  -45.5990 C.3   141  TRP141      0.0576
     93  CG        68.3850  -64.7040  -44.9530 C.ar  141  TRP141      0.0006
     94  CD1       67.1910  -65.1750  -45.4780 C.ar  141  TRP141      0.0946
     95  CD2       68.0540  -64.0880  -43.7320 C.ar  141  TRP141      0.0152
     96  NE1       66.1520  -64.8880  -44.6290 N.ar  141  TRP141     -0.2442
     97  CE2       66.6510  -64.2220  -43.5520 C.ar  141  TRP141      0.0810
     98  CE3       68.7880  -63.4110  -42.7800 C.ar  141  TRP141      0.0012
     99  CZ2       65.9980  -63.7190  -42.4410 C.ar  141  TRP141      0.0191
    100  CZ3       68.1660  -62.9500  -41.6980 C.ar  141  TRP141      0.0001
    101  CH2       66.7670  -63.0790  -41.5240 C.ar  141  TRP141      0.0015
    102  N         71.1940  -78.2420  -53.4010 N.3   197  GLU197     -0.1245
    103  CA        69.9150  -78.2750  -54.1090 C.3   197  GLU197      0.1567
    104  C         69.9760  -79.4210  -55.0920 C.2   197  GLU197      0.2260
    105  O         70.6790  -79.3320  -56.0690 O.2   197  GLU197     -0.2867
    106  CB        69.6470  -76.9650  -54.8850 C.3   197  GLU197      0.0388
    107  CG        69.3170  -75.7310  -54.0220 C.3   197  GLU197      0.1160
    108  CD        68.9650  -74.5260  -54.8780 C.2   197  GLU197      0.3649
    109  OE1       68.0920  -74.6560  -55.7740 O.co2 197  GLU197     -0.2457
    110  OE2       69.5190  -73.4400  -54.6410 O.co2 197  GLU197     -0.2457
    111  N         67.4960  -72.0730  -58.0280 N.3   202  ASN202     -0.1240
    112  CA        67.7640  -70.6310  -57.8930 C.3   202  ASN202      0.1653
    113  C         68.8530  -70.0430  -58.8430 C.2   202  ASN202      0.2266
    114  O         69.4090  -68.9700  -58.5890 O.2   202  ASN202     -0.2867
    115  CB        68.1540  -70.3100  -56.4330 C.3   202  ASN202      0.1155
    116  CG        67.0360  -70.5520  -55.4510 C.2   202  ASN202      0.2627
    117  OD1       66.1720  -69.7060  -55.2350 O.2   202  ASN202     -0.2716
    118  ND2       67.1120  -71.6630  -54.7570 N.am  202  ASN202     -0.0877
    119  N         68.6850  -79.8240  -49.6620 N.3   230  ASP230     -0.1239
    120  CA        67.7810  -78.6880  -49.5100 C.3   230  ASP230      0.1674
    121  C         66.6770  -78.8720  -50.5380 C.2   230  ASP230      0.2266
    122  O         66.8520  -78.5590  -51.7040 O.2   230  ASP230     -0.2867
    123  CB        68.5300  -77.3720  -49.7130 C.3   230  ASP230      0.1410
    124  CG        67.6610  -76.1570  -49.4270 C.2   230  ASP230      0.3668
    125  OD1       66.4280  -76.3130  -49.3000 O.co2 230  ASP230     -0.2456
    126  OD2       68.2180  -75.0380  -49.3980 O.co2 230  ASP230     -0.2456
    127  N         63.6810  -77.4070  -50.3070 N.3   232  VAL232     -0.1231
    128  CA        62.7500  -76.3230  -50.0560 C.3   232  VAL232      0.1692
    129  C         61.9090  -76.1020  -51.3110 C.2   232  VAL232      0.2591
    130  O         60.7100  -75.9310  -51.2230 O.2   232  VAL232     -0.2718
    131  CB        63.4890  -75.0340  -49.6140 C.3   232  VAL232      0.0266
    132  CG1       62.6590  -73.7860  -49.9040 C.3   232  VAL232      0.0020
    133  CG2       63.7930  -75.1140  -48.1190 C.3   232  VAL232      0.0020
    134  N         62.5580  -76.1430  -52.4620 N.am  233  ILE233     -0.1980
    135  CA        61.8630  -75.9790  -53.7120 C.3   233  ILE233      0.1595
    136  C         61.4320  -77.3150  -54.3090 C.2   233  ILE233      0.2287
    137  O         60.2720  -77.4570  -54.7030 O.2   233  ILE233     -0.2864
    138  CB        62.7080  -75.1700  -54.7120 C.3   233  ILE233      0.0276
    139  CG1       62.6380  -73.6880  -54.3590 C.3   233  ILE233      0.0022
    140  CG2       62.2140  -75.3490  -56.1390 C.3   233  ILE233      0.0022
    141  CD1       63.5910  -72.8020  -55.1760 C.3   233  ILE233      0.0001
    142  N         59.9140  -77.0030  -47.2790 N.3   257  SER257     -0.1202
    143  CA        59.0880  -75.8070  -47.0890 C.3   257  SER257      0.2020
    144  C         58.1680  -75.6620  -48.3020 C.2   257  SER257      0.2618
    145  O         57.8720  -76.6430  -48.9650 O.2   257  SER257     -0.2717
    146  CB        59.9690  -74.5750  -46.9110 C.3   257  SER257      0.2103
    147  OG        59.2050  -73.4310  -46.5480 O.3   257  SER257     -0.2182
    148  N         57.6810  -74.4570  -48.5790 N.am  258  ARG258     -0.1979
    149  CA        57.0180  -74.1230  -49.8560 C.3   258  ARG258      0.1597
    150  C         55.7700  -74.9130  -50.1390 C.2   258  ARG258      0.2287
    151  O         54.7140  -74.5560  -49.6510 O.2   258  ARG258     -0.2864
    152  CB        57.9900  -74.2430  -51.0220 C.3   258  ARG258      0.0334
    153  CG        59.2300  -73.4130  -50.8500 C.3   258  ARG258      0.0492
    154  CD        59.0380  -71.9450  -51.1290 C.3   258  ARG258      0.2205
    155  NE        60.1090  -71.2550  -50.4340 N.pl3 258  ARG258     -0.0865
    156  CZ        61.1980  -70.7100  -50.9790 C.cat 258  ARG258      0.5346
    157  NH1       61.4130  -70.6850  -52.3020 N.pl3 258  ARG258      0.1354
    158  NH2       62.0850  -70.1550  -50.1580 N.pl3 258  ARG258      0.1354
    159  N         66.0200  -66.9250  -62.8030 N.3   398  GLU398     -0.1245
    160  CA        64.9790  -67.2000  -61.8070 C.3   398  GLU398      0.1567
    161  C         63.8610  -68.0300  -62.4270 C.2   398  GLU398      0.2260
    162  O         63.2980  -67.6550  -63.4330 O.2   398  GLU398     -0.2867
    163  CB        64.4080  -65.9010  -61.2580 C.3   398  GLU398      0.0388
    164  CG        65.3980  -65.1200  -60.4060 C.3   398  GLU398      0.1160
    165  CD        65.7370  -65.7910  -59.0900 C.2   398  GLU398      0.3649
    166  OE1       65.0110  -66.7520  -58.6800 O.co2 398  GLU398     -0.2457
    167  OE2       66.7430  -65.3520  -58.4780 O.co2 398  GLU398     -0.2457
    168  N         57.3580  -71.2550  -61.8810 N.3   401  PHE401     -0.1241
    169  CA        56.7610  -72.2760  -61.0350 C.3   401  PHE401      0.1605
    170  C         55.3180  -72.5710  -61.4720 C.2   401  PHE401      0.2264
    171  O         54.3650  -72.0080  -60.9240 O.2   401  PHE401     -0.2867
    172  CB        56.7630  -71.8120  -59.5790 C.3   401  PHE401      0.0534
    173  CG        58.1360  -71.6970  -58.9760 C.ar  401  PHE401     -0.0203
    174  CD1       58.8250  -70.4830  -58.9940 C.ar  401  PHE401     -0.0042
    175  CD2       58.7450  -72.7850  -58.3860 C.ar  401  PHE401     -0.0042
    176  CE1       60.0890  -70.3700  -58.4540 C.ar  401  PHE401     -0.0003
    177  CE2       60.0140  -72.6680  -57.8290 C.ar  401  PHE401     -0.0003
    178  CZ        60.6840  -71.4580  -57.8660 C.ar  401  PHE401     -0.0000
@<TRIPOS>BOND
     1   162   161    2
     2   159   160    1
     3   161   160    1
     4   168   169    1
     5   160   163    1
     6   170   169    1
     7   170   171    2
     8   163   164    1
     9   169   172    1
    10   164   165    1
    11   172   173    1
    12   165   166   ar
    13   165   167   ar
    14   174   173   ar
    15   174   176   ar
    16   173   175   ar
    17   113   114    2
    18   113   112    1
    19   176   178   ar
    20   175   177   ar
    21   111   112    1
    22   112   115    1
    23   178   177   ar
    24    37    36    1
    25    34    36   ar
    26    34    32   ar
    27    36    35   ar
    28   115   116    1
    29    32    31   ar
    30   140   138    1
    31   105   104    2
    32    26    27    1
    33   109   108   ar
    34    10     9    2
    35    27    28    1
    36    27    30    1
    37    35    33   ar
    38   116   117    2
    39   116   118   am
    40    31    33   ar
    41    31    30    1
    42   141   139    1
    43    18    17    2
    44    28    29    2
    45   104   103    1
    46   106   103    1
    47   106   107    1
    48   108   110   ar
    49   108   107    1
    50   138   139    1
    51   138   135    1
    52   137   136    2
    53     9     8    1
    54     9    15   am
    55    17    16    1
    56    16    15    1
    57    16    19    1
    58   136   135    1
    59   103   102    1
    60    11     8    1
    61    11    12    1
    62     8     7    1
    63   135   134    1
    64    12    13    1
    65    19    20    1
    66    20    21    1
    67    62    63    1
    68    21    22    1
    69    66    63    1
    70    66    67    1
    71   134   129   am
    72   157   156    1
    73    63    64    1
    74    13    14    1
    75    67    69   ar
    76    67    68   ar
    77   122   121    2
    78    69    71   ar
    79    22    23    2
    80   129   130    2
    81   129   128    1
    82    65    64    2
    83     4     3    2
    84    68    70   ar
    85   154   153    1
    86   154   155    1
    87    64    74   am
    88    24    23    1
    89   152   153    1
    90   152   149    1
    91   156   155    2
    92   156   158    1
    93    82    83   ar
    94    82    80   ar
    95    83    81   ar
    96    23    25    1
    97     6     5    1
    98    71    72   ar
    99   121   120    1
   100    70    72   ar
   101   127   128    1
   102     3     2    1
   103   150   149    1
   104   150   151    2
   105   128   131    1
   106    72    73    1
   107    80    79   ar
   108   132   131    1
   109   149   148    1
   110    74    75    1
   111   123   120    1
   112   123   124    1
   113    81    79   ar
   114     5     2    1
   115   119   120    1
   116   131   133    1
   117   124   126   ar
   118   124   125   ar
   119    79    78    1
   120     2     1    1
   121   145   144    2
   122    75    78    1
   123    75    76    1
   124   148   144   am
   125   144   143    1
   126    84    76   am
   127    84    85    1
   128    76    77    2
   129   142   143    1
   130    87    86    2
   131    85    86    1
   132   143   146    1
   133   146   147    1
   134    86    88   am
   135    88    89    1
   136    92    89    1
   137    92    93    1
   138    94    93   ar
   139    94    96   ar
   140    89    90    1
   141    61    59    1
   142    45    44    1
   143    45    46    1
   144    53    52    1
   145    93    95   ar
   146    44    40   am
   147    96    97   ar
   148    46    48   am
   149    46    47    2
   150    48    49    1
   151    60    59    1
   152    59    56    1
   153    90    91    2
   154    49    52    1
   155    49    50    1
   156    52    54    1
   157    95    97   ar
   158    95    98   ar
   159    97    99   ar
   160    40    39    1
   161    40    41    2
   162    39    42    1
   163    39    38    1
   164    56    55    1
   165    56    57    1
   166    42    43    1
   167    98   100   ar
   168    99   101   ar
   169    50    51    2
   170    57    58    2
   171   100   101   ar
