@<TRIPOS>MOLECULE
tmp/4zm4A00.pdb
 133 129 0 0 0
SMALL
GASTEIGER

@<TRIPOS>ATOM
      1  N         29.5980  -26.4150  -28.1240 N.3    55  TYR55      -0.1241
      2  CA        28.3880  -25.6060  -28.0250 C.3    55  TYR55       0.1605
      3  C         27.0890  -26.2660  -28.5660 C.2    55  TYR55       0.2264
      4  O         26.2090  -25.5590  -29.0420 O.2    55  TYR55      -0.2867
      5  CB        28.6270  -24.1930  -28.6320 C.3    55  TYR55       0.0534
      6  CG        29.7410  -23.3890  -27.9820 C.ar   55  TYR55      -0.0201
      7  CD1       29.5000  -22.5850  -26.8800 C.ar   55  TYR55      -0.0009
      8  CD2       31.0300  -23.4220  -28.4790 C.ar   55  TYR55      -0.0009
      9  CE1       30.5290  -21.8660  -26.2750 C.ar   55  TYR55       0.0417
     10  CE2       32.0630  -22.6900  -27.8940 C.ar   55  TYR55       0.0417
     11  CZ        31.8090  -21.9050  -26.7980 C.ar   55  TYR55       0.1957
     12  OH        32.8410  -21.1830  -26.2160 O.3    55  TYR55      -0.2866
     13  N         23.6070  -21.6980  -40.9260 N.3   110  SER110     -0.1202
     14  CA        23.7850  -21.3110  -39.5230 C.3   110  SER110      0.2020
     15  C         22.4770  -20.9420  -38.8900 C.2   110  SER110      0.2619
     16  O         21.5130  -20.6020  -39.5890 O.2   110  SER110     -0.2717
     17  CB        24.6860  -20.1100  -39.4570 C.3   110  SER110      0.2103
     18  OG        24.0810  -19.0030  -40.0760 O.3   110  SER110     -0.2182
     19  N         22.4060  -21.0330  -37.5670 N.am  111  GLY111     -0.1942
     20  CA        21.2130  -20.5920  -36.8400 C.3   111  GLY111      0.2014
     21  C         20.8860  -19.1040  -37.0920 C.2   111  GLY111      0.2639
     22  O         19.7310  -18.7080  -37.1650 O.2   111  GLY111     -0.2714
     23  N         21.9370  -18.2880  -37.2210 N.am  112  THR112     -0.1950
     24  CA        21.7960  -16.8760  -37.4860 C.3   112  THR112      0.1897
     25  C         21.0500  -16.6380  -38.8160 C.2   112  THR112      0.2313
     26  O         20.0370  -15.8940  -38.8490 O.2   112  THR112     -0.2863
     27  CB        23.1540  -16.1790  -37.4810 C.3   112  THR112      0.1794
     28  OG1       23.6660  -16.1360  -36.1360 O.3   112  THR112     -0.2208
     29  CG2       23.0600  -14.7600  -38.0500 C.3   112  THR112      0.0378
     30  N         17.2910  -18.0790  -38.5210 N.3   115  VAL115     -0.1245
     31  CA        16.4980  -17.1260  -37.7680 C.3   115  VAL115      0.1561
     32  C         16.1080  -15.9250  -38.6530 C.2   115  VAL115      0.2260
     33  O         14.9290  -15.5380  -38.6850 O.2   115  VAL115     -0.2867
     34  CB        17.2360  -16.7180  -36.4580 C.3   115  VAL115      0.0252
     35  CG1       16.6680  -15.4360  -35.8420 C.3   115  VAL115      0.0019
     36  CG2       17.1970  -17.8480  -35.4230 C.3   115  VAL115      0.0019
     37  N         19.0040  -15.7770  -27.0370 N.3   138  TYR138     -0.1227
     38  CA        19.8830  -15.4470  -28.1430 C.3   138  TYR138      0.1736
     39  C         19.4090  -16.1260  -29.4210 C.2   138  TYR138      0.2595
     40  O         19.1460  -17.3330  -29.4620 O.2   138  TYR138     -0.2718
     41  CB        21.3330  -15.8450  -27.7740 C.3   138  TYR138      0.0548
     42  CG        22.3690  -15.5390  -28.8510 C.ar  138  TYR138     -0.0200
     43  CD1       22.6820  -14.2230  -29.2020 C.ar  138  TYR138     -0.0009
     44  CD2       23.0090  -16.5560  -29.5160 C.ar  138  TYR138     -0.0009
     45  CE1       23.6260  -13.9380  -30.1670 C.ar  138  TYR138      0.0417
     46  CE2       23.9530  -16.2870  -30.5080 C.ar  138  TYR138      0.0417
     47  CZ        24.2360  -14.9790  -30.8480 C.ar  138  TYR138      0.1957
     48  OH        25.1420  -14.7430  -31.8440 O.3   138  TYR138     -0.2866
     49  N         19.2960  -15.3330  -30.4870 N.am  139  HIS139     -0.1961
     50  CA        18.8190  -15.8460  -31.7800 C.3   139  HIS139      0.1787
     51  C         19.7790  -15.6110  -32.9380 C.2   139  HIS139      0.2621
     52  O         19.3850  -15.4840  -34.0970 O.2   139  HIS139     -0.2715
     53  CB        17.4230  -15.2710  -32.0340 C.3   139  HIS139      0.0785
     54  CG        16.4720  -15.5500  -30.9070 C.ar  139  HIS139      0.0821
     55  ND1       16.2170  -16.8240  -30.4690 N.ar  139  HIS139     -0.2267
     56  CD2       15.7830  -14.7230  -30.0820 C.ar  139  HIS139      0.1154
     57  CE1       15.3920  -16.7790  -29.4360 C.ar  139  HIS139      0.1986
     58  NE2       15.1030  -15.5120  -29.1910 N.ar  139  HIS139     -0.2212
     59  N         21.0550  -15.5630  -32.6240 N.am  140  GLY140     -0.1940
     60  CA        22.0880  -15.2530  -33.6320 C.3   140  GLY140      0.2014
     61  C         22.3070  -13.7460  -33.7350 C.2   140  GLY140      0.2638
     62  O         21.7360  -12.9730  -32.9650 O.2   140  GLY140     -0.2714
     63  N         23.0900  -13.3410  -34.7160 N.am  141  TRP141     -0.1973
     64  CA        23.5900  -11.9900  -34.7770 C.3   141  TRP141      0.1640
     65  C         23.0620  -11.1820  -35.9580 C.2   141  TRP141      0.2290
     66  O         23.6430  -10.1380  -36.2840 O.2   141  TRP141     -0.2864
     67  CB        25.1450  -11.9920  -34.8050 C.3   141  TRP141      0.0576
     68  CG        25.7640  -12.9280  -35.7660 C.ar  141  TRP141      0.0006
     69  CD1       25.9800  -14.2820  -35.5850 C.ar  141  TRP141      0.0946
     70  CD2       26.3060  -12.6020  -37.0500 C.ar  141  TRP141      0.0152
     71  NE1       26.5960  -14.8160  -36.7040 N.ar  141  TRP141     -0.2442
     72  CE2       26.8280  -13.8050  -37.6070 C.ar  141  TRP141      0.0810
     73  CE3       26.4520  -11.4230  -37.7540 C.ar  141  TRP141      0.0012
     74  CZ2       27.4320  -13.8400  -38.8660 C.ar  141  TRP141      0.0191
     75  CZ3       27.0610  -11.4550  -38.9550 C.ar  141  TRP141      0.0001
     76  CH2       27.5440  -12.6680  -39.5200 C.ar  141  TRP141      0.0015
     77  N         13.5460  -19.0920  -27.0120 N.3   197  GLU197     -0.1245
     78  CA        14.2310  -20.3410  -26.6600 C.3   197  GLU197      0.1567
     79  C         13.2990  -21.0880  -25.7100 C.2   197  GLU197      0.2260
     80  O         13.1510  -20.6720  -24.5710 O.2   197  GLU197     -0.2867
     81  CB        15.5840  -20.0880  -25.9720 C.3   197  GLU197      0.0388
     82  CG        16.6920  -19.5760  -26.8660 C.3   197  GLU197      0.1160
     83  CD        18.0220  -19.4860  -26.1300 C.2   197  GLU197      0.3649
     84  OE1       18.4180  -20.4500  -25.4580 O.co2 197  GLU197     -0.2457
     85  OE2       18.6660  -18.4010  -26.1850 O.co2 197  GLU197     -0.2457
     86  N         21.1940  -20.1790  -23.3870 N.3   202  ASN202     -0.1240
     87  CA        22.3070  -19.1970  -23.4300 C.3   202  ASN202      0.1653
     88  C         22.3920  -18.2050  -22.2410 C.2   202  ASN202      0.2266
     89  O         23.0370  -17.1510  -22.3330 O.2   202  ASN202     -0.2867
     90  CB        22.2360  -18.3830  -24.7310 C.3   202  ASN202      0.1155
     91  CG        22.4510  -19.2190  -25.9830 C.2   202  ASN202      0.2627
     92  OD1       23.5870  -19.4870  -26.3950 O.2   202  ASN202     -0.2716
     93  ND2       21.3740  -19.5410  -26.6540 N.am  202  ASN202     -0.0877
     94  N         12.9530  -21.1680  -31.3090 N.3   230  ASP230     -0.1239
     95  CA        14.3520  -21.3350  -31.6630 C.3   230  ASP230      0.1674
     96  C         14.8200  -22.5740  -30.9610 C.2   230  ASP230      0.2266
     97  O         15.1670  -22.5230  -29.7690 O.2   230  ASP230     -0.2867
     98  CB        15.1850  -20.1090  -31.2400 C.3   230  ASP230      0.1410
     99  CG        16.6050  -20.1720  -31.7240 C.2   230  ASP230      0.3668
    100  OD1       17.0460  -21.2450  -32.1640 O.co2 230  ASP230     -0.2456
    101  OD2       17.3100  -19.1370  -31.6260 O.co2 230  ASP230     -0.2456
    102  N         17.5430  -24.2900  -31.9340 N.3   232  VAL232     -0.1231
    103  CA        18.8990  -24.4760  -32.3950 C.3   232  VAL232      0.1692
    104  C         19.6240  -25.3220  -31.4010 C.2   232  VAL232      0.2591
    105  O         20.3570  -26.2460  -31.7730 O.2   232  VAL232     -0.2718
    106  CB        19.6380  -23.1080  -32.6200 C.3   232  VAL232      0.0266
    107  CG1       21.1460  -23.2760  -32.5520 C.3   232  VAL232      0.0020
    108  CG2       19.2310  -22.5460  -33.9730 C.3   232  VAL232      0.0020
    109  N         19.4140  -25.0490  -30.1170 N.am  233  ILE233     -0.1980
    110  CA        20.0600  -25.8440  -29.0460 C.3   233  ILE233      0.1595
    111  C         19.1590  -27.0020  -28.5830 C.2   233  ILE233      0.2287
    112  O         19.6230  -28.1400  -28.5050 O.2   233  ILE233     -0.2864
    113  CB        20.4850  -24.9590  -27.8670 C.3   233  ILE233      0.0276
    114  CG1       21.7450  -24.2270  -28.2200 C.3   233  ILE233      0.0022
    115  CG2       20.7270  -25.7870  -26.6120 C.3   233  ILE233      0.0022
    116  CD1       22.1370  -23.1700  -27.1910 C.3   233  ILE233      0.0001
    117  N         19.3540  -26.6050  -35.8190 N.3   257  SER257     -0.1202
    118  CA        20.7480  -26.6460  -36.1960 C.3   257  SER257      0.2020
    119  C         21.4630  -27.6190  -35.2490 C.2   257  SER257      0.2618
    120  O         20.8430  -28.4840  -34.6780 O.2   257  SER257     -0.2717
    121  CB        21.3740  -25.2480  -36.1110 C.3   257  SER257      0.2103
    122  OG        22.7000  -25.2300  -36.6370 O.3   257  SER257     -0.2182
    123  N         22.7690  -27.4940  -35.0890 N.am  258  ARG258     -0.1979
    124  CA        23.5280  -28.1710  -33.9930 C.3   258  ARG258      0.1597
    125  C         23.4930  -29.6840  -34.0320 C.2   258  ARG258      0.2287
    126  O         24.2420  -30.2710  -34.7790 O.2   258  ARG258     -0.2864
    127  CB        23.1190  -27.6600  -32.6180 C.3   258  ARG258      0.0334
    128  CG        23.2330  -26.1750  -32.4620 C.3   258  ARG258      0.0492
    129  CD        24.6370  -25.6800  -32.2490 C.3   258  ARG258      0.2205
    130  NE        24.6600  -24.2810  -32.6480 N.pl3 258  ARG258     -0.0865
    131  CZ        24.6380  -23.2240  -31.8420 C.cat 258  ARG258      0.5346
    132  NH1       24.6770  -23.3190  -30.4960 N.pl3 258  ARG258      0.1354
    133  NH2       24.6410  -22.0280  -32.4170 N.pl3 258  ARG258      0.1354
@<TRIPOS>BOND
     1    13    14    1
     2    18    17    1
     3    16    15    2
     4    14    17    1
     5    14    15    1
     6    76    75   ar
     7    76    74   ar
     8    75    73   ar
     9    15    19   am
    10    74    72   ar
    11    26    25    2
    12    25    24    1
    13    33    32    2
    14    32    31    1
    15    30    31    1
    16    29    27    1
    17    31    34    1
    18    73    70   ar
    19    72    70   ar
    20    72    71   ar
    21    19    20    1
    22    24    27    1
    23    24    23    1
    24    27    28    1
    25    23    21   am
    26    22    21    2
    27    21    20    1
    28    70    68   ar
    29    71    69   ar
    30   122   121    1
    31    34    35    1
    32    34    36    1
    33    66    65    2
    34   118   121    1
    35   118   117    1
    36   118   119    1
    37    65    64    1
    38    68    69   ar
    39    68    67    1
    40   119   123   am
    41   119   120    2
    42   123   124    1
    43    67    64    1
    44   126   125    2
    45    64    63    1
    46    63    61   am
    47    52    51    2
    48   125   124    1
    49   124   127    1
    50   108   106    1
    51    61    60    1
    52    61    62    2
    53    60    59    1
    54    51    59   am
    55    51    50    1
    56   130   129    1
    57   130   131    2
    58   106   107    1
    59   106   103    1
    60   127   128    1
    61   128   129    1
    62   133   131    1
    63   103   102    1
    64   103   104    1
    65   100    99   ar
    66    53    50    1
    67    53    54    1
    68    48    47    1
    69   131   132    1
    70    50    49    1
    71   105   104    2
    72    99   101   ar
    73    99    98    1
    74    95    94    1
    75    95    98    1
    76    95    96    1
    77   104   109   am
    78    96    97    2
    79    54    55   ar
    80    54    56   ar
    81    47    46   ar
    82    47    45   ar
    83    46    44   ar
    84    49    39   am
    85    55    57   ar
    86    45    43   ar
    87   109   110    1
    88    56    58   ar
    89    44    42   ar
    90    40    39    2
    91    57    58   ar
    92    39    38    1
    93    43    42   ar
    94   110   111    1
    95   110   113    1
    96     4     3    2
    97    42    41    1
    98     5     2    1
    99     5     6    1
   100   111   112    2
   101     3     2    1
   102     8     6   ar
   103     8    10   ar
   104   114   113    1
   105   114   116    1
   106    38    41    1
   107    38    37    1
   108     1     2    1
   109     6     7   ar
   110    10    11   ar
   111   113   115    1
   112    77    78    1
   113     7     9   ar
   114    82    83    1
   115    82    81    1
   116    11     9   ar
   117    11    12    1
   118    78    81    1
   119    78    79    1
   120    93    91   am
   121    92    91    2
   122    85    83   ar
   123    83    84   ar
   124    91    90    1
   125    79    80    2
   126    90    87    1
   127    87    86    1
   128    87    88    1
   129    89    88    2
