@<TRIPOS>MOLECULE
tmp/4zm9C00.pdb
 93 86 0 0 0
SMALL
GASTEIGER

@<TRIPOS>ATOM
      1  N         46.0530   54.8350   46.7250 N.3     9  GLY9       -0.1210
      2  CA        44.6720   55.1290   46.3480 C.3     9  GLY9        0.1956
      3  C         44.2460   56.5900   46.4340 C.2     9  GLY9        0.2612
      4  O         43.0460   56.8880   46.5360 O.2     9  GLY9       -0.2717
      5  N         45.1940   57.5090   46.4340 N.am   10  GLY10      -0.1942
      6  CA        44.8390   58.9260   46.3770 C.3    10  GLY10       0.2014
      7  C         44.7560   59.4820   47.7670 C.2    10  GLY10       0.2639
      8  O         44.3440   58.7960   48.6840 O.2    10  GLY10      -0.2714
      9  N         45.1530   60.7290   47.9210 N.am   11  GLY11      -0.1954
     10  CA        44.9840   61.4440   49.1720 C.3    11  GLY11       0.1869
     11  C         43.5100   61.6680   49.4800 C.2    11  GLY11       0.2309
     12  O         42.6520   61.5840   48.6010 O.2    11  GLY11      -0.2863
     13  N         39.0120   57.4200   43.2220 N.3    62  ASN62      -0.1240
     14  CA        38.8200   58.4530   42.2110 C.3    62  ASN62       0.1653
     15  C         39.6890   58.1690   40.9950 C.2    62  ASN62       0.2266
     16  O         40.7800   58.7140   40.8330 O.2    62  ASN62      -0.2867
     17  CB        39.1050   59.8470   42.7970 C.3    62  ASN62       0.1155
     18  CG        39.1830   60.9390   41.7390 C.2    62  ASN62       0.2627
     19  OD1       38.5600   60.8960   40.6820 O.2    62  ASN62      -0.2716
     20  ND2       39.9850   61.8960   42.0130 N.am   62  ASN62      -0.0877
     21  N         35.6910   61.3780   40.5420 N.3    68  VAL68      -0.1245
     22  CA        35.0510   62.6520   40.8990 C.3    68  VAL68       0.1561
     23  C         34.4230   63.2530   39.6370 C.2    68  VAL68       0.2260
     24  O         34.8040   62.9230   38.4860 O.2    68  VAL68      -0.2867
     25  CB        36.0280   63.6720   41.5390 C.3    68  VAL68       0.0252
     26  CG1       36.6100   63.1120   42.8030 C.3    68  VAL68       0.0019
     27  CG2       37.1570   64.0480   40.6200 C.3    68  VAL68       0.0019
     28  N         29.2510   64.9900   46.6090 N.3   147  ARG147     -0.1245
     29  CA        30.5080   65.6960   46.7580 C.3   147  ARG147      0.1563
     30  C         30.5370   66.9310   45.8170 C.2   147  ARG147      0.2260
     31  O         31.0110   67.9800   46.1980 O.2   147  ARG147     -0.2867
     32  CB        31.6300   64.7240   46.4830 C.3   147  ARG147      0.0307
     33  CG        32.9650   64.9950   47.1250 C.3   147  ARG147      0.0489
     34  CD        33.8790   63.8200   46.9400 C.3   147  ARG147      0.2205
     35  NE        35.2720   64.2820   47.0370 N.pl3 147  ARG147     -0.0865
     36  CZ        36.3230   63.5260   46.7580 C.cat 147  ARG147      0.5346
     37  NH1       36.1470   62.2650   46.3740 N.pl3 147  ARG147      0.1354
     38  NH2       37.5500   64.0350   46.8560 N.pl3 147  ARG147      0.1354
     39  N         42.3930   59.7770   42.4700 N.3   155  THR155     -0.1218
     40  CA        43.6700   59.2950   41.8970 C.3   155  THR155      0.1862
     41  C         44.2030   58.0240   42.5050 C.2   155  THR155      0.2287
     42  O         44.1250   57.8330   43.7030 O.2   155  THR155     -0.2866
     43  CB        44.7990   60.3340   41.8990 C.3   155  THR155      0.1770
     44  OG1       44.2980   61.4870   41.2470 O.3   155  THR155     -0.2211
     45  CG2       45.9970   59.8690   41.1150 C.3   155  THR155      0.0375
     46  N         40.3540   63.2660   38.4220 N.3   175  GLY175     -0.1210
     47  CA        40.6460   64.6750   38.5190 C.3   175  GLY175      0.1956
     48  C         40.4240   65.2750   39.9020 C.2   175  GLY175      0.2612
     49  O         40.7700   64.6680   40.8940 O.2   175  GLY175     -0.2717
     50  N         39.9240   66.5190   39.9350 N.am  176  ILE176     -0.1965
     51  CA        39.5020   67.2020   41.1590 C.3   176  ILE176      0.1727
     52  C         38.0250   67.5880   41.0070 C.2   176  ILE176      0.2616
     53  O         37.5280   67.8220   39.8800 O.2   176  ILE176     -0.2715
     54  CB        40.3820   68.4210   41.5550 C.3   176  ILE176      0.0290
     55  CG1       40.3640   69.5140   40.4750 C.3   176  ILE176      0.0022
     56  CG2       41.8160   67.9720   41.8250 C.3   176  ILE176      0.0023
     57  CD1       41.2070   70.7650   40.7820 C.3   176  ILE176      0.0001
     58  N         37.3290   67.6490   42.1270 N.am  177  VAL177     -0.1977
     59  CA        35.8830   67.8660   42.0820 C.3   177  VAL177      0.1596
     60  C         35.5860   69.2230   41.5020 C.2   177  VAL177      0.2287
     61  O         36.1580   70.2060   41.9120 O.2   177  VAL177     -0.2864
     62  CB        35.2280   67.8240   43.4830 C.3   177  VAL177      0.0276
     63  CG1       33.7180   67.7560   43.3550 C.3   177  VAL177      0.0022
     64  CG2       35.7270   66.6260   44.2720 C.3   177  VAL177      0.0022
     65  N         47.9870   66.6910   36.5380 N.3   186  ASP186     -0.1239
     66  CA        49.3030   66.1090   36.4060 C.3   186  ASP186      0.1674
     67  C         49.3030   64.6600   35.9530 C.2   186  ASP186      0.2266
     68  O         50.3150   64.1720   35.4790 O.2   186  ASP186     -0.2867
     69  CB        49.9940   66.1260   37.7550 C.3   186  ASP186      0.1410
     70  CG        49.2670   65.2680   38.7760 C.2   186  ASP186      0.3668
     71  OD1       48.0620   65.5000   39.0190 O.co2 186  ASP186     -0.2456
     72  OD2       49.8740   64.3020   39.3200 O.co2 186  ASP186     -0.2456
     73  N         49.9990   61.8090   43.7010 N.3   206  THR206     -0.1203
     74  CA        48.6010   62.1240   43.9250 C.3   206  THR206      0.1994
     75  C         48.5200   63.4930   44.5960 C.2   206  THR206      0.2618
     76  O         49.4870   63.9390   45.2100 O.2   206  THR206     -0.2717
     77  CB        47.9250   61.0490   44.8280 C.3   206  THR206      0.1784
     78  OG1       46.5100   61.2590   44.8740 O.3   206  THR206     -0.2211
     79  CG2       48.4450   61.0890   46.2450 C.3   206  THR206      0.0376
     80  N         47.3530   64.1120   44.5340 N.am  207  GLY207     -0.1942
     81  CA        47.1400   65.4420   45.1770 C.3   207  GLY207      0.2014
     82  C         46.6820   66.5520   44.2270 C.2   207  GLY207      0.2638
     83  O         46.0150   66.3090   43.2240 O.2   207  GLY207     -0.2714
     84  N         47.0460   67.7840   44.5460 N.am  208  HIS208     -0.1973
     85  CA        46.5790   68.9400   43.7600 C.3   208  HIS208      0.1656
     86  C         47.3820   69.0540   42.4610 C.2   208  HIS208      0.2291
     87  O         48.5610   69.4700   42.4460 O.2   208  HIS208     -0.2864
     88  CB        46.5950   70.2450   44.5860 C.3   208  HIS208      0.0771
     89  CG        45.8430   71.3570   43.9360 C.ar  208  HIS208      0.0820
     90  ND1       46.4330   72.5520   43.5900 N.ar  208  HIS208     -0.2267
     91  CD2       44.5730   71.4130   43.4710 C.ar  208  HIS208      0.1154
     92  CE1       45.5470   73.3100   42.9700 C.ar  208  HIS208      0.1986
     93  NE2       44.4200   72.6320   42.8570 N.ar  208  HIS208     -0.2212
@<TRIPOS>BOND
     1    68    67    2
     2    67    66    1
     3    66    65    1
     4    66    69    1
     5    69    70    1
     6    46    47    1
     7    24    23    2
     8    47    48    1
     9    70    71   ar
    10    70    72   ar
    11    23    22    1
    12    53    52    2
    13    48    50   am
    14    48    49    2
    15    50    51    1
    16    55    57    1
    17    55    54    1
    18    21    22    1
    19    27    25    1
    20    19    18    2
    21    16    15    2
    22    22    25    1
    23    15    14    1
    24    52    51    1
    25    52    58   am
    26    45    43    1
    27    51    54    1
    28    44    43    1
    29    60    61    2
    30    60    59    1
    31    25    26    1
    32    54    56    1
    33    18    20   am
    34    18    17    1
    35    40    43    1
    36    40    39    1
    37    40    41    1
    38    59    58    1
    39    59    62    1
    40    14    17    1
    41    14    13    1
    42    87    86    2
    43    86    85    1
    44    41    42    2
    45    93    92   ar
    46    93    91   ar
    47    92    90   ar
    48    83    82    2
    49    63    62    1
    50    91    89   ar
    51    62    64    1
    52    90    89   ar
    53    73    74    1
    54    85    84    1
    55    85    88    1
    56    74    75    1
    57    74    77    1
    58    89    88    1
    59    82    84   am
    60    82    81    1
    61    80    75   am
    62    80    81    1
    63    75    76    2
    64    77    78    1
    65    77    79    1
    66    30    31    2
    67    30    29    1
    68     2     3    1
    69     2     1    1
    70    37    36    1
    71     6     5    1
    72     6     7    1
    73     3     5   am
    74     3     4    2
    75    32    29    1
    76    32    33    1
    77    28    29    1
    78    36    38    1
    79    36    35    2
    80    34    35    1
    81    34    33    1
    82     7     9   am
    83     7     8    2
    84     9    10    1
    85    12    11    2
    86    10    11    1
