@<TRIPOS>MOLECULE
tmp/4zm9D00.pdb
 94 84 0 0 0
SMALL
GASTEIGER

@<TRIPOS>ATOM
      1  N         62.0310   76.8360   16.0820 N.3    10  GLY10      -0.1210
      2  CA        61.8040   75.4290   15.8160 C.3    10  GLY10       0.1956
      3  C         62.9290   74.8620   15.0180 C.2    10  GLY10       0.2612
      4  O         63.5090   75.5540   14.2020 O.2    10  GLY10      -0.2717
      5  N         63.2810   73.6110   15.2860 N.am   11  GLY11      -0.1942
      6  CA        64.3440   72.9070   14.5200 C.3    11  GLY11       0.2014
      7  C         63.9130   72.6260   13.0950 C.2    11  GLY11       0.2638
      8  O         62.7210   72.6850   12.7880 O.2    11  GLY11      -0.2714
      9  N         64.8820   72.3580   12.2280 N.am   12  ALA12      -0.1977
     10  CA        64.6100   72.0690   10.8220 C.3    12  ALA12       0.1597
     11  C         65.7650   71.3200   10.1870 C.2    12  ALA12       0.2287
     12  O         66.8500   71.1700   10.7980 O.2    12  ALA12      -0.2864
     13  CB        64.3340   73.3640   10.0420 C.3    12  ALA12       0.0319
     14  N         56.0770   76.8550   12.5000 N.3    62  ASN62      -0.1240
     15  CA        55.1080   75.7970   12.8990 C.3    62  ASN62       0.1653
     16  C         54.5170   76.1100   14.2840 C.2    62  ASN62       0.2266
     17  O         54.9450   75.5760   15.2830 O.2    62  ASN62      -0.2867
     18  CB        55.7570   74.4090   12.8480 C.3    62  ASN62       0.1155
     19  CG        54.8970   73.3030   13.4810 C.2    62  ASN62       0.2627
     20  OD1       53.6520   73.3430   13.5060 O.2    62  ASN62      -0.2716
     21  ND2       55.5700   72.3070   14.0160 N.am   62  ASN62      -0.0877
     22  N         52.0220   72.7920   11.1490 N.3    68  VAL68      -0.1245
     23  CA        52.0040   71.5380   10.4220 C.3    68  VAL68       0.1561
     24  C         50.6190   70.9320   10.5470 C.2    68  VAL68       0.2260
     25  O         49.8470   71.2630   11.4520 O.2    68  VAL68      -0.2867
     26  CB        53.0780   70.5480   10.8950 C.3    68  VAL68       0.0252
     27  CG1       54.4790   71.1340   10.7340 C.3    68  VAL68       0.0019
     28  CG2       52.8870   70.1780   12.3490 C.3    68  VAL68       0.0019
     29  N         53.9600   69.2190    2.5560 N.3   147  ARG147     -0.1245
     30  CA        54.7480   68.5580    3.6070 C.3   147  ARG147      0.1563
     31  C         53.9930   67.3110    4.1280 C.2   147  ARG147      0.2260
     32  O         54.5680   66.2540    4.2730 O.2   147  ARG147     -0.2867
     33  CB        55.0430   69.5420    4.7500 C.3   147  ARG147      0.0307
     34  CG        56.4960   69.9390    4.8150 C.3   147  ARG147      0.0489
     35  CD        56.8050   70.6050    6.1660 C.3   147  ARG147      0.2205
     36  NE        57.6800   69.7400    6.9860 N.pl3 147  ARG147     -0.0865
     37  CZ        58.0650   69.9940    8.2360 C.cat 147  ARG147      0.5346
     38  NH1       58.8890   69.1480    8.8540 N.pl3 147  ARG147      0.1354
     39  NH2       57.6150   71.0660    8.8800 N.pl3 147  ARG147      0.1354
     40  N         57.3440   74.5060   15.8520 N.3   155  THR155     -0.1218
     41  CA        57.3670   75.0100   17.2020 C.3   155  THR155      0.1862
     42  C         58.1320   76.3160   17.3240 C.2   155  THR155      0.2287
     43  O         59.1130   76.5060   16.6180 O.2   155  THR155     -0.2866
     44  CB        57.9490   73.9780   18.1670 C.3   155  THR155      0.1770
     45  OG1       57.1320   72.8360   18.0700 O.3   155  THR155     -0.2211
     46  CG2       57.8970   74.4620   19.6160 C.3   155  THR155      0.0375
     47  N         52.6630   70.9810   16.2090 N.3   175  GLY175     -0.1210
     48  CA        52.9210   69.5780   16.3710 C.3   175  GLY175      0.1956
     49  C         53.9730   68.9900   15.4720 C.2   175  GLY175      0.2612
     50  O         55.0040   69.5880   15.2780 O.2   175  GLY175     -0.2717
     51  N         53.7560   67.7430   15.0560 N.am  176  ILE176     -0.1965
     52  CA        54.6030   67.0530   14.0550 C.3   176  ILE176      0.1727
     53  C         53.7180   66.6250   12.9020 C.2   176  ILE176      0.2616
     54  O         52.5010   66.3960   13.0540 O.2   176  ILE176     -0.2715
     55  CB        55.4040   65.8580   14.6060 C.3   176  ILE176      0.0290
     56  CG1       54.4780   64.7610   15.1780 C.3   176  ILE176      0.0022
     57  CG2       56.3850   66.3340   15.6730 C.3   176  ILE176      0.0023
     58  CD1       55.2180   63.5180   15.7300 C.3   176  ILE176      0.0001
     59  N         54.3180   66.5700   11.7320 N.am  177  VAL177     -0.1977
     60  CA        53.5280   66.3640   10.5030 C.3   177  VAL177      0.1596
     61  C         52.8800   64.9900   10.5310 C.2   177  VAL177      0.2287
     62  O         53.5540   64.0030   10.8330 O.2   177  VAL177     -0.2864
     63  CB        54.3950   66.4170    9.2340 C.3   177  VAL177      0.0276
     64  CG1       53.4980   66.4640    8.0140 C.3   177  VAL177      0.0022
     65  CG2       55.3210   67.6220    9.2490 C.3   177  VAL177      0.0022
     66  N         55.1320   67.6310   23.6850 N.3   186  ASP186     -0.1239
     67  CA        55.7000   68.2330   24.8520 C.3   186  ASP186      0.1674
     68  C         55.3240   69.6910   25.1010 C.2   186  ASP186      0.2266
     69  O         55.4240   70.1590   26.2230 O.2   186  ASP186     -0.2867
     70  CB        57.2230   68.2150   24.7460 C.3   186  ASP186      0.1410
     71  CG        57.7070   69.0850   23.6050 C.2   186  ASP186      0.3668
     72  OD1       57.2830   68.8260   22.4530 O.co2 186  ASP186     -0.2456
     73  OD2       58.4710   70.0560   23.8470 O.co2 186  ASP186     -0.2456
     74  N         62.2490   72.5990   21.6120 N.3   206  THR206     -0.1203
     75  CA        61.6980   72.2560   20.3430 C.3   206  THR206      0.1994
     76  C         62.2530   70.9030   19.9420 C.2   206  THR206      0.2618
     77  O         63.2940   70.4630   20.4480 O.2   206  THR206     -0.2717
     78  CB        62.1070   73.3310   19.2890 C.3   206  THR206      0.1784
     79  OG1       61.4030   73.1230   18.0820 O.3   206  THR206     -0.2211
     80  CG2       63.5870   73.2870   18.9750 C.3   206  THR206      0.0376
     81  N         61.6010   70.2520   18.9980 N.am  207  GLY207     -0.1956
     82  CA        62.0780   68.9200   18.4760 C.3   207  GLY207      0.1869
     83  C         61.0560   67.8080   18.5590 C.2   207  GLY207      0.2309
     84  O         59.8380   68.0440   18.5560 O.2   207  GLY207     -0.2863
     85  N         66.3640   67.6100   18.9330 N.3   250  GLY250     -0.1225
     86  CA        65.6630   68.8500   19.0960 C.3   250  GLY250      0.1811
     87  C         66.6040   69.9350   19.4870 C.2   250  GLY250      0.2280
     88  O         67.7980   69.9320   19.1230 O.2   250  GLY250     -0.2866
     89  N         69.3890   68.9790   15.9020 N.3   267  SER267     -0.1217
     90  CA        68.8970   68.8850   14.5320 C.3   267  SER267      0.1889
     91  C         69.8870   69.6650   13.6620 C.2   267  SER267      0.2288
     92  O         70.8790   70.1600   14.1480 O.2   267  SER267     -0.2866
     93  CB        67.5000   69.4900   14.4440 C.3   267  SER267      0.2089
     94  OG        67.4830   70.7190   15.1210 O.3   267  SER267     -0.2183
@<TRIPOS>BOND
     1    29    30    1
     2    30    31    1
     3    30    33    1
     4    31    32    2
     5    33    34    1
     6    34    35    1
     7    35    36    1
     8    36    37    2
     9    64    63    1
    10    37    38    1
    11    37    39    1
    12    63    65    1
    13    63    60    1
    14    13    10    1
    15    11    12    2
    16    11    10    1
    17    23    24    1
    18    23    26    1
    19    23    22    1
    20    60    61    1
    21    60    59    1
    22    61    62    2
    23    24    25    2
    24    27    26    1
    25    10     9    1
    26    26    28    1
    27    59    53   am
    28     9     7   am
    29    14    15    1
    30     8     7    2
    31    18    15    1
    32    18    19    1
    33    15    16    1
    34    53    54    2
    35    53    52    1
    36     7     6    1
    37    19    20    2
    38    19    21   am
    39    91    92    2
    40    91    90    1
    41    52    55    1
    42    52    51    1
    43     4     3    2
    44    16    17    2
    45    93    90    1
    46    93    94    1
    47     6     5    1
    48    90    89    1
    49    55    56    1
    50    55    57    1
    51     3     5   am
    52     3     2    1
    53    51    49   am
    54    56    58    1
    55    50    49    2
    56    49    48    1
    57     2     1    1
    58    40    41    1
    59    47    48    1
    60    43    42    2
    61    41    42    1
    62    41    44    1
    63    45    44    1
    64    79    78    1
    65    44    46    1
    66    82    83    1
    67    82    81    1
    68    84    83    2
    69    85    86    1
    70    80    78    1
    71    81    76   am
    72    86    87    1
    73    88    87    2
    74    78    75    1
    75    76    75    1
    76    76    77    2
    77    75    74    1
    78    72    71   ar
    79    71    73   ar
    80    71    70    1
    81    66    67    1
    82    70    67    1
    83    67    68    1
    84    68    69    2
