@<TRIPOS>MOLECULE
tmp/4zmeA00.pdb
 117 111 0 0 0
SMALL
GASTEIGER

@<TRIPOS>ATOM
      1  N         21.6410  -12.7540   13.2230 N.3    36  PHE36      -0.1227
      2  CA        20.8550  -11.5180   13.3660 C.3    36  PHE36       0.1736
      3  C         19.3920  -11.6790   12.9700 C.2    36  PHE36       0.2595
      4  O         18.6040  -10.7460   13.1190 O.2    36  PHE36      -0.2718
      5  CB        21.4620  -10.3600   12.5600 C.3    36  PHE36       0.0547
      6  CG        21.2900  -10.4780   11.0510 C.ar   36  PHE36      -0.0202
      7  CD1       22.2240  -11.1750   10.2850 C.ar   36  PHE36      -0.0042
      8  CD2       20.2310   -9.8600   10.4060 C.ar   36  PHE36      -0.0042
      9  CE1       22.0800  -11.2890    8.9100 C.ar   36  PHE36      -0.0003
     10  CE2       20.0810   -9.9670    9.0310 C.ar   36  PHE36      -0.0003
     11  CZ        21.0140  -10.6740    8.2780 C.ar   36  PHE36      -0.0000
     12  N         19.0260  -12.8430   12.4600 N.am   37  ALA37      -0.1966
     13  CA        17.6500  -13.0950   12.0520 C.3    37  ALA37       0.1728
     14  C         17.4590  -14.5730   11.8530 C.2    37  ALA37       0.2616
     15  O         18.4340  -15.3290   11.7540 O.2    37  ALA37      -0.2715
     16  CB        17.3430  -12.3530   10.7640 C.3    37  ALA37       0.0334
     17  N         16.2050  -15.0000   11.7830 N.am   38  GLU38      -0.1963
     18  CA        15.9120  -16.3910   11.4550 C.3    38  GLU38       0.1733
     19  C         14.5970  -16.5610   10.7300 C.2    38  GLU38       0.2616
     20  O         13.7050  -15.7240   10.8370 O.2    38  GLU38      -0.2715
     21  CB        15.9410  -17.2630   12.7010 C.3    38  GLU38       0.0429
     22  CG        14.8520  -16.9700   13.7020 C.3    38  GLU38       0.1163
     23  CD        14.6240  -18.1210   14.6700 C.2    38  GLU38       0.3649
     24  OE1       15.3400  -19.1490   14.5940 O.co2  38  GLU38      -0.2457
     25  OE2       13.7140  -17.9990   15.5110 O.co2  38  GLU38      -0.2457
     26  N         14.5090  -17.6440    9.9680 N.am   39  GLY39      -0.1955
     27  CA        13.2920  -18.0250    9.2730 C.3    39  GLY39       0.1869
     28  C         12.8350  -19.3530    9.8300 C.2    39  GLY39       0.2309
     29  O         13.2530  -19.7630   10.9210 O.2    39  GLY39      -0.2863
     30  N         20.3120  -16.4550    9.7470 N.3    44  ALA44      -0.1245
     31  CA        21.2060  -15.5870    8.9970 C.3    44  ALA44       0.1562
     32  C         22.2590  -14.9660    9.8890 C.2    44  ALA44       0.2260
     33  O         21.9560  -14.4750   10.9770 O.2    44  ALA44      -0.2867
     34  CB        20.4090  -14.4950    8.2950 C.3    44  ALA44       0.0290
     35  N         25.8840  -11.8830    3.8790 N.3    93  VAL93      -0.1245
     36  CA        25.0190  -12.6850    4.7170 C.3    93  VAL93       0.1561
     37  C         25.2690  -14.1730    4.4720 C.2    93  VAL93       0.2260
     38  O         25.3210  -14.6230    3.3240 O.2    93  VAL93      -0.2867
     39  CB        23.5400  -12.3590    4.4620 C.3    93  VAL93       0.0252
     40  CG1       22.6040  -13.2990    5.2150 C.3    93  VAL93       0.0019
     41  CG2       23.2540  -10.9210    4.8660 C.3    93  VAL93       0.0019
     42  N         23.7070  -18.0730    5.5130 N.3    95  LYS95      -0.1245
     43  CA        22.5350  -18.7710    6.0280 C.3    95  LYS95       0.1561
     44  C         22.8430  -20.2370    6.2890 C.2    95  LYS95       0.2260
     45  O         23.3880  -20.9240    5.4280 O.2    95  LYS95      -0.2867
     46  CB        21.3710  -18.6480    5.0610 C.3    95  LYS95       0.0271
     47  CG        20.9690  -17.2000    4.8420 C.3    95  LYS95       0.0035
     48  CD        19.7120  -17.0550    4.0270 C.3    95  LYS95       0.0206
     49  CE        19.4900  -15.5860    3.7110 C.3    95  LYS95       0.1093
     50  NZ        18.3230  -15.3470    2.8120 N.3    95  LYS95      -0.1314
     51  N         19.3860  -10.9590   -6.0260 N.3   136  LEU136     -0.1245
     52  CA        20.7770  -11.0570   -5.6320 C.3   136  LEU136      0.1561
     53  C         21.3980  -12.3590   -6.1460 C.2   136  LEU136      0.2260
     54  O         20.7130  -13.3520   -6.2910 O.2   136  LEU136     -0.2867
     55  CB        20.8790  -11.0700   -4.1080 C.3   136  LEU136      0.0270
     56  CG        20.4340   -9.8570   -3.2900 C.3   136  LEU136      0.0019
     57  CD1       20.6030  -10.2020   -1.8130 C.3   136  LEU136      0.0001
     58  CD2       21.2260   -8.6100   -3.6560 C.3   136  LEU136      0.0001
     59  N         25.0350  -14.7440    0.4250 N.3   160  GLU160     -0.1231
     60  CA        24.4830  -13.7720   -0.5250 C.3   160  GLU160      0.1684
     61  C         24.8040  -12.3700   -0.0430 C.2   160  GLU160      0.2434
     62  O         25.1930  -12.2150    1.0990 O.2   160  GLU160     -0.2733
     63  CB        22.9780  -13.9580   -0.6550 C.3   160  GLU160      0.0402
     64  CG        22.2410  -13.7270    0.6570 C.3   160  GLU160      0.1161
     65  CD        20.8270  -14.2550    0.6480 C.2   160  GLU160      0.3649
     66  OE1       19.8760  -13.4600    0.7910 O.co2 160  GLU160     -0.2457
     67  OE2       20.6570  -15.4770    0.5420 O.co2 160  GLU160     -0.2457
     68  N         24.6460  -11.3610   -0.9040 N.am  161  PRO161     -0.2718
     69  CA        24.9530   -9.9930   -0.4850 C.3   161  PRO161      0.1535
     70  C         24.0260   -9.5010    0.5990 C.2   161  PRO161      0.2598
     71  O         22.9360  -10.0610    0.7870 O.2   161  PRO161     -0.2715
     72  CB        24.7410   -9.1750   -1.7610 C.3   161  PRO161      0.0310
     73  CG        24.9840  -10.1400   -2.8680 C.3   161  PRO161      0.0237
     74  CD        24.3690  -11.4190   -2.3490 C.3   161  PRO161      0.0939
     75  N         24.4960   -8.4860    1.3250 N.am  162  LEU162     -0.1964
     76  CA        23.7510   -7.9010    2.4290 C.3   162  LEU162      0.1728
     77  C         22.7400   -6.8990    1.8930 C.2   162  LEU162      0.2616
     78  O         23.1120   -5.9970    1.1590 O.2   162  LEU162     -0.2715
     79  CB        24.6980   -7.1720    3.3760 C.3   162  LEU162      0.0311
     80  CG        24.0210   -6.3460    4.4910 C.3   162  LEU162      0.0022
     81  CD1       23.2310   -7.2410    5.4180 C.3   162  LEU162      0.0001
     82  CD2       25.0370   -5.5310    5.2660 C.3   162  LEU162      0.0001
     83  N         21.4720   -7.0920    2.2140 N.am  163  LEU163     -0.1977
     84  CA        20.4660   -6.0970    1.8880 C.3   163  LEU163      0.1596
     85  C         20.4040   -5.0680    3.0130 C.2   163  LEU163      0.2287
     86  O         20.2290   -5.4300    4.1690 O.2   163  LEU163     -0.2864
     87  CB        19.0880   -6.7370    1.7310 C.3   163  LEU163      0.0297
     88  CG        18.9180   -7.6400    0.5050 C.3   163  LEU163      0.0022
     89  CD1       17.5980   -8.3740    0.6170 C.3   163  LEU163      0.0001
     90  CD2       18.9620   -6.8510   -0.7860 C.3   163  LEU163      0.0001
     91  N         13.2780   -5.2000    5.1540 N.3   167  PHE167     -0.1241
     92  CA        13.0570   -6.4440    4.4400 C.3   167  PHE167      0.1605
     93  C         11.5870   -6.8150    4.5480 C.2   167  PHE167      0.2264
     94  O         11.0540   -6.8840    5.6490 O.2   167  PHE167     -0.2867
     95  CB        13.9250   -7.5360    5.0550 C.3   167  PHE167      0.0534
     96  CG        14.0420   -8.7870    4.2130 C.ar  167  PHE167     -0.0203
     97  CD1       12.9940   -9.7010    4.1440 C.ar  167  PHE167     -0.0042
     98  CD2       15.2300   -9.0920    3.5450 C.ar  167  PHE167     -0.0042
     99  CE1       13.1110  -10.8550    3.3970 C.ar  167  PHE167     -0.0003
    100  CE2       15.3400  -10.2480    2.7900 C.ar  167  PHE167     -0.0003
    101  CZ        14.2830  -11.1280    2.7210 C.ar  167  PHE167     -0.0000
    102  N         10.4720  -11.6530   -2.0470 N.3   205  GLN205     -0.1245
    103  CA        10.8120  -10.9680   -0.8170 C.3   205  GLN205      0.1566
    104  C         12.1650  -10.3040   -0.9380 C.2   205  GLN205      0.2260
    105  O         13.0740  -10.7920   -1.6580 O.2   205  GLN205     -0.2867
    106  CB        10.8210  -11.9710    0.3250 C.3   205  GLN205      0.0367
    107  CG        11.7500  -13.1410    0.1060 C.3   205  GLN205      0.0905
    108  CD        11.6150  -14.2030    1.1740 C.2   205  GLN205      0.2608
    109  OE1       11.4100  -13.8910    2.3480 O.2   205  GLN205     -0.2717
    110  NE2       11.7400  -15.4750    0.7790 N.am  205  GLN205     -0.0878
    111  N         15.5010  -11.7170   -2.8540 N.3   212  THR212     -0.1218
    112  CA        16.3190  -12.8610   -2.5180 C.3   212  THR212      0.1862
    113  C         15.4380  -13.9980   -2.0380 C.2   212  THR212      0.2287
    114  O         14.2520  -13.8220   -1.7480 O.2   212  THR212     -0.2866
    115  CB        17.4160  -12.5170   -1.4800 C.3   212  THR212      0.1770
    116  OG1       18.3900  -13.5740   -1.4400 O.3   212  THR212     -0.2211
    117  CG2       16.8360  -12.2960   -0.1030 C.3   212  THR212      0.0375
@<TRIPOS>BOND
     1    54    53    2
     2    53    52    1
     3    51    52    1
     4    52    55    1
     5    55    56    1
     6    58    56    1
     7    56    57    1
     8    73    74    1
     9    73    72    1
    10   111   112    1
    11   112   113    1
    12   112   115    1
    13    74    68    1
    14   102   103    1
    15   113   114    2
    16    72    69    1
    17   105   104    2
    18   115   116    1
    19   115   117    1
    20   104   103    1
    21    68    69    1
    22    68    61   am
    23   103   106    1
    24    90    88    1
    25    63    60    1
    26    63    64    1
    27    60    61    1
    28    60    59    1
    29    69    70    1
    30    61    62    2
    31   107   106    1
    32   107   108    1
    33    88    89    1
    34    88    87    1
    35    67    65   ar
    36    70    71    2
    37    70    75   am
    38    65    64    1
    39    65    66   ar
    40   110   108   am
    41    78    77    2
    42   108   109    2
    43    75    76    1
    44    87    84    1
    45    84    83    1
    46    84    85    1
    47    77    83   am
    48    77    76    1
    49    76    79    1
    50   101   100   ar
    51   101    99   ar
    52   100    98   ar
    53    50    49    1
    54    85    86    2
    55    38    37    2
    56    79    80    1
    57    99    97   ar
    58    98    96   ar
    59    49    48    1
    60    35    36    1
    61    48    47    1
    62    97    96   ar
    63    96    95    1
    64    92    93    1
    65    92    95    1
    66    92    91    1
    67    39    36    1
    68    39    41    1
    69    39    40    1
    70    37    36    1
    71    80    82    1
    72    80    81    1
    73    93    94    2
    74    47    46    1
    75    46    43    1
    76    45    44    2
    77    42    43    1
    78    43    44    1
    79    11     9   ar
    80    11    10   ar
    81    34    31    1
    82     9     7   ar
    83    31    30    1
    84    31    32    1
    85    10     8   ar
    86    27    28    1
    87    27    26    1
    88    28    29    2
    89    32    33    2
    90    26    19   am
    91     7     6   ar
    92     8     6   ar
    93    19    20    2
    94    19    18    1
    95    16    13    1
    96     6     5    1
    97    18    17    1
    98    18    21    1
    99    15    14    2
   100    17    14   am
   101    14    13    1
   102    13    12    1
   103    12     3   am
   104     5     2    1
   105    21    22    1
   106     3     4    2
   107     3     2    1
   108     1     2    1
   109    22    23    1
   110    24    23   ar
   111    23    25   ar
