@<TRIPOS>MOLECULE
tmp/4zmfB00.pdb
 150 145 0 0 0
SMALL
GASTEIGER

@<TRIPOS>ATOM
      1  N        -21.2720   12.3360   13.4100 N.3    35  PHE35      -0.1227
      2  CA       -20.4880   11.0970   13.5140 C.3    35  PHE35       0.1736
      3  C        -19.0410   11.2700   13.0650 C.2    35  PHE35       0.2595
      4  O        -18.2560   10.3370   13.1440 O.2    35  PHE35      -0.2718
      5  CB       -21.1240    9.9580   12.6980 C.3    35  PHE35       0.0547
      6  CG       -21.0430   10.1380   11.1910 C.ar   35  PHE35      -0.0202
      7  CD1      -22.0650   10.7860   10.5170 C.ar   35  PHE35      -0.0042
      8  CD2      -19.9710    9.6380   10.4500 C.ar   35  PHE35      -0.0042
      9  CE1      -22.0240   10.9570    9.1400 C.ar   35  PHE35      -0.0003
     10  CE2      -19.9260    9.8050    9.0670 C.ar   35  PHE35      -0.0003
     11  CZ       -20.9500   10.4730    8.4140 C.ar   35  PHE35      -0.0000
     12  N        -18.6900   12.4420   12.5610 N.am   36  ALA36      -0.1966
     13  CA       -17.2980   12.7350   12.2320 C.3    36  ALA36       0.1728
     14  C        -17.0820   14.2310   12.0810 C.2    36  ALA36       0.2616
     15  O        -18.0380   14.9960   11.9210 O.2    36  ALA36      -0.2715
     16  CB       -16.8840   12.0090   10.9690 C.3    36  ALA36       0.0334
     17  N        -15.8270   14.6480   12.1650 N.am   37  GLU37      -0.1963
     18  CA       -15.4730   16.0130   11.8380 C.3    37  GLU37       0.1733
     19  C        -14.1270   16.0660   11.1180 C.2    37  GLU37       0.2617
     20  O        -13.2470   15.2260   11.3440 O.2    37  GLU37      -0.2715
     21  CB       -15.4650   16.9050   13.0830 C.3    37  GLU37       0.0429
     22  CG       -14.2710   16.7090   14.0090 C.3    37  GLU37       0.1163
     23  CD       -14.1080   17.8180   15.0500 C.2    37  GLU37       0.3649
     24  OE1      -14.5970   18.9480   14.8290 O.co2  37  GLU37      -0.2457
     25  OE2      -13.4750   17.5580   16.0950 O.co2  37  GLU37      -0.2457
     26  N        -14.0130   17.0380   10.2140 N.am   38  GLY38      -0.1940
     27  CA       -12.7450   17.4230    9.6000 C.3    38  GLY38       0.2014
     28  C        -12.3440   18.7810   10.1590 C.2    38  GLY38       0.2639
     29  O        -12.8420   19.2000   11.2080 O.2    38  GLY38      -0.2714
     30  N        -11.4650   19.4760    9.4480 N.am   39  ALA39      -0.1963
     31  CA       -10.9400   20.7680    9.9040 C.3    39  ALA39       0.1728
     32  C        -12.0240   21.8520   10.0310 C.2    39  ALA39       0.2616
     33  O        -11.9960   22.6540   10.9700 O.2    39  ALA39      -0.2715
     34  CB        -9.8290   21.2350    8.9700 C.3    39  ALA39       0.0334
     35  N        -12.9850   21.8550    9.1020 N.am   40  LEU40      -0.1963
     36  CA       -13.9860   22.9420    8.9960 C.3    40  LEU40       0.1728
     37  C        -15.4540   22.5320    9.1960 C.2    40  LEU40       0.2616
     38  O        -16.2880   23.3680    9.5490 O.2    40  LEU40      -0.2715
     39  CB       -13.8420   23.6250    7.6280 C.3    40  LEU40       0.0311
     40  CG       -12.4330   24.1220    7.2490 C.3    40  LEU40       0.0022
     41  CD1      -12.3860   24.5830    5.7990 C.3    40  LEU40       0.0001
     42  CD2      -11.9700   25.2390    8.1920 C.3    40  LEU40       0.0001
     43  N        -15.7810   21.2600    8.9530 N.am   41  ARG41      -0.1963
     44  CA       -17.1800   20.8250    8.9220 C.3    41  ARG41       0.1729
     45  C        -17.4420   19.6130    9.7940 C.2    41  ARG41       0.2616
     46  O        -16.5300   18.8880   10.1530 O.2    41  ARG41      -0.2715
     47  CB       -17.5830   20.4750    7.5000 C.3    41  ARG41       0.0348
     48  CG       -17.3060   21.5630    6.4830 C.3    41  ARG41       0.0492
     49  CD       -17.8980   21.2310    5.1180 C.3    41  ARG41       0.2205
     50  NE       -17.1340   20.1920    4.4400 N.pl3  41  ARG41      -0.0865
     51  CZ       -17.3260   19.8110    3.1810 C.cat  41  ARG41       0.5346
     52  NH1      -18.2770   20.3750    2.4460 N.pl3  41  ARG41       0.1354
     53  NH2      -16.5710   18.8500    2.6580 N.pl3  41  ARG41       0.1354
     54  N        -18.7050   19.3900   10.1130 N.am   42  GLU42      -0.1963
     55  CA       -19.1200   18.1650   10.7680 C.3    42  GLU42       0.1733
     56  C        -20.0790   17.3890    9.8530 C.2    42  GLU42       0.2616
     57  O        -20.8540   17.9860    9.1080 O.2    42  GLU42      -0.2715
     58  CB       -19.8060   18.4990   12.0890 C.3    42  GLU42       0.0429
     59  CG       -18.8730   19.0950   13.1450 C.3    42  GLU42       0.1163
     60  CD       -19.6100   19.8290   14.2720 C.2    42  GLU42       0.3649
     61  OE1      -20.8120   20.1780   14.1050 O.co2  42  GLU42      -0.2457
     62  OE2      -18.9720   20.0570   15.3310 O.co2  42  GLU42      -0.2457
     63  N        -20.0270   16.0600    9.9120 N.am   43  ALA43      -0.1977
     64  CA       -20.9000   15.2070    9.1210 C.3    43  ALA43       0.1597
     65  C        -21.9400   14.5550    9.9940 C.2    43  ALA43       0.2287
     66  O        -21.6000   14.0590   11.0450 O.2    43  ALA43      -0.2864
     67  CB       -20.0800   14.1390    8.4290 C.3    43  ALA43       0.0319
     68  N        -25.5950   11.6150    4.0430 N.3    92  VAL92      -0.1245
     69  CA       -24.7640   12.4340    4.9150 C.3    92  VAL92       0.1561
     70  C        -24.9910   13.9170    4.6510 C.2    92  VAL92       0.2260
     71  O        -25.1600   14.3430    3.5050 O.2    92  VAL92      -0.2867
     72  CB       -23.2840   12.0910    4.7050 C.3    92  VAL92       0.0252
     73  CG1      -22.3530   13.0470    5.4470 C.3    92  VAL92       0.0019
     74  CG2      -23.0060   10.6480    5.1440 C.3    92  VAL92       0.0019
     75  N        -23.4290   17.8000    5.6950 N.3    94  LYS94      -0.1245
     76  CA       -22.2280   18.4360    6.1980 C.3    94  LYS94       0.1561
     77  C        -22.4870   19.8910    6.4790 C.2    94  LYS94       0.2260
     78  O        -22.9240   20.6170    5.6000 O.2    94  LYS94      -0.2867
     79  CB       -21.0750   18.2890    5.2080 C.3    94  LYS94       0.0271
     80  CG       -20.6110   16.8450    5.0530 C.3    94  LYS94       0.0035
     81  CD       -19.5470   16.7120    3.9760 C.3    94  LYS94       0.0206
     82  CE       -19.2080   15.2550    3.6890 C.3    94  LYS94       0.1093
     83  NZ       -18.0080   15.1030    2.8020 N.3    94  LYS94      -0.1314
     84  N        -18.9960   10.7860   -5.9760 N.3   135  LEU135     -0.1245
     85  CA       -20.3680   10.9020   -5.5200 C.3   135  LEU135      0.1561
     86  C        -21.0160   12.2000   -5.9930 C.2   135  LEU135      0.2260
     87  O        -20.3460   13.2450   -6.1280 O.2   135  LEU135     -0.2867
     88  CB       -20.4110   10.8890   -3.9910 C.3   135  LEU135      0.0270
     89  CG       -19.9870    9.6040   -3.2740 C.3   135  LEU135      0.0019
     90  CD1      -20.0810    9.8320   -1.7800 C.3   135  LEU135      0.0001
     91  CD2      -20.8440    8.4250   -3.6800 C.3   135  LEU135      0.0001
     92  N        -24.7320   14.4690    0.5630 N.3   157  GLU157     -0.1231
     93  CA       -24.1580   13.5000   -0.3870 C.3   157  GLU157      0.1684
     94  C        -24.4660   12.0880    0.1320 C.2   157  GLU157      0.2434
     95  O        -24.8460   11.9540    1.2860 O.2   157  GLU157     -0.2733
     96  CB       -22.6530   13.6990   -0.5430 C.3   157  GLU157      0.0402
     97  CG       -21.8830   13.6390    0.7660 C.3   157  GLU157      0.1161
     98  CD       -20.4500   14.1090    0.6270 C.2   157  GLU157      0.3649
     99  OE1      -19.5390   13.2630    0.6460 O.co2 157  GLU157     -0.2457
    100  OE2      -20.2100   15.3250    0.5360 O.co2 157  GLU157     -0.2457
    101  N        -24.3280   11.0480   -0.7120 N.am  158  PRO158     -0.2718
    102  CA       -24.6030    9.6860   -0.2770 C.3   158  PRO158      0.1535
    103  C        -23.6510    9.2250    0.8060 C.2   158  PRO158      0.2598
    104  O        -22.5570    9.7980    0.9780 O.2   158  PRO158     -0.2715
    105  CB       -24.3870    8.8500   -1.5410 C.3   158  PRO158      0.0310
    106  CG       -24.5800    9.8040   -2.6580 C.3   158  PRO158      0.0237
    107  CD       -24.0230   11.0970   -2.1450 C.3   158  PRO158      0.0939
    108  N        -24.0780    8.1850    1.5160 N.am  159  LEU159     -0.1964
    109  CA       -23.2670    7.5960    2.5810 C.3   159  LEU159      0.1728
    110  C        -22.2270    6.6840    1.9620 C.2   159  LEU159      0.2616
    111  O        -22.5540    5.8320    1.1430 O.2   159  LEU159     -0.2715
    112  CB       -24.1580    6.8220    3.5470 C.3   159  LEU159      0.0311
    113  CG       -23.4750    6.1340    4.7490 C.3   159  LEU159      0.0022
    114  CD1      -22.8330    7.0980    5.7310 C.3   159  LEU159      0.0001
    115  CD2      -24.5080    5.2580    5.4500 C.3   159  LEU159      0.0001
    116  N        -20.9650    6.9120    2.2920 N.am  160  LEU160     -0.1977
    117  CA       -19.9110    5.9620    1.9350 C.3   160  LEU160      0.1596
    118  C        -19.8030    4.8890    3.0260 C.2   160  LEU160      0.2287
    119  O        -19.6160    5.2140    4.1880 O.2   160  LEU160     -0.2864
    120  CB       -18.5640    6.6570    1.8310 C.3   160  LEU160      0.0297
    121  CG       -18.3710    7.5620    0.6490 C.3   160  LEU160      0.0022
    122  CD1      -17.1460    8.4320    0.8560 C.3   160  LEU160      0.0001
    123  CD2      -18.2530    6.7400   -0.6100 C.3   160  LEU160      0.0001
    124  N        -12.7680    5.1940    5.2450 N.3   164  PHE164     -0.1241
    125  CA       -12.5490    6.4130    4.4990 C.3   164  PHE164      0.1605
    126  C        -11.0860    6.7860    4.5450 C.2   164  PHE164      0.2264
    127  O        -10.5580    7.0330    5.6140 O.2   164  PHE164     -0.2867
    128  CB       -13.3860    7.5290    5.1340 C.3   164  PHE164      0.0534
    129  CG       -13.4720    8.7930    4.3130 C.ar  164  PHE164     -0.0203
    130  CD1      -12.4440    9.7280    4.3340 C.ar  164  PHE164     -0.0042
    131  CD2      -14.6190    9.0680    3.5610 C.ar  164  PHE164     -0.0042
    132  CE1      -12.5430   10.8930    3.5930 C.ar  164  PHE164     -0.0003
    133  CE2      -14.7140   10.2220    2.8170 C.ar  164  PHE164     -0.0003
    134  CZ       -13.6770   11.1400    2.8280 C.ar  164  PHE164     -0.0000
    135  N        -10.1080   11.5370   -2.0920 N.3   202  GLN202     -0.1245
    136  CA       -10.3930   10.8590   -0.8530 C.3   202  GLN202      0.1566
    137  C        -11.7430   10.2060   -0.8860 C.2   202  GLN202      0.2260
    138  O        -12.6540   10.6970   -1.5510 O.2   202  GLN202     -0.2867
    139  CB       -10.3690   11.8350    0.2940 C.3   202  GLN202      0.0367
    140  CG       -11.3590   12.9740    0.1610 C.3   202  GLN202      0.0905
    141  CD       -11.0540   14.1030    1.1300 C.2   202  GLN202      0.2608
    142  OE1      -10.6550   13.8650    2.2580 O.2   202  GLN202     -0.2717
    143  NE2      -11.2620   15.3300    0.6970 N.am  202  GLN202     -0.0878
    144  N        -15.1000   11.5880   -2.7450 N.3   209  THR209     -0.1218
    145  CA       -15.8950   12.7430   -2.4160 C.3   209  THR209      0.1862
    146  C        -15.0260   13.8930   -1.9270 C.2   209  THR209      0.2287
    147  O        -13.8680   13.6920   -1.6270 O.2   209  THR209     -0.2866
    148  CB       -16.9840   12.3820   -1.3980 C.3   209  THR209      0.1770
    149  OG1      -17.9640   13.4260   -1.3680 O.3   209  THR209     -0.2211
    150  CG2      -16.4020   12.1600    0.0060 C.3   209  THR209      0.0375
@<TRIPOS>BOND
     1    87    86    2
     2    86    85    1
     3    84    85    1
     4    85    88    1
     5    88    89    1
     6    91    89    1
     7    89    90    1
     8   144   145    1
     9   106   107    1
    10   106   105    1
    11   145   146    1
    12   145   148    1
    13   107   101    1
    14   135   136    1
    15   146   147    2
    16   138   137    2
    17   105   102    1
    18   148   149    1
    19   148   150    1
    20   137   136    1
    21   136   139    1
    22   101   102    1
    23   101    94   am
    24   123   121    1
    25    96    93    1
    26    96    97    1
    27    93    94    1
    28    93    92    1
    29   102   103    1
    30    94    95    2
    31   140   139    1
    32   140   141    1
    33   100    98   ar
    34    98    99   ar
    35    98    97    1
    36   121   122    1
    37   121   120    1
    38   143   141   am
    39   103   104    2
    40   103   108   am
    41   141   142    2
    42   111   110    2
    43   108   109    1
    44   120   117    1
    45   117   116    1
    46   117   118    1
    47   110   116   am
    48   110   109    1
    49    52    51    1
    50   109   112    1
    51    53    51    1
    52    83    82    1
    53   133   134   ar
    54   133   131   ar
    55   134   132   ar
    56   118   119    2
    57    51    50    2
    58    71    70    2
    59   112   113    1
    60   131   129   ar
    61   132   130   ar
    62    82    81    1
    63    81    80    1
    64    68    69    1
    65   129   130   ar
    66   129   128    1
    67    50    49    1
    68   125   126    1
    69   125   128    1
    70   125   124    1
    71   126   127    2
    72    70    69    1
    73    72    69    1
    74    72    74    1
    75    72    73    1
    76   113   115    1
    77   113   114    1
    78    80    79    1
    79    49    48    1
    80    79    76    1
    81    78    77    2
    82    75    76    1
    83    41    40    1
    84    76    77    1
    85    48    47    1
    86    40    39    1
    87    40    42    1
    88    47    44    1
    89    39    36    1
    90    11    10   ar
    91    11     9   ar
    92    67    64    1
    93    44    43    1
    94    44    45    1
    95    43    37   am
    96    34    31    1
    97    36    35    1
    98    36    37    1
    99    10     8   ar
   100    35    32   am
   101    57    56    2
   102    64    63    1
   103    64    65    1
   104     9     7   ar
   105    37    38    2
   106    30    31    1
   107    30    28   am
   108    27    28    1
   109    27    26    1
   110    45    54   am
   111    45    46    2
   112    56    63   am
   113    56    55    1
   114    31    32    1
   115    65    66    2
   116    32    33    2
   117    54    55    1
   118    28    29    2
   119    26    19   am
   120     8     6   ar
   121     7     6   ar
   122    55    58    1
   123    16    13    1
   124    19    20    2
   125    19    18    1
   126     6     5    1
   127    18    17    1
   128    18    21    1
   129    15    14    2
   130    14    17   am
   131    14    13    1
   132    58    59    1
   133    13    12    1
   134    12     3   am
   135     5     2    1
   136     3     4    2
   137     3     2    1
   138    21    22    1
   139    59    60    1
   140     1     2    1
   141    22    23    1
   142    61    60   ar
   143    60    62   ar
   144    24    23   ar
   145    23    25   ar
