@<TRIPOS>MOLECULE
tmp/4zmgA02.pdb
 219 210 0 0 0
SMALL
GASTEIGER

@<TRIPOS>ATOM
      1  N        -23.5230    7.0290  -27.5480 N.3     7  TYR7       -0.1241
      2  CA       -24.6570    7.8590  -27.1550 C.3     7  TYR7        0.1605
      3  C        -24.5970    9.2410  -27.7810 C.2     7  TYR7        0.2264
      4  O        -25.5960    9.7400  -28.3050 O.2     7  TYR7       -0.2867
      5  CB       -24.7530    7.9250  -25.6280 C.3     7  TYR7        0.0534
      6  CG       -25.4990    6.7290  -25.0460 C.ar    7  TYR7       -0.0201
      7  CD1      -24.9220    5.4440  -25.0340 C.ar    7  TYR7       -0.0009
      8  CD2      -26.7840    6.8830  -24.5200 C.ar    7  TYR7       -0.0009
      9  CE1      -25.6040    4.3540  -24.5010 C.ar    7  TYR7        0.0417
     10  CE2      -27.4720    5.8000  -23.9870 C.ar    7  TYR7        0.0417
     11  CZ       -26.8770    4.5450  -23.9810 C.ar    7  TYR7        0.1957
     12  OH       -27.5730    3.4880  -23.4490 O.3     7  TYR7       -0.2866
     13  N        -27.0310    7.4320  -30.7360 N.3    11  LEU11      -0.1231
     14  CA       -28.3280    7.2900  -30.0700 C.3    11  LEU11       0.1693
     15  C        -29.0340    8.6240  -29.7940 C.2    11  LEU11       0.2591
     16  O        -30.2070    8.7950  -30.1510 O.2    11  LEU11      -0.2718
     17  CB       -28.2160    6.4510  -28.7860 C.3    11  LEU11       0.0284
     18  CG       -29.5170    6.0970  -28.0370 C.3    11  LEU11       0.0019
     19  CD1      -30.6300    5.6260  -28.9680 C.3    11  LEU11       0.0001
     20  CD2      -29.2520    5.0320  -26.9840 C.3    11  LEU11       0.0001
     21  N        -28.3310    9.5660  -29.1690 N.am   12  MET12      -0.1979
     22  CA       -28.9870   10.8230  -28.7730 C.3    12  MET12       0.1605
     23  C        -29.4260   11.6790  -29.9690 C.2    12  MET12       0.2287
     24  O        -30.5660   12.1610  -29.9850 O.2    12  MET12      -0.2864
     25  CB       -28.1450   11.6300  -27.7670 C.3    12  MET12       0.0413
     26  CG       -27.8970   10.9100  -26.4420 C.3    12  MET12       0.0598
     27  SD       -29.3710   10.3310  -25.5700 S.3    12  MET12      -0.1393
     28  CE       -30.1340   11.8960  -25.1230 C.3    12  MET12       0.0692
     29  N        -32.6220   10.0770  -31.3510 N.3    15  LEU15      -0.1231
     30  CA       -33.7810   10.3790  -30.5080 C.3    15  LEU15       0.1693
     31  C        -34.2390   11.8270  -30.7000 C.2    15  LEU15       0.2591
     32  O        -35.4340   12.0930  -30.8120 O.2    15  LEU15      -0.2718
     33  CB       -33.4920   10.0880  -29.0310 C.3    15  LEU15       0.0284
     34  CG       -33.2730    8.6080  -28.6570 C.3    15  LEU15       0.0019
     35  CD1      -32.7810    8.4830  -27.2160 C.3    15  LEU15       0.0001
     36  CD2      -34.5210    7.7520  -28.8960 C.3    15  LEU15       0.0001
     37  N        -33.2820   12.7480  -30.7480 N.am   16  GLN16      -0.1979
     38  CA       -33.5800   14.1700  -30.9650 C.3    16  GLN16       0.1601
     39  C        -34.1930   14.4500  -32.3380 C.2    16  GLN16       0.2287
     40  O        -35.0440   15.3160  -32.4630 O.2    16  GLN16      -0.2864
     41  CB       -32.3350   15.0210  -30.7690 C.3    16  GLN16       0.0394
     42  CG       -31.8830   15.0980  -29.3180 C.3    16  GLN16       0.0908
     43  CD       -30.6770   16.0000  -29.1430 C.2    16  GLN16       0.2608
     44  OE1      -29.7340   15.9420  -29.9270 O.2    16  GLN16      -0.2717
     45  NE2      -30.6950   16.8280  -28.1010 N.am   16  GLN16      -0.0878
     46  N        -38.6590   17.9720  -27.8080 N.3    21  PRO21      -0.2116
     47  CA       -37.9850   17.8680  -26.4960 C.3    21  PRO21       0.1372
     48  C        -38.8690   17.3620  -25.3460 C.2    21  PRO21       0.2244
     49  O        -38.3950   16.5510  -24.5410 O.2    21  PRO21      -0.2868
     50  CB       -37.5210   19.2890  -26.2240 C.3    21  PRO21       0.0268
     51  CG       -37.3610   19.9020  -27.5650 C.3    21  PRO21       0.0207
     52  CD       -38.4320   19.2890  -28.4380 C.3    21  PRO21       0.0892
     53  N        -39.1890   13.6560  -25.6650 N.3    24  ALA24      -0.1231
     54  CA       -37.8900   13.0910  -25.3030 C.3    24  ALA24       0.1694
     55  C        -37.7450   13.0380  -23.7710 C.2    24  ALA24       0.2592
     56  O        -37.3140   12.0310  -23.2110 O.2    24  ALA24      -0.2718
     57  CB       -36.7510   13.9030  -25.9430 C.3    24  ALA24       0.0304
     58  N        -38.1350   14.1220  -23.1060 N.am   25  HIS25      -0.1976
     59  CA       -38.1070   14.1950  -21.6460 C.3    25  HIS25       0.1656
     60  C        -38.9490   13.0910  -21.0120 C.2    25  HIS25       0.2291
     61  O        -38.4960   12.3390  -20.1320 O.2    25  HIS25      -0.2864
     62  CB       -38.6070   15.5760  -21.2180 C.3    25  HIS25       0.0771
     63  CG       -38.4060   15.8710  -19.7620 C.ar   25  HIS25       0.0820
     64  ND1      -38.8920   16.9940  -19.1740 N.ar   25  HIS25      -0.2267
     65  CD2      -37.7520   15.1470  -18.7560 C.ar   25  HIS25       0.1154
     66  CE1      -38.5650   16.9890  -17.8590 C.ar   25  HIS25       0.1986
     67  NE2      -37.8710   15.8620  -17.6050 N.ar   25  HIS25      -0.2212
     68  N        -39.9690   10.2830  -22.2990 N.3    27  LEU27      -0.1231
     69  CA       -39.3160    9.0020  -22.5960 C.3    27  LEU27       0.1693
     70  C        -38.1180    8.7460  -21.6930 C.2    27  LEU27       0.2591
     71  O        -37.9500    7.6340  -21.1840 O.2    27  LEU27      -0.2718
     72  CB       -38.8400    8.9580  -24.0560 C.3    27  LEU27       0.0284
     73  CG       -38.1820    7.6370  -24.4780 C.3    27  LEU27       0.0019
     74  CD1      -39.2610    6.5550  -24.5090 C.3    27  LEU27       0.0001
     75  CD2      -37.4940    7.7480  -25.8350 C.3    27  LEU27       0.0001
     76  N        -37.2710    9.7690  -21.5280 N.am   28  ALA28      -0.1980
     77  CA       -36.1010    9.6860  -20.6430 C.3    28  ALA28       0.1597
     78  C        -36.5030    9.3260  -19.2080 C.2    28  ALA28       0.2287
     79  O        -35.8450    8.5090  -18.5660 O.2    28  ALA28      -0.2864
     80  CB       -35.3140   11.0020  -20.6590 C.3    28  ALA28       0.0319
     81  N        -37.6190    5.5570  -19.2320 N.3    31  PHE31      -0.1227
     82  CA       -36.4870    4.6320  -19.3140 C.3    31  PHE31       0.1736
     83  C        -35.6930    4.6340  -18.0350 C.2    31  PHE31       0.2596
     84  O        -35.2770    3.5720  -17.5430 O.2    31  PHE31      -0.2718
     85  CB       -35.5890    4.9580  -20.5040 C.3    31  PHE31       0.0547
     86  CG       -35.9290    4.1660  -21.7360 C.ar   31  PHE31      -0.0202
     87  CD1      -37.1270    4.3790  -22.4110 C.ar   31  PHE31      -0.0042
     88  CD2      -35.0700    3.1680  -22.1930 C.ar   31  PHE31      -0.0042
     89  CE1      -37.4490    3.6350  -23.5440 C.ar   31  PHE31      -0.0003
     90  CE2      -35.3860    2.4170  -23.3190 C.ar   31  PHE31      -0.0003
     91  CZ       -36.5780    2.6540  -23.9950 C.ar   31  PHE31      -0.0000
     92  N        -35.5050    5.8260  -17.4760 N.am   32  THR32      -0.1953
     93  CA       -34.7480    5.9360  -16.2450 C.3    32  THR32       0.1897
     94  C        -35.4940    5.2630  -15.0920 C.2    32  THR32       0.2313
     95  O        -34.8860    4.5230  -14.3220 O.2    32  THR32      -0.2863
     96  CB       -34.3780    7.4080  -15.9450 C.3    32  THR32       0.1794
     97  OG1      -33.6590    7.9300  -17.0720 O.3    32  THR32      -0.2208
     98  CG2      -33.4860    7.5060  -14.6890 C.3    32  THR32       0.0378
     99  N        -33.5040    1.1910  -17.4430 N.3    36  LEU36      -0.1231
    100  CA       -32.9890    0.7930  -18.7590 C.3    36  LEU36       0.1693
    101  C        -31.8630    1.7450  -19.1520 C.2    36  LEU36       0.2592
    102  O        -32.0740    2.7250  -19.8680 O.2    36  LEU36      -0.2718
    103  CB       -34.1160    0.7720  -19.7930 C.3    36  LEU36       0.0284
    104  CG       -35.4120    0.0640  -19.3300 C.3    36  LEU36       0.0019
    105  CD1      -36.5340    0.2440  -20.3520 C.3    36  LEU36       0.0001
    106  CD2      -35.2100   -1.4170  -19.0110 C.3    36  LEU36       0.0001
    107  N        -30.6700    1.4590  -18.6490 N.am   37  LEU37      -0.1966
    108  CA       -29.5500    2.3950  -18.7210 C.3    37  LEU37       0.1713
    109  C        -28.2650    1.6480  -19.0190 C.2    37  LEU37       0.2458
    110  O        -28.1380    0.4800  -18.6480 O.2    37  LEU37      -0.2730
    111  CB       -29.3890    3.1340  -17.3810 C.3    37  LEU37       0.0310
    112  CG       -30.6160    3.8750  -16.8630 C.3    37  LEU37       0.0022
    113  CD1      -30.6390    3.9760  -15.3500 C.3    37  LEU37       0.0001
    114  CD2      -30.6930    5.2470  -17.5090 C.3    37  LEU37       0.0001
    115  N        -27.2920    2.3250  -19.6610 N.am   38  PRO38      -0.2727
    116  CA       -26.0020    1.6810  -19.9120 C.3    38  PRO38       0.1402
    117  C        -25.2900    1.2390  -18.6280 C.2    38  PRO38       0.2269
    118  O        -24.3710    0.4250  -18.6970 O.2    38  PRO38      -0.2865
    119  CB       -25.1960    2.7600  -20.6450 C.3    38  PRO38       0.0296
    120  CG       -25.8800    4.0560  -20.3380 C.3    38  PRO38       0.0237
    121  CD       -27.3300    3.7130  -20.1640 C.3    38  PRO38       0.0939
    122  N        -35.6310   17.6600  -14.0610 N.3    67  PHE67      -0.1241
    123  CA       -35.5800   16.4650  -14.8880 C.3    67  PHE67       0.1605
    124  C        -36.6160   15.4730  -14.3300 C.2    67  PHE67       0.2264
    125  O        -37.4700   14.9690  -15.0640 O.2    67  PHE67      -0.2867
    126  CB       -34.1820   15.8330  -14.9540 C.3    67  PHE67       0.0534
    127  CG       -34.1800   14.5520  -15.7320 C.ar   67  PHE67      -0.0203
    128  CD1      -34.2310   14.5680  -17.1340 C.ar   67  PHE67      -0.0042
    129  CD2      -34.2600   13.3230  -15.0630 C.ar   67  PHE67      -0.0042
    130  CE1      -34.2910   13.3740  -17.8570 C.ar   67  PHE67      -0.0003
    131  CE2      -34.3210   12.1300  -15.7850 C.ar   67  PHE67      -0.0003
    132  CZ       -34.3450   12.1670  -17.1750 C.ar   67  PHE67      -0.0000
    133  N        -27.6470    5.7100  -12.6690 N.3    80  MET80      -0.1245
    134  CA       -26.9100    6.4430  -13.7040 C.3    80  MET80       0.1570
    135  C        -25.5640    6.9770  -13.1990 C.2    80  MET80       0.2261
    136  O        -24.6910    7.3260  -13.9970 O.2    80  MET80      -0.2867
    137  CB       -27.7820    7.5970  -14.2070 C.3    80  MET80       0.0387
    138  CG       -27.6340    7.8740  -15.6810 C.3    80  MET80       0.0595
    139  SD       -28.6970    9.2300  -16.2050 S.3    80  MET80      -0.1393
    140  CE       -30.3010    8.4830  -16.4240 C.3    80  MET80       0.0692
    141  N        -40.9760   23.5440  -24.5000 N.3   103  VAL103     -0.1245
    142  CA       -39.5680   23.1550  -24.3860 C.3   103  VAL103      0.1561
    143  C        -38.9940   23.1770  -25.7890 C.2   103  VAL103      0.2260
    144  O        -39.6330   22.6880  -26.7510 O.2   103  VAL103     -0.2867
    145  CB       -39.3540   21.7500  -23.7700 C.3   103  VAL103      0.0252
    146  CG1      -37.8910   21.5810  -23.3710 C.3   103  VAL103      0.0019
    147  CG2      -40.2480   21.5450  -22.5610 C.3   103  VAL103      0.0019
    148  N        -35.2980   23.0890  -28.2450 N.3   105  ARG105     -0.1245
    149  CA       -33.9070   22.6860  -28.3220 C.3   105  ARG105      0.1563
    150  C        -33.1400   23.7080  -29.1840 C.2   105  ARG105      0.2260
    151  O        -33.6730   24.1920  -30.1930 O.2   105  ARG105     -0.2867
    152  CB       -33.8870   21.2960  -28.9670 C.3   105  ARG105      0.0307
    153  CG       -32.5850   20.5560  -28.9040 C.3   105  ARG105      0.0489
    154  CD       -32.7400   19.2200  -29.6300 C.3   105  ARG105      0.2205
    155  NE       -33.6660   18.2970  -28.9580 N.pl3 105  ARG105     -0.0865
    156  CZ       -34.6800   17.6760  -29.5550 C.cat 105  ARG105      0.5346
    157  NH1      -34.9280   17.8970  -30.8430 N.pl3 105  ARG105      0.1354
    158  NH2      -35.4390   16.8210  -28.8780 N.pl3 105  ARG105      0.1354
    159  N        -31.0380   24.6700  -24.2270 N.3   112  VAL112     -0.1245
    160  CA       -32.4720   24.4290  -24.2150 C.3   112  VAL112      0.1561
    161  C        -33.1310   25.7000  -23.7100 C.2   112  VAL112      0.2260
    162  O        -32.5470   26.4030  -22.8800 O.2   112  VAL112     -0.2867
    163  CB       -32.8280   23.1970  -23.3270 C.3   112  VAL112      0.0252
    164  CG1      -34.3380   23.1000  -23.0600 C.3   112  VAL112      0.0019
    165  CG2      -32.3360   21.9150  -24.0210 C.3   112  VAL112      0.0019
    166  N        -36.8540   26.5390  -21.8890 N.3   114  ASN114     -0.1240
    167  CA       -38.1020   25.9430  -21.4070 C.3   114  ASN114      0.1653
    168  C        -39.0030   26.9760  -20.7480 C.2   114  ASN114      0.2266
    169  O        -38.5360   27.9560  -20.1080 O.2   114  ASN114     -0.2867
    170  CB       -37.8080   24.7680  -20.4440 C.3   114  ASN114      0.1155
    171  CG       -37.6120   25.2250  -19.0130 C.2   114  ASN114      0.2627
    172  OD1      -38.5770   25.3270  -18.2480 O.2   114  ASN114     -0.2716
    173  ND2      -36.3630   25.5030  -18.6360 N.am  114  ASN114     -0.0877
    174  N        -41.9380   25.4620  -18.9250 N.3   116  TYR116     -0.1241
    175  CA       -42.8800   24.4570  -18.3950 C.3   116  TYR116      0.1605
    176  C        -43.9470   25.0890  -17.5200 C.2   116  TYR116      0.2264
    177  O        -45.1340   24.7280  -17.5980 O.2   116  TYR116     -0.2867
    178  CB       -42.1150   23.4000  -17.5900 C.3   116  TYR116      0.0534
    179  CG       -41.7630   22.1480  -18.3440 C.ar  116  TYR116     -0.0201
    180  CD1      -42.7550   21.3260  -18.8840 C.ar  116  TYR116     -0.0009
    181  CD2      -40.4440   21.7280  -18.4430 C.ar  116  TYR116     -0.0009
    182  CE1      -42.4370   20.1480  -19.5590 C.ar  116  TYR116      0.0417
    183  CE2      -40.1140   20.5320  -19.0860 C.ar  116  TYR116      0.0417
    184  CZ       -41.1100   19.7590  -19.6500 C.ar  116  TYR116      0.1957
    185  OH       -40.7800   18.5850  -20.2880 O.3   116  TYR116     -0.2866
    186  N        -28.1310   19.1960  -16.0210 N.3   325  TYR325     -0.1241
    187  CA       -29.3670   18.7090  -16.6030 C.3   325  TYR325      0.1605
    188  C        -29.2090   18.7040  -18.1190 C.2   325  TYR325      0.2264
    189  O        -29.1940   17.6370  -18.7450 O.2   325  TYR325     -0.2867
    190  CB       -30.5320   19.5750  -16.1040 C.3   325  TYR325      0.0534
    191  CG       -31.9300   19.2270  -16.5990 C.ar  325  TYR325     -0.0201
    192  CD1      -32.1510   18.3520  -17.6830 C.ar  325  TYR325     -0.0009
    193  CD2      -33.0280   19.8110  -15.9940 C.ar  325  TYR325     -0.0009
    194  CE1      -33.4540   18.0780  -18.1300 C.ar  325  TYR325      0.0417
    195  CE2      -34.3130   19.5520  -16.4310 C.ar  325  TYR325      0.0417
    196  CZ       -34.5240   18.6940  -17.4800 C.ar  325  TYR325      0.1957
    197  OH       -35.8230   18.4810  -17.8590 O.3   325  TYR325     -0.2866
    198  N        -27.1960   16.1480  -20.1810 N.3   328  LEU328     -0.1231
    199  CA       -27.8060   14.8160  -20.2910 C.3   328  LEU328      0.1693
    200  C        -28.6630   14.7340  -21.5550 C.2   328  LEU328      0.2592
    201  O        -28.7070   13.6900  -22.2220 O.2   328  LEU328     -0.2718
    202  CB       -28.6430   14.5410  -19.0400 C.3   328  LEU328      0.0284
    203  CG       -29.2630   13.1610  -18.8230 C.3   328  LEU328      0.0019
    204  CD1      -28.1440   12.1730  -18.5560 C.3   328  LEU328      0.0001
    205  CD2      -30.2280   13.2280  -17.6350 C.3   328  LEU328      0.0001
    206  N        -29.3330   15.8290  -21.9040 N.am  329  THR329     -0.1953
    207  CA       -30.2140   15.8140  -23.0690 C.3   329  THR329      0.1897
    208  C        -29.4240   15.7310  -24.3760 C.2   329  THR329      0.2313
    209  O        -29.9440   15.2770  -25.4050 O.2   329  THR329     -0.2863
    210  CB       -31.2030   16.9980  -23.0850 C.3   329  THR329      0.1794
    211  OG1      -30.5220   18.1990  -23.4900 O.3   329  THR329     -0.2208
    212  CG2      -31.8620   17.1650  -21.6960 C.3   329  THR329      0.0378
    213  N        -27.0290    9.4080  -20.8100 N.3   333  PRO333     -0.2116
    214  CA       -26.5330    8.8780  -19.5250 C.3   333  PRO333      0.1372
    215  C        -24.9980    8.7630  -19.3630 C.2   333  PRO333      0.2244
    216  O        -24.5030    8.9790  -18.2620 O.2   333  PRO333     -0.2868
    217  CB       -27.2010    7.4930  -19.4410 C.3   333  PRO333      0.0268
    218  CG       -28.4980    7.6830  -20.1840 C.3   333  PRO333      0.0207
    219  CD       -28.1630    8.6150  -21.3330 C.3   333  PRO333      0.0892
@<TRIPOS>BOND
     1    40    39    2
     2    39    38    1
     3    29    30    1
     4    38    41    1
     5    38    37    1
     6   157   156    1
     7    32    31    2
     8    41    42    1
     9    37    31   am
    10    13    14    1
    11    31    30    1
    12    30    33    1
    13   151   150    2
    14    16    15    2
    15    14    15    1
    16    14    17    1
    17    24    23    2
    18    23    22    1
    19    44    43    2
    20    15    21   am
    21   154   155    1
    22   154   153    1
    23   156   155    2
    24   156   158    1
    25    42    43    1
    26   150   149    1
    27    21    22    1
    28    43    45   am
    29    33    34    1
    30    19    18    1
    31   152   153    1
    32   152   149    1
    33    36    34    1
    34    17    18    1
    35    22    25    1
    36    34    35    1
    37    52    46    1
    38    52    51    1
    39   149   148    1
    40     4     3    2
    41    18    20    1
    42    46    47    1
    43     3     2    1
    44    25    26    1
    45    51    50    1
    46     1     2    1
    47     2     5    1
    48   144   143    2
    49    47    50    1
    50    47    48    1
    51    26    27    1
    52    57    54    1
    53    75    73    1
    54   143   142    1
    55    53    54    1
    56     5     6    1
    57    27    28    1
    58   209   208    2
    59    48    49    2
    60    54    55    1
    61     6     7   ar
    62     6     8   ar
    63     7     9   ar
    64     8    10   ar
    65    74    73    1
    66     9    11   ar
    67   141   142    1
    68    73    72    1
    69   142   145    1
    70   208   207    1
    71   159   160    1
    72   160   161    1
    73   160   163    1
    74    72    69    1
    75   165   163    1
    76    91    89   ar
    77    91    90   ar
    78    10    11   ar
    79    11    12    1
    80    55    56    2
    81    55    58   am
    82   145   146    1
    83   145   147    1
    84   161   162    2
    85    89    87   ar
    86   211   210    1
    87   163   164    1
    88    90    88   ar
    89    58    59    1
    90   210   207    1
    91   210   212    1
    92   207   206    1
    93    69    68    1
    94    69    70    1
    95    87    86   ar
    96   201   200    2
    97    88    86   ar
    98   206   200   am
    99   166   167    1
   100    86    85    1
   101    70    76   am
   102    70    71    2
   103    59    62    1
   104    59    60    1
   105   200   199    1
   106    76    77    1
   107   167   168    1
   108   167   170    1
   109   219   213    1
   110   219   218    1
   111    62    63    1
   112    60    61    2
   113   213   214    1
   114   168   169    2
   115    80    77    1
   116   119   120    1
   117   119   116    1
   118    77    78    1
   119    85    82    1
   120   170   171    1
   121   105   104    1
   122   120   121    1
   123   199   198    1
   124   199   202    1
   125   185   184    1
   126   218   217    1
   127   121   115    1
   128   116   115    1
   129   116   117    1
   130   102   101    2
   131   103   104    1
   132   103   100    1
   133    63    64   ar
   134    63    65   ar
   135   115   109   am
   136   184   182   ar
   137   184   183   ar
   138   182   180   ar
   139   214   217    1
   140   214   215    1
   141   215   216    2
   142   104   106    1
   143    82    81    1
   144    82    83    1
   145    78    79    2
   146    64    66   ar
   147   101   100    1
   148   101   107   am
   149   183   181   ar
   150   202   203    1
   151   109   108    1
   152   109   110    2
   153   171   173   am
   154   171   172    2
   155   174   175    1
   156   180   179   ar
   157   203   204    1
   158   203   205    1
   159   100    99    1
   160    65    67   ar
   161   189   188    2
   162   108   107    1
   163   108   111    1
   164   118   117    2
   165   181   179   ar
   166   175   178    1
   167   175   176    1
   168   179   178    1
   169   194   192   ar
   170   194   196   ar
   171   188   187    1
   172    83    84    2
   173    83    92   am
   174    66    67   ar
   175   197   196    1
   176   130   132   ar
   177   130   128   ar
   178   192   191   ar
   179   177   176    2
   180   114   112    1
   181   196   195   ar
   182    92    93    1
   183   111   112    1
   184   132   131   ar
   185   128   127   ar
   186    97    96    1
   187   112   113    1
   188   187   190    1
   189   187   186    1
   190   191   190    1
   191   191   193   ar
   192   195   193   ar
   193   140   139    1
   194    93    96    1
   195    93    94    1
   196   139   138    1
   197    96    98    1
   198   131   129   ar
   199   127   129   ar
   200   127   126    1
   201   138   137    1
   202    94    95    2
   203   125   124    2
   204   126   123    1
   205   123   124    1
   206   123   122    1
   207   137   134    1
   208   136   135    2
   209   134   135    1
   210   134   133    1
