@<TRIPOS>MOLECULE
tmp/4zmmA00.pdb
 108 102 0 0 0
SMALL
GASTEIGER

@<TRIPOS>ATOM
      1  N         19.2300   13.8610   35.0200 N.3    73  LEU73      -0.1231
      2  CA        20.4580   14.6090   34.8220 C.3    73  LEU73       0.1693
      3  C         21.6340   13.6740   34.8840 C.2    73  LEU73       0.2591
      4  O         21.5980   12.6780   35.6040 O.2    73  LEU73      -0.2718
      5  CB        20.6370   15.6640   35.9170 C.3    73  LEU73       0.0284
      6  CG        19.6820   16.8660   35.9650 C.3    73  LEU73       0.0019
      7  CD1       19.9160   17.6380   37.2690 C.3    73  LEU73       0.0001
      8  CD2       19.8300   17.7840   34.7250 C.3    73  LEU73       0.0001
      9  N         22.6850   13.9980   34.1390 N.am   74  ARG74      -0.1980
     10  CA        23.8970   13.1980   34.1460 C.3    74  ARG74       0.1597
     11  C         24.5920   13.2400   35.5120 C.2    74  ARG74       0.2287
     12  O         24.4080   14.1770   36.2790 O.2    74  ARG74      -0.2864
     13  CB        24.8400   13.6440   33.0310 C.3    74  ARG74       0.0334
     14  CG        24.2790   13.4770   31.6300 C.3    74  ARG74       0.0492
     15  CD        25.2480   14.0440   30.5940 C.3    74  ARG74       0.2205
     16  NE        24.6470   14.1970   29.2720 N.pl3  74  ARG74      -0.0865
     17  CZ        25.3320   14.5660   28.1920 C.cat  74  ARG74       0.5346
     18  NH1       26.6320   14.8070   28.2870 N.pl3  74  ARG74       0.1354
     19  NH2       24.7220   14.6860   27.0220 N.pl3  74  ARG74       0.1354
     20  N         27.4570   13.9250   36.6800 N.3    76  GLU76      -0.1231
     21  CA        28.3360   15.0140   37.0920 C.3    76  GLU76       0.1699
     22  C         27.6220   16.3500   37.3120 C.2    76  GLU76       0.2592
     23  O         28.2540   17.3440   37.6500 O.2    76  GLU76      -0.2718
     24  CB        29.5010   15.1740   36.1170 C.3    76  GLU76       0.0402
     25  CG        29.0900   15.6340   34.7270 C.3    76  GLU76       0.1161
     26  CD        28.8030   14.4680   33.7770 C.2    76  GLU76       0.3649
     27  OE1       28.8110   13.2960   34.2190 O.co2  76  GLU76      -0.2457
     28  OE2       28.5770   14.7350   32.5760 O.co2  76  GLU76      -0.2457
     29  N         26.3110   16.3780   37.1130 N.am   77  ASP77      -0.1974
     30  CA        25.5670   17.6160   37.2580 C.3    77  ASP77       0.1709
     31  C         25.2820   17.7980   38.7400 C.2    77  ASP77       0.2293
     32  O         24.8920   16.8490   39.4250 O.2    77  ASP77      -0.2864
     33  CB        24.2680   17.5860   36.4470 C.3    77  ASP77       0.1436
     34  CG        24.5170   17.4110   34.9360 C.2    77  ASP77       0.3671
     35  OD1       25.6170   17.8040   34.4630 O.co2  77  ASP77      -0.2456
     36  OD2       23.6170   16.8850   34.2250 O.co2  77  ASP77      -0.2456
     37  N         24.9400   22.7750   35.6070 N.3    91  VAL91      -0.1231
     38  CA        25.2940   21.8700   34.5320 C.3    91  VAL91       0.1692
     39  C         26.3590   22.4940   33.6540 C.2    91  VAL91       0.2592
     40  O         26.3480   23.6990   33.4380 O.2    91  VAL91      -0.2718
     41  CB        24.0720   21.5440   33.6760 C.3    91  VAL91       0.0266
     42  CG1       24.4970   20.7030   32.4980 C.3    91  VAL91       0.0020
     43  CG2       23.0410   20.8080   34.4810 C.3    91  VAL91       0.0020
     44  N         27.2940   21.6880   33.1720 N.am   92  ARG92      -0.1966
     45  CA        28.3000   22.2010   32.2490 C.3    92  ARG92       0.1729
     46  C         27.8130   22.0180   30.8160 C.2    92  ARG92       0.2616
     47  O         27.5500   20.8950   30.3890 O.2    92  ARG92      -0.2715
     48  CB        29.6620   21.5350   32.4800 C.3    92  ARG92       0.0348
     49  CG        30.6160   22.3830   33.3330 C.3    92  ARG92       0.0492
     50  CD        31.3330   21.5400   34.4010 C.3    92  ARG92       0.2205
     51  NE        31.8640   20.2700   33.8880 N.pl3  92  ARG92      -0.0865
     52  CZ        31.6130   19.0860   34.4360 C.cat  92  ARG92       0.5346
     53  NH1       30.8400   19.0040   35.5070 N.pl3  92  ARG92       0.1354
     54  NH2       32.1340   17.9850   33.9250 N.pl3  92  ARG92       0.1354
     55  N         27.6540   23.1220   30.0900 N.am   93  VAL93      -0.1963
     56  CA        27.1300   23.0640   28.7230 C.3    93  VAL93       0.1727
     57  C         27.8640   24.0020   27.7450 C.2    93  VAL93       0.2616
     58  O         28.8240   24.6810   28.1150 O.2    93  VAL93      -0.2715
     59  CB        25.5950   23.3290   28.6760 C.3    93  VAL93       0.0290
     60  CG1       24.8310   22.2360   29.4220 C.3    93  VAL93       0.0023
     61  CG2       25.2550   24.7190   29.2170 C.3    93  VAL93       0.0023
     62  N         27.4090   24.0300   26.4980 N.am   94  ARG94      -0.1977
     63  CA        28.0620   24.8340   25.4650 C.3    94  ARG94       0.1597
     64  C         27.4000   26.1900   25.3060 C.2    94  ARG94       0.2287
     65  O         28.0770   27.1950   25.1010 O.2    94  ARG94      -0.2864
     66  CB        28.0670   24.1040   24.1140 C.3    94  ARG94       0.0334
     67  CG        28.8520   22.7960   24.1110 C.3    94  ARG94       0.0492
     68  CD        28.9310   22.1790   22.7200 C.3    94  ARG94       0.2205
     69  NE        27.7760   21.3370   22.4010 N.pl3  94  ARG94      -0.0865
     70  CZ        27.8110   20.0030   22.3220 C.cat  94  ARG94       0.5346
     71  NH1       28.9420   19.3370   22.5440 N.pl3  94  ARG94       0.1354
     72  NH2       26.7130   19.3270   22.0100 N.pl3  94  ARG94       0.1354
     73  N         20.7750   25.0350   25.2490 N.3    98  GLU98      -0.1245
     74  CA        20.8510   23.7070   25.8190 C.3    98  GLU98       0.1567
     75  C         20.3580   23.7150   27.2600 C.2    98  GLU98       0.2260
     76  O         19.6890   22.7700   27.6950 O.2    98  GLU98      -0.2867
     77  CB        22.2880   23.1850   25.7560 C.3    98  GLU98       0.0388
     78  CG        22.8050   23.0270   24.3420 C.3    98  GLU98       0.1160
     79  CD        24.2590   22.6120   24.2930 C.2    98  GLU98       0.3649
     80  OE1       24.9590   22.8210   25.3080 O.co2  98  GLU98      -0.2457
     81  OE2       24.7010   22.0750   23.2390 O.co2  98  GLU98      -0.2457
     82  N         16.6680   23.8670   27.4380 N.3   101  MET101     -0.1230
     83  CA        16.0890   22.6060   27.0260 C.3   101  MET101      0.1702
     84  C         16.0780   21.6330   28.1920 C.2   101  MET101      0.2592
     85  O         15.0650   20.9910   28.4700 O.2   101  MET101     -0.2718
     86  CB        16.8700   22.0330   25.8500 C.3   101  MET101      0.0401
     87  CG        16.0620   21.9490   24.5630 C.3   101  MET101      0.0596
     88  SD        17.1080   21.8540   23.0950 S.3   101  MET101     -0.1393
     89  CE        18.3690   20.7010   23.6520 C.3   101  MET101      0.0692
     90  N         17.2130   21.5330   28.8760 N.am  102  ILE102     -0.1980
     91  CA        17.3020   20.7430   30.0980 C.3   102  ILE102      0.1595
     92  C         16.2610   21.1530   31.1320 C.2   102  ILE102      0.2287
     93  O         15.7150   20.2990   31.8230 O.2   102  ILE102     -0.2864
     94  CB        18.6810   20.8560   30.7550 C.3   102  ILE102      0.0276
     95  CG1       19.7860   20.4770   29.7460 C.3   102  ILE102      0.0022
     96  CG2       18.6940   20.0370   32.0340 C.3   102  ILE102      0.0022
     97  CD1       21.1990   20.4340   30.3090 C.3   102  ILE102      0.0001
     98  N         12.7720   20.0740   30.1340 N.3   105  ARG105     -0.1245
     99  CA        12.7880   18.6280   30.3380 C.3   105  ARG105      0.1563
    100  C         12.3300   18.2990   31.7490 C.2   105  ARG105      0.2260
    101  O         11.3470   17.5800   31.9480 O.2   105  ARG105     -0.2867
    102  CB        14.2060   18.1080   30.1290 C.3   105  ARG105      0.0307
    103  CG        14.3400   16.6010   29.9870 C.3   105  ARG105      0.0489
    104  CD        15.6920   16.2600   29.3470 C.3   105  ARG105      0.2205
    105  NE        16.7400   16.1130   30.3480 N.pl3 105  ARG105     -0.0865
    106  CZ        18.0290   16.3420   30.1280 C.cat 105  ARG105      0.5346
    107  NH1       18.4570   16.7500   28.9360 N.pl3 105  ARG105      0.1354
    108  NH2       18.8920   16.1720   31.1160 N.pl3 105  ARG105      0.1354
@<TRIPOS>BOND
     1    72    70    1
     2    70    69    2
     3    70    71    1
     4    69    68    1
     5    68    67    1
     6    88    89    1
     7    88    87    1
     8    81    79   ar
     9    67    66    1
    10    66    63    1
    11    79    78    1
    12    79    80   ar
    13    78    77    1
    14    87    86    1
    15    65    64    2
    16    73    74    1
    17    64    63    1
    18    63    62    1
    19    77    74    1
    20    74    75    1
    21    86    83    1
    22    62    57   am
    23    19    17    1
    24    83    82    1
    25    83    84    1
    26    75    76    2
    27    57    58    2
    28    57    56    1
    29    17    18    1
    30    17    16    2
    31    84    85    2
    32    84    90   am
    33    59    56    1
    34    59    61    1
    35    59    60    1
    36    56    55    1
    37    90    91    1
    38   107   106    1
    39    16    15    1
    40   104   103    1
    41   104   105    1
    42    95    97    1
    43    95    94    1
    44   103   102    1
    45    55    46   am
    46    91    94    1
    47    91    92    1
    48   106   105    2
    49   106   108    1
    50   102    99    1
    51    98    99    1
    52    99   100    1
    53    47    46    2
    54    15    14    1
    55    94    96    1
    56    46    45    1
    57    92    93    2
    58    14    13    1
    59   100   101    2
    60    45    48    1
    61    45    44    1
    62    48    49    1
    63    42    41    1
    64    28    26   ar
    65    13    10    1
    66    44    39   am
    67    49    50    1
    68    40    39    2
    69    39    38    1
    70    41    43    1
    71    41    38    1
    72    26    27   ar
    73    26    25    1
    74    51    50    1
    75    51    52    2
    76    54    52    1
    77     9    10    1
    78     9     3   am
    79    10    11    1
    80    36    34   ar
    81    52    53    1
    82    35    34   ar
    83    38    37    1
    84     8     6    1
    85    25    24    1
    86     2     3    1
    87     2     1    1
    88     2     5    1
    89     3     4    2
    90    34    33    1
    91    11    12    2
    92     5     6    1
    93     6     7    1
    94    24    21    1
    95    33    30    1
    96    20    21    1
    97    21    22    1
    98    29    30    1
    99    29    22   am
   100    30    31    1
   101    22    23    2
   102    31    32    2
