@<TRIPOS>MOLECULE
tmp/4zn9A00.pdb
 88 82 0 0 0
SMALL
GASTEIGER

@<TRIPOS>ATOM
      1  N         -1.0390    9.1300   28.5340 N.3    54  ILE54      -0.1245
      2  CA        -0.9110   10.5790   28.4500 C.3    54  ILE54       0.1561
      3  C         -0.0360   11.1270   29.5740 C.2    54  ILE54       0.2260
      4  O          0.8570   11.9410   29.3320 O.2    54  ILE54      -0.2867
      5  CB        -2.2950   11.2510   28.4820 C.3    54  ILE54       0.0252
      6  CG1       -3.0710   10.8910   27.2130 C.3    54  ILE54       0.0019
      7  CG2       -2.1630   12.7600   28.6290 C.3    54  ILE54       0.0019
      8  CD1       -4.5460   11.1850   27.2920 C.3    54  ILE54       0.0001
      9  N          1.5440   22.0040   22.4920 N.3    68  LEU68      -0.1231
     10  CA         0.4310   21.0840   22.7120 C.3    68  LEU68       0.1693
     11  C          0.0450   20.3450   21.4330 C.2    68  LEU68       0.2592
     12  O         -0.2830   19.1590   21.4680 O.2    68  LEU68      -0.2718
     13  CB        -0.7850   21.8260   23.2690 C.3    68  LEU68       0.0284
     14  CG        -0.7610   22.1940   24.7510 C.3    68  LEU68       0.0019
     15  CD1       -2.0920   22.8140   25.1470 C.3    68  LEU68       0.0001
     16  CD2       -0.4520   20.9670   25.6010 C.3    68  LEU68       0.0001
     17  N          0.0950   21.0530   20.3080 N.am   69  HIS69      -0.1976
     18  CA        -0.2430   20.4710   19.0120 C.3    69  HIS69       0.1656
     19  C          0.7150   19.3510   18.6030 C.2    69  HIS69       0.2291
     20  O          0.2930   18.3460   18.0300 O.2    69  HIS69      -0.2864
     21  CB        -0.2920   21.5530   17.9280 C.3    69  HIS69       0.0771
     22  CG        -1.4970   22.4390   18.0130 C.ar   69  HIS69       0.0820
     23  ND1       -1.4390   23.7980   17.7870 N.ar   69  HIS69      -0.2267
     24  CD2       -2.7940   22.1590   18.2890 C.ar   69  HIS69       0.1154
     25  CE1       -2.6460   24.3160   17.9260 C.ar   69  HIS69       0.1986
     26  NE2       -3.4870   23.3430   18.2300 N.ar   69  HIS69      -0.2212
     27  N         -0.0410   16.3780   20.9020 N.3    72  VAL72      -0.1245
     28  CA        -1.2440   15.7210   20.4120 C.3    72  VAL72       0.1561
     29  C         -0.9190   14.8720   19.1890 C.2    72  VAL72       0.2260
     30  O         -1.3200   13.7110   19.1000 O.2    72  VAL72      -0.2867
     31  CB        -2.3330   16.7600   20.0450 C.3    72  VAL72       0.0252
     32  CG1       -3.4030   16.1370   19.1560 C.3    72  VAL72       0.0019
     33  CG2       -2.9500   17.3560   21.3060 C.3    72  VAL72       0.0019
     34  N          1.1110   11.6100   20.0140 N.3    75  LEU75      -0.1231
     35  CA         0.3160   10.6070   20.7150 C.3    75  LEU75       0.1693
     36  C         -0.7520   10.0120   19.8080 C.2    75  LEU75       0.2591
     37  O         -1.0140    8.8100   19.8520 O.2    75  LEU75      -0.2718
     38  CB        -0.3090   11.1900   21.9860 C.3    75  LEU75       0.0284
     39  CG         0.5910   11.2290   23.2210 C.3    75  LEU75       0.0019
     40  CD1       -0.0430   12.0610   24.3240 C.3    75  LEU75       0.0001
     41  CD2        0.8760    9.8170   23.7140 C.3    75  LEU75       0.0001
     42  N         -1.3630   10.8570   18.9860 N.am   76  GLU76      -0.1979
     43  CA        -2.3440   10.3910   18.0160 C.3    76  GLU76       0.1602
     44  C         -1.7180    9.3820   17.0590 C.2    76  GLU76       0.2287
     45  O         -2.3480    8.3940   16.6840 O.2    76  GLU76      -0.2864
     46  CB        -2.9140   11.5640   17.2200 C.3    76  GLU76       0.0415
     47  CG        -4.0070   12.3400   17.9290 C.3    76  GLU76       0.1163
     48  CD        -4.5360   13.4760   17.0790 C.2    76  GLU76       0.3649
     49  OE1       -3.8930   13.7960   16.0590 O.co2  76  GLU76      -0.2457
     50  OE2       -5.5920   14.0440   17.4230 O.co2  76  GLU76      -0.2457
     51  N        -15.2430    8.7590   23.8350 N.3   221  ASP221     -0.1225
     52  CA       -14.9810    9.8810   22.9390 C.3   221  ASP221      0.1805
     53  C        -13.4850   10.0630   22.6790 C.2   221  ASP221      0.2597
     54  O        -13.0800   10.4020   21.5670 O.2   221  ASP221     -0.2718
     55  CB       -15.5800   11.1740   23.4910 C.3   221  ASP221      0.1424
     56  CG       -17.0930   11.1560   23.5130 C.2   221  ASP221      0.3668
     57  OD1      -17.6900   10.3550   22.7650 O.co2 221  ASP221     -0.2456
     58  OD2      -17.6850   11.9510   24.2750 O.co2 221  ASP221     -0.2456
     59  N        -12.6720    9.8360   23.7080 N.am  222  LEU222     -0.1979
     60  CA       -11.2200    9.9310   23.5800 C.3   222  LEU222      0.1596
     61  C        -10.6870    8.9140   22.5780 C.2   222  LEU222      0.2287
     62  O         -9.9800    9.2700   21.6380 O.2   222  LEU222     -0.2864
     63  CB       -10.5450    9.7240   24.9390 C.3   222  LEU222      0.0297
     64  CG        -9.0200    9.5700   24.9280 C.3   222  LEU222      0.0022
     65  CD1       -8.3540   10.8060   24.3440 C.3   222  LEU222      0.0001
     66  CD2       -8.4900    9.2810   26.3260 C.3   222  LEU222      0.0001
     67  N        -11.6980    9.6290   19.0660 N.3   225  GLU225     -0.1231
     68  CA       -10.9140   10.6910   18.4430 C.3   225  GLU225      0.1699
     69  C         -9.4920   10.2490   18.1020 C.2   225  GLU225      0.2592
     70  O         -8.8920   10.7610   17.1580 O.2   225  GLU225     -0.2718
     71  CB       -10.8980   11.9420   19.3240 C.3   225  GLU225      0.0402
     72  CG       -12.1950   12.7320   19.2790 C.3   225  GLU225      0.1161
     73  CD       -12.2250   13.8580   20.2910 C.2   225  GLU225      0.3649
     74  OE1      -11.1640   14.1620   20.8760 O.co2 225  GLU225     -0.2457
     75  OE2      -13.3110   14.4350   20.5050 O.co2 225  GLU225     -0.2457
     76  N         -8.9570    9.3020   18.8690 N.am  226  MET226     -0.1979
     77  CA        -7.6510    8.7220   18.5630 C.3   226  MET226      0.1605
     78  C         -7.7380    7.9080   17.2760 C.2   226  MET226      0.2287
     79  O         -6.8320    7.9460   16.4430 O.2   226  MET226     -0.2864
     80  CB        -7.1580    7.8340   19.7100 C.3   226  MET226      0.0413
     81  CG        -7.0260    8.5420   21.0490 C.3   226  MET226      0.0598
     82  SD        -5.7620    9.8260   21.0570 S.3   226  MET226     -0.1393
     83  CE        -4.2740    8.8540   21.2270 C.3   226  MET226      0.0692
     84  N         -8.1540   10.1440   14.0880 N.3   229  ALA229     -0.1245
     85  CA        -6.8900   10.7910   13.7340 C.3   229  ALA229      0.1562
     86  C         -6.1610   10.0450   12.6180 C.2   229  ALA229      0.2260
     87  O         -5.4560   10.6520   11.8120 O.2   229  ALA229     -0.2867
     88  CB        -5.9920   10.9280   14.9590 C.3   229  ALA229      0.0290
@<TRIPOS>BOND
     1    87    86    2
     2    86    85    1
     3    85    84    1
     4    85    88    1
     5    49    48   ar
     6    79    78    2
     7    45    44    2
     8    44    43    1
     9    48    50   ar
    10    48    47    1
    11    70    69    2
    12    46    47    1
    13    46    43    1
    14    78    77    1
    15    23    25   ar
    16    23    22   ar
    17    25    26   ar
    18    21    22    1
    19    21    18    1
    20    22    24   ar
    21    43    42    1
    22    20    19    2
    23    69    68    1
    24    69    76   am
    25    26    24   ar
    26    68    67    1
    27    68    71    1
    28    77    76    1
    29    77    80    1
    30    19    18    1
    31    42    36   am
    32    18    17    1
    33    30    29    2
    34    32    31    1
    35    29    28    1
    36    72    71    1
    37    72    73    1
    38    80    81    1
    39    36    37    2
    40    36    35    1
    41    34    35    1
    42    31    28    1
    43    31    33    1
    44    73    75   ar
    45    73    74   ar
    46    17    11   am
    47    28    27    1
    48    35    38    1
    49    81    82    1
    50    82    83    1
    51    11    12    2
    52    11    10    1
    53    54    53    2
    54    62    61    2
    55    38    39    1
    56     9    10    1
    57    61    60    1
    58    53    52    1
    59    53    59   am
    60    10    13    1
    61    57    56   ar
    62    52    55    1
    63    52    51    1
    64    39    41    1
    65    39    40    1
    66    13    14    1
    67    55    56    1
    68    56    58   ar
    69    60    59    1
    70    60    63    1
    71    65    64    1
    72    14    15    1
    73    14    16    1
    74    64    63    1
    75    64    66    1
    76     6     8    1
    77     6     5    1
    78     2     5    1
    79     2     1    1
    80     2     3    1
    81     5     7    1
    82     4     3    2
