@<TRIPOS>MOLECULE
tmp/4znlB00.pdb
 139 135 0 0 0
SMALL
GASTEIGER

@<TRIPOS>ATOM
      1  N          1.7850   94.7010    4.6300 N.3    15  TYR15      -0.1227
      2  CA         1.3760   93.7450    5.6510 C.3    15  TYR15       0.1736
      3  C          2.4030   92.6240    5.7540 C.2    15  TYR15       0.2595
      4  O          2.6910   91.9530    4.7630 O.2    15  TYR15      -0.2718
      5  CB        -0.0140   93.2000    5.3010 C.3    15  TYR15       0.0548
      6  CG        -0.5600   92.0900    6.1800 C.ar   15  TYR15      -0.0200
      7  CD1       -0.8090   92.2910    7.5310 C.ar   15  TYR15      -0.0009
      8  CD2       -0.8800   90.8520    5.6360 C.ar   15  TYR15      -0.0009
      9  CE1       -1.3340   91.2750    8.3220 C.ar   15  TYR15       0.0417
     10  CE2       -1.4020   89.8360    6.4140 C.ar   15  TYR15       0.0417
     11  CZ        -1.6310   90.0510    7.7520 C.ar   15  TYR15       0.1957
     12  OH        -2.1560   89.0320    8.5150 O.3    15  TYR15      -0.2866
     13  N          2.9610   92.4440    6.9490 N.am   16  LYS16      -0.1980
     14  CA         3.9470   91.3980    7.2060 C.3    16  LYS16       0.1596
     15  C          3.3740   90.3720    8.1840 C.2    16  LYS16       0.2287
     16  O          3.5340   90.5170    9.3920 O.2    16  LYS16      -0.2864
     17  CB         5.2430   91.9940    7.7700 C.3    16  LYS16       0.0298
     18  CG         6.0640   92.7880    6.7620 C.3    16  LYS16       0.0038
     19  CD         5.5320   94.1960    6.5830 C.3    16  LYS16       0.0206
     20  CE         6.4400   95.0230    5.6880 C.3    16  LYS16       0.1093
     21  NZ         6.1570   96.4820    5.8210 N.3    16  LYS16      -0.1314
     22  N          2.5050   87.4910   10.7690 N.3    18  HIS18      -0.1241
     23  CA         3.1190   86.5630   11.7180 C.3    18  HIS18       0.1621
     24  C          2.9360   85.1520   11.1900 C.2    18  HIS18       0.2264
     25  O          2.0450   84.9250   10.3700 O.2    18  HIS18      -0.2867
     26  CB         2.4860   86.6860   13.1040 C.3    18  HIS18       0.0745
     27  CG         2.5890   88.0510   13.6980 C.ar   18  HIS18       0.0817
     28  ND1        1.4850   88.8540   13.9170 N.ar   18  HIS18      -0.2268
     29  CD2        3.6570   88.7610   14.1320 C.ar   18  HIS18       0.1154
     30  CE1        1.8730   89.9930   14.4550 C.ar   18  HIS18       0.1986
     31  NE2        3.1880   89.9650   14.5950 N.ar   18  HIS18      -0.2212
     32  N         -0.4940   83.9920   11.4830 N.3    21  GLN21      -0.1245
     33  CA        -1.3120   84.7100   10.5130 C.3    21  GLN21       0.1566
     34  C         -1.1400   84.1150    9.1250 C.2    21  GLN21       0.2260
     35  O         -2.1060   83.9860    8.3700 O.2    21  GLN21      -0.2867
     36  CB        -0.9540   86.1960   10.4810 C.3    21  GLN21       0.0367
     37  CG        -1.5320   87.0190   11.6130 C.3    21  GLN21       0.0905
     38  CD        -1.1070   88.4750   11.5390 C.2    21  GLN21       0.2608
     39  OE1        0.0260   88.7800   11.1780 O.2    21  GLN21      -0.2717
     40  NE2       -2.0190   89.3790   11.8710 N.am   21  GLN21      -0.0878
     41  N         -5.5090   87.9990   22.8070 N.3    38  ARG38      -0.1231
     42  CA        -5.8430   89.4000   22.5800 C.3    38  ARG38       0.1694
     43  C         -4.6650   90.2060   22.0250 C.2    38  ARG38       0.2592
     44  O         -3.5110   89.9280   22.3500 O.2    38  ARG38      -0.2718
     45  CB        -6.3190   90.0190   23.9000 C.3    38  ARG38       0.0321
     46  CG        -7.1510   91.2620   23.7400 C.3    38  ARG38       0.0489
     47  CD        -7.5060   91.9100   25.0690 C.3    38  ARG38       0.2205
     48  NE        -7.8010   93.3220   24.8470 N.pl3  38  ARG38      -0.0865
     49  CZ        -6.9070   94.3060   24.9260 C.cat  38  ARG38       0.5346
     50  NH1       -5.6460   94.0550   25.2640 N.pl3  38  ARG38       0.1354
     51  NH2       -7.2830   95.5540   24.6800 N.pl3  38  ARG38       0.1354
     52  N         -4.9700   91.2140   21.2090 N.am   39  GLN39      -0.1966
     53  CA        -3.9560   92.0670   20.5840 C.3    39  GLN39       0.1733
     54  C         -2.8650   91.2780   19.8430 C.2    39  GLN39       0.2617
     55  O         -1.6840   91.6290   19.9040 O.2    39  GLN39      -0.2715
     56  CB        -3.3130   92.9710   21.6430 C.3    39  GLN39       0.0408
     57  CG        -4.1670   94.1630   22.0280 C.3    39  GLN39       0.0908
     58  CD        -4.0880   95.2790   21.0090 C.2    39  GLN39       0.2608
     59  OE1       -3.0020   95.6600   20.5770 O.2    39  GLN39      -0.2717
     60  NE2       -5.2370   95.8070   20.6170 N.am   39  GLN39      -0.0878
     61  N         -3.2680   90.2250   19.1370 N.am   40  SER40      -0.1936
     62  CA        -2.3260   89.3670   18.4180 C.3    40  SER40       0.2055
     63  C         -2.4050   89.5470   16.8960 C.2    40  SER40       0.2644
     64  O         -1.5290   89.0730   16.1660 O.2    40  SER40      -0.2714
     65  CB        -2.5730   87.8980   18.7830 C.3    40  SER40       0.2130
     66  OG        -3.9390   87.5510   18.6370 O.3    40  SER40      -0.2179
     67  N         -3.4470   90.2350   16.4290 N.am   41  GLY41      -0.1939
     68  CA        -3.6370   90.4880   15.0100 C.3    41  GLY41       0.2014
     69  C         -4.8320   89.7680   14.4140 C.2    41  GLY41       0.2639
     70  O         -4.8440   89.4500   13.2220 O.2    41  GLY41      -0.2714
     71  N         -5.8420   89.5120   15.2380 N.am   42  LYS42      -0.1963
     72  CA        -7.0480   88.8430   14.7720 C.3    42  LYS42       0.1728
     73  C         -7.8250   89.7150   13.7860 C.2    42  LYS42       0.2617
     74  O         -8.2100   89.2550   12.7110 O.2    42  LYS42      -0.2715
     75  CB        -7.9370   88.4690   15.9570 C.3    42  LYS42       0.0311
     76  CG        -7.2490   87.5550   16.9690 C.3    42  LYS42       0.0038
     77  CD        -8.2310   86.9310   17.9460 C.3    42  LYS42       0.0206
     78  CE        -9.0130   87.9660   18.7080 C.3    42  LYS42       0.1093
     79  NZ        -8.1520   88.8840   19.4830 N.3    42  LYS42      -0.1314
     80  N         -8.0540   90.9720   14.1550 N.am   43  SER43      -0.1936
     81  CA        -8.8010   91.8950   13.3020 C.3    43  SER43       0.2055
     82  C         -7.9910   92.2990   12.0780 C.2    43  SER43       0.2642
     83  O         -8.5460   92.4980   10.9980 O.2    43  SER43      -0.2714
     84  CB        -9.2190   93.1370   14.0930 C.3    43  SER43       0.2130
     85  OG       -10.2320   92.8160   15.0380 O.3    43  SER43      -0.2179
     86  N         -6.6790   92.4200   12.2410 N.am   44  GLU44      -0.1976
     87  CA        -5.8140   92.7150   11.1130 C.3    44  GLU44       0.1602
     88  C         -5.9610   91.6310   10.0560 C.2    44  GLU44       0.2287
     89  O         -6.1930   91.9280    8.8940 O.2    44  GLU44      -0.2864
     90  CB        -4.3520   92.8280   11.5520 C.3    44  GLU44       0.0415
     91  CG        -3.4010   93.2870   10.4520 C.3    44  GLU44       0.1163
     92  CD        -3.5910   94.7480   10.0770 C.2    44  GLU44       0.3649
     93  OE1       -4.4660   95.4140   10.6730 O.co2  44  GLU44      -0.2457
     94  OE2       -2.8600   95.2330    9.1860 O.co2  44  GLU44      -0.2457
     95  N        -10.9880   99.7510    8.8370 N.3    78  ARG78      -0.1245
     96  CA        -9.6870   99.1400    8.5970 C.3    78  ARG78       0.1563
     97  C         -9.6320   98.4860    7.2170 C.2    78  ARG78       0.2260
     98  O         -8.6430   98.6420    6.4990 O.2    78  ARG78      -0.2867
     99  CB        -9.3650   98.1210    9.6900 C.3    78  ARG78       0.0307
    100  CG        -9.0240   98.7720   11.0300 C.3    78  ARG78       0.0489
    101  CD        -8.9540   97.7580   12.1660 C.3    78  ARG78       0.2205
    102  NE        -7.7240   96.9720   12.1410 N.pl3  78  ARG78      -0.0865
    103  CZ        -7.2600   96.2740   13.1730 C.cat  78  ARG78       0.5346
    104  NH1       -7.9170   96.2680   14.3270 N.pl3  78  ARG78       0.1354
    105  NH2       -6.1320   95.5880   13.0560 N.pl3  78  ARG78       0.1354
    106  N        -14.1600   88.0970   16.9570 N.3   149  GLU149     -0.1245
    107  CA       -14.6200   87.7680   18.3130 C.3   149  GLU149      0.1567
    108  C        -15.8760   86.9010   18.2660 C.2   149  GLU149      0.2260
    109  O        -16.8970   87.2080   18.8940 O.2   149  GLU149     -0.2867
    110  CB       -14.8810   89.0320   19.1370 C.3   149  GLU149      0.0388
    111  CG       -13.6750   89.9430   19.2660 C.3   149  GLU149      0.1160
    112  CD       -12.4530   89.2330   19.8190 C.2   149  GLU149      0.3649
    113  OE1      -12.6070   88.3220   20.6570 O.co2 149  GLU149     -0.2457
    114  OE2      -11.3310   89.5880   19.4070 O.co2 149  GLU149     -0.2457
    115  N          2.9800   86.3610   18.3610 N.3   224  TRP224     -0.1241
    116  CA         3.7760   87.5710   18.2160 C.3   224  TRP224      0.1605
    117  C          4.8800   87.6290   19.2760 C.2   224  TRP224      0.2264
    118  O          4.8290   88.4660   20.1760 O.2   224  TRP224     -0.2867
    119  CB         2.8570   88.7910   18.3210 C.3   224  TRP224      0.0550
    120  CG         3.4270   90.0550   17.7710 C.ar  224  TRP224      0.0003
    121  CD1        4.7180   90.2820   17.3930 C.ar  224  TRP224      0.0946
    122  CD2        2.7160   91.2720   17.5270 C.ar  224  TRP224      0.0152
    123  NE1        4.8540   91.5680   16.9310 N.ar  224  TRP224     -0.2442
    124  CE2        3.6390   92.1970   17.0040 C.ar  224  TRP224      0.0810
    125  CE3        1.3860   91.6700   17.7010 C.ar  224  TRP224      0.0012
    126  CZ2        3.2770   93.4940   16.6520 C.ar  224  TRP224      0.0191
    127  CZ3        1.0280   92.9600   17.3520 C.ar  224  TRP224      0.0001
    128  CH2        1.9700   93.8560   16.8310 C.ar  224  TRP224      0.0015
    129  N          6.9440   90.7300   21.3420 N.3   227  ARG227     -0.1245
    130  CA         6.5070   91.4520   22.5340 C.3   227  ARG227      0.1563
    131  C          5.8470   90.5000   23.5210 C.2   227  ARG227      0.2260
    132  O          4.7630   90.7660   24.0420 O.2   227  ARG227     -0.2867
    133  CB         5.5590   92.5960   22.1630 C.3   227  ARG227      0.0307
    134  CG         4.3410   92.2130   21.3460 C.3   227  ARG227      0.0489
    135  CD         3.6510   93.4740   20.8480 C.3   227  ARG227      0.2205
    136  NE         2.2260   93.2790   20.5770 N.pl3 227  ARG227     -0.0865
    137  CZ         1.2500   94.0860   20.9970 C.cat 227  ARG227      0.5346
    138  NH1        1.5130   95.1670   21.7240 N.pl3 227  ARG227      0.1354
    139  NH2       -0.0090   93.8080   20.6870 N.pl3 227  ARG227      0.1354
@<TRIPOS>BOND
     1     1     2    1
     2     4     3    2
     3     5     2    1
     4     5     6    1
     5     8     6   ar
     6     8    10   ar
     7     2     3    1
     8    20    21    1
     9    20    19    1
    10     3    13   am
    11     6     7   ar
    12    10    11   ar
    13    98    97    2
    14    19    18    1
    15    18    17    1
    16    13    14    1
    17    14    17    1
    18    14    15    1
    19    97    96    1
    20     7     9   ar
    21    11     9   ar
    22    11    12    1
    23    15    16    2
    24    35    34    2
    25    96    95    1
    26    96    99    1
    27    89    88    2
    28    34    33    1
    29    94    92   ar
    30    99   100    1
    31    88    87    1
    32    92    91    1
    33    92    93   ar
    34    25    24    2
    35    91    90    1
    36    36    33    1
    37    36    37    1
    38    33    32    1
    39    22    23    1
    40    83    82    2
    41   100   101    1
    42    87    90    1
    43    87    86    1
    44    39    38    2
    45    24    23    1
    46    38    37    1
    47    38    40   am
    48    23    26    1
    49    82    86   am
    50    82    81    1
    51   102   101    1
    52   102   103    2
    53    74    73    2
    54   105   103    1
    55    26    27    1
    56   103   104    1
    57    70    69    2
    58    81    84    1
    59    81    80    1
    60    27    28   ar
    61    27    29   ar
    62    73    80   am
    63    73    72    1
    64    28    30   ar
    65    84    85    1
    66    29    31   ar
    67    69    68    1
    68    69    71   am
    69    30    31   ar
    70    72    71    1
    71    72    75    1
    72    68    67    1
    73    75    76    1
    74    64    63    2
    75    67    63   am
    76   126   128   ar
    77   126   124   ar
    78   128   127   ar
    79    63    62    1
    80   123   124   ar
    81   123   121   ar
    82   106   107    1
    83    76    77    1
    84   124   122   ar
    85   127   125   ar
    86   121   120   ar
    87   122   125   ar
    88   122   120   ar
    89   120   119    1
    90    77    78    1
    91   116   119    1
    92   116   115    1
    93   116   117    1
    94   108   107    1
    95   108   109    2
    96   107   110    1
    97    62    65    1
    98    62    61    1
    99    66    65    1
   100    78    79    1
   101   110   111    1
   102    61    54   am
   103   111   112    1
   104   117   118    2
   105   114   112   ar
   106   112   113   ar
   107    54    55    2
   108    54    53    1
   109   136   135    1
   110   136   137    2
   111    59    58    2
   112    53    52    1
   113    53    56    1
   114    60    58   am
   115   139   137    1
   116   135   134    1
   117   137   138    1
   118    58    57    1
   119    52    43   am
   120   129   130    1
   121   134   133    1
   122    56    57    1
   123    43    44    2
   124    43    42    1
   125   133   130    1
   126   130   131    1
   127    42    41    1
   128    42    45    1
   129   131   132    2
   130    46    45    1
   131    46    47    1
   132    51    49    1
   133    48    49    2
   134    48    47    1
   135    49    50    1
