@<TRIPOS>MOLECULE
tmp/4znuC00.pdb
 127 120 0 0 0
SMALL
GASTEIGER

@<TRIPOS>ATOM
      1  N        -14.9480    6.8080   56.6480 N.3    46  VAL46      -0.1245
      2  CA       -15.1650    7.9330   57.5480 C.3    46  VAL46       0.1561
      3  C        -13.8630    8.4020   58.2120 C.2    46  VAL46       0.2260
      4  O        -13.6230    9.6040   58.3430 O.2    46  VAL46      -0.2867
      5  CB       -16.2160    7.5990   58.6290 C.3    46  VAL46       0.0252
      6  CG1      -16.4990    8.8200   59.4830 C.3    46  VAL46       0.0019
      7  CG2      -17.4980    7.1010   57.9810 C.3    46  VAL46       0.0019
      8  N        -11.3260   10.1120   55.6650 N.3    49  ILE49      -0.1231
      9  CA       -11.6790   11.5060   55.4170 C.3    49  ILE49       0.1692
     10  C        -11.1340   12.4310   56.5010 C.2    49  ILE49       0.2592
     11  O        -10.6650   13.5290   56.2080 O.2    49  ILE49      -0.2718
     12  CB       -13.2030   11.6740   55.2860 C.3    49  ILE49       0.0266
     13  CG1      -13.7110   10.8770   54.0840 C.3    49  ILE49       0.0019
     14  CG2      -13.5760   13.1390   55.1390 C.3    49  ILE49       0.0020
     15  CD1      -15.2040   10.6510   54.0890 C.3    49  ILE49       0.0001
     16  N        -11.1870   11.9840   57.7520 N.am   50  ASN50      -0.1974
     17  CA       -10.5960   12.7440   58.8480 C.3    50  ASN50       0.1688
     18  C         -9.0760   12.6630   58.8370 C.2    50  ASN50       0.2292
     19  O         -8.3950   13.6080   59.2290 O.2    50  ASN50      -0.2864
     20  CB       -11.1520   12.2830   60.1940 C.3    50  ASN50       0.1181
     21  CG       -12.6310   12.5760   60.3370 C.2    50  ASN50       0.2629
     22  OD1      -13.0230   13.6440   60.8050 O.2    50  ASN50      -0.2716
     23  ND2      -13.4620   11.6300   59.9170 N.am   50  ASN50      -0.0877
     24  N         -7.6890   15.1660   56.2170 N.3    53  LYS53      -0.1245
     25  CA        -7.6680   16.5530   56.6770 C.3    53  LYS53       0.1561
     26  C         -6.3950   16.8780   57.4440 C.2    53  LYS53       0.2260
     27  O         -5.9930   18.0330   57.5360 O.2    53  LYS53      -0.2867
     28  CB        -8.8870   16.8530   57.5540 C.3    53  LYS53       0.0271
     29  CG       -10.2140   16.7470   56.8300 C.3    53  LYS53       0.0035
     30  CD       -10.3120   17.7550   55.6940 C.3    53  LYS53       0.0206
     31  CE       -10.5680   19.1660   56.2130 C.3    53  LYS53       0.1093
     32  NZ       -10.8330   20.1400   55.1110 N.3    53  LYS53      -0.1314
     33  N         -3.2540   19.2410   52.7440 N.3    58  PHE58      -0.1241
     34  CA        -4.5550   18.8310   52.2100 C.3    58  PHE58       0.1605
     35  C         -5.6810   19.8360   52.4800 C.2    58  PHE58       0.2264
     36  O         -6.5810   19.9990   51.6560 O.2    58  PHE58      -0.2867
     37  CB        -4.9330   17.4470   52.7400 C.3    58  PHE58       0.0534
     38  CG        -6.1490   16.8560   52.0900 C.ar   58  PHE58      -0.0203
     39  CD1       -6.0560   16.2250   50.8600 C.ar   58  PHE58      -0.0042
     40  CD2       -7.3860   16.9160   52.7140 C.ar   58  PHE58      -0.0042
     41  CE1       -7.1750   15.6720   50.2600 C.ar   58  PHE58      -0.0003
     42  CE2       -8.5080   16.3630   52.1190 C.ar   58  PHE58      -0.0003
     43  CZ        -8.4010   15.7390   50.8890 C.ar   58  PHE58      -0.0000
     44  N        -12.4230   22.7400   48.5960 N.3    63  LEU63      -0.1231
     45  CA       -13.2680   21.5890   48.8960 C.3    63  LEU63       0.1693
     46  C        -13.4580   20.7140   47.6610 C.2    63  LEU63       0.2592
     47  O        -13.4600   19.4860   47.7530 O.2    63  LEU63      -0.2718
     48  CB       -14.6230   22.0450   49.4430 C.3    63  LEU63       0.0284
     49  CG       -15.6240   20.9280   49.7460 C.3    63  LEU63       0.0019
     50  CD1      -15.0130   19.9210   50.7050 C.3    63  LEU63       0.0001
     51  CD2      -16.9140   21.4910   50.3140 C.3    63  LEU63       0.0001
     52  N        -13.6090   21.3610   46.5080 N.am   64  HIS64      -0.1976
     53  CA       -13.7180   20.6600   45.2330 C.3    64  HIS64       0.1656
     54  C        -12.5180   19.7490   45.0240 C.2    64  HIS64       0.2291
     55  O        -12.6700   18.5800   44.6630 O.2    64  HIS64      -0.2864
     56  CB       -13.8070   21.6530   44.0700 C.3    64  HIS64       0.0771
     57  CG       -15.0180   22.5320   44.1130 C.ar   64  HIS64       0.0820
     58  ND1      -15.0090   23.7880   44.6830 N.ar   64  HIS64      -0.2267
     59  CD2      -16.2780   22.3340   43.6590 C.ar   64  HIS64       0.1154
     60  CE1      -16.2120   24.3260   44.5780 C.ar   64  HIS64       0.1986
     61  NE2      -17.0000   23.4640   43.9550 N.ar   64  HIS64      -0.2212
     62  N        -10.3340   18.6850   47.3410 N.3    66  GLN66      -0.1231
     63  CA       -10.2840   17.6590   48.3730 C.3    66  GLN66       0.1698
     64  C        -11.1510   16.4650   47.9900 C.2    66  GLN66       0.2592
     65  O        -10.7210   15.3210   48.0910 O.2    66  GLN66      -0.2718
     66  CB       -10.7320   18.2220   49.7190 C.3    66  GLN66       0.0381
     67  CG        -9.7670   19.2120   50.3340 C.3    66  GLN66       0.0905
     68  CD       -10.2840   19.7690   51.6400 C.2    66  GLN66       0.2608
     69  OE1      -11.2320   19.2400   52.2160 O.2    66  GLN66      -0.2717
     70  NE2       -9.6710   20.8480   52.1110 N.am   66  GLN66      -0.0878
     71  N        -12.3700   16.7450   47.5420 N.am   67  VAL67      -0.1980
     72  CA       -13.3060   15.7020   47.1400 C.3    67  VAL67       0.1595
     73  C        -12.7470   14.8780   45.9850 C.2    67  VAL67       0.2287
     74  O        -12.8920   13.6530   45.9490 O.2    67  VAL67      -0.2864
     75  CB       -14.6620   16.3050   46.7200 C.3    67  VAL67       0.0276
     76  CG1      -15.5400   15.2530   46.0680 C.3    67  VAL67       0.0022
     77  CG2      -15.3640   16.9160   47.9200 C.3    67  VAL67       0.0022
     78  N         -9.9210   12.4070   47.1160 N.3    70  LEU70      -0.1231
     79  CA       -10.5240   11.3250   47.8800 C.3    70  LEU70       0.1693
     80  C        -11.2630   10.3410   46.9790 C.2    70  LEU70       0.2591
     81  O        -11.1640    9.1260   47.1640 O.2    70  LEU70      -0.2718
     82  CB       -11.4510   11.8850   48.9570 C.3    70  LEU70       0.0284
     83  CG       -10.7170   12.2960   50.2350 C.3    70  LEU70       0.0019
     84  CD1      -11.6420   13.0240   51.2020 C.3    70  LEU70       0.0001
     85  CD2      -10.0940   11.0640   50.8970 C.3    70  LEU70       0.0001
     86  N        -11.9860   10.8660   45.9930 N.am   71  GLU71      -0.1979
     87  CA       -12.7130   10.0190   45.0490 C.3    71  GLU71       0.1602
     88  C        -11.7810    9.1140   44.2490 C.2    71  GLU71       0.2287
     89  O        -12.0940    7.9530   44.0080 O.2    71  GLU71      -0.2864
     90  CB       -13.5690   10.8640   44.1010 C.3    71  GLU71       0.0415
     91  CG       -14.8300   11.4290   44.7360 C.3    71  GLU71       0.1163
     92  CD       -15.6620   12.2420   43.7620 C.2    71  GLU71       0.3649
     93  OE1      -15.1960   12.4680   42.6230 O.co2  71  GLU71      -0.2457
     94  OE2      -16.7830   12.6530   44.1360 O.co2  71  GLU71      -0.2457
     95  N        -24.7500    4.5910   50.7490 N.3   213  ASP213     -0.1225
     96  CA       -25.0810    5.7110   49.8800 C.3   213  ASP213      0.1805
     97  C        -23.8270    6.5520   49.6670 C.2   213  ASP213      0.2597
     98  O        -23.6780    7.2170   48.6420 O.2   213  ASP213     -0.2718
     99  CB       -26.2050    6.5560   50.4840 C.3   213  ASP213      0.1424
    100  CG       -26.8780    7.4870   49.5030 C.2   213  ASP213      0.3668
    101  OD1      -26.5890    7.4950   48.3160 O.co2 213  ASP213     -0.2456
    102  OD2      -27.8320    8.1620   49.8940 O.co2 213  ASP213     -0.2456
    103  N        -22.9280    6.5130   50.6460 N.am  214  LEU214     -0.1979
    104  CA       -21.6190    7.1410   50.5200 C.3   214  LEU214      0.1596
    105  C        -20.7040    6.2880   49.6480 C.2   214  LEU214      0.2287
    106  O        -19.9550    6.8080   48.8220 O.2   214  LEU214     -0.2864
    107  CB       -20.9770    7.3400   51.8950 C.3   214  LEU214      0.0297
    108  CG       -19.4850    7.6910   51.8870 C.3   214  LEU214      0.0022
    109  CD1      -19.2470    9.1040   51.3690 C.3   214  LEU214      0.0001
    110  CD2      -18.8720    7.5050   53.2670 C.3   214  LEU214      0.0001
    111  N        -21.6050    6.5280   46.2080 N.3   217  GLU217     -0.1231
    112  CA       -21.2450    7.8770   45.7950 C.3   217  GLU217      0.1699
    113  C        -19.7720    7.9430   45.4010 C.2   217  GLU217      0.2592
    114  O        -19.3890    8.7030   44.5130 O.2   217  GLU217     -0.2718
    115  CB       -21.5460    8.8590   46.9270 C.3   217  GLU217      0.0402
    116  CG       -21.2640   10.3110   46.6160 C.3   217  GLU217      0.1161
    117  CD       -21.7110   11.2270   47.7380 C.2   217  GLU217      0.3649
    118  OE1      -22.9350   11.3100   47.9820 O.co2 217  GLU217     -0.2457
    119  OE2      -20.8380   11.8520   48.3790 O.co2 217  GLU217     -0.2457
    120  N        -18.9490    7.1380   46.0660 N.am  218  MET218     -0.1979
    121  CA       -17.5350    7.0370   45.7210 C.3   218  MET218      0.1605
    122  C        -17.3750    6.2070   44.4510 C.2   218  MET218      0.2287
    123  O        -16.5010    6.4750   43.6270 O.2   218  MET218     -0.2864
    124  CB       -16.7380    6.3940   46.8620 C.3   218  MET218      0.0413
    125  CG       -16.9170    7.0570   48.2180 C.3   218  MET218      0.0598
    126  SD       -16.1470    8.6790   48.3310 S.3   218  MET218     -0.1393
    127  CE       -14.4600    8.2330   48.7330 C.3   218  MET218      0.0692
@<TRIPOS>BOND
     1    93    92   ar
     2   123   122    2
     3    59    61   ar
     4    59    57   ar
     5    92    94   ar
     6    92    91    1
     7    61    60   ar
     8    89    88    2
     9    56    57    1
    10    56    53    1
    11    90    91    1
    12    90    87    1
    13    57    58   ar
    14    88    87    1
    15   122   121    1
    16   114   113    2
    17    60    58   ar
    18    55    54    2
    19    54    53    1
    20    87    86    1
    21    53    52    1
    22   113   112    1
    23   113   120   am
    24   121   120    1
    25   121   124    1
    26   112   111    1
    27   112   115    1
    28    74    73    2
    29    73    72    1
    30    86    80   am
    31    76    75    1
    32    52    46   am
    33   116   115    1
    34   116   117    1
    35    75    72    1
    36    75    77    1
    37   124   125    1
    38    80    81    2
    39    80    79    1
    40    78    79    1
    41    72    71    1
    42    62    63    1
    43    71    64   am
    44    46    47    2
    45    46    45    1
    46   117   118   ar
    47   117   119   ar
    48    79    82    1
    49    64    65    2
    50    64    63    1
    51   125   126    1
    52   101   100   ar
    53   126   127    1
    54    63    66    1
    55    44    45    1
    56    98    97    2
    57   106   105    2
    58    45    48    1
    59    82    83    1
    60    48    49    1
    61   100   102   ar
    62   100    99    1
    63   105   104    1
    64    97    96    1
    65    97   103   am
    66    66    67    1
    67    49    51    1
    68    49    50    1
    69    96    99    1
    70    96    95    1
    71    83    85    1
    72    83    84    1
    73    41    39   ar
    74    41    43   ar
    75    67    68    1
    76   104   103    1
    77   104   107    1
    78    39    38   ar
    79    43    42   ar
    80   109   108    1
    81    68    70   am
    82    68    69    2
    83    36    35    2
    84   108   107    1
    85   108   110    1
    86    38    40   ar
    87    38    37    1
    88    42    40   ar
    89    34    35    1
    90    34    37    1
    91    34    33    1
    92    13    15    1
    93    13    12    1
    94    32    31    1
    95    14    12    1
    96    12     9    1
    97     9     8    1
    98     9    10    1
    99    30    31    1
   100    30    29    1
   101    11    10    2
   102    24    25    1
   103    10    16   am
   104     1     2    1
   105    25    26    1
   106    25    28    1
   107    29    28    1
   108    26    27    2
   109     2     3    1
   110     2     5    1
   111    16    17    1
   112     7     5    1
   113     3     4    2
   114     5     6    1
   115    18    17    1
   116    18    19    2
   117    17    20    1
   118    23    21   am
   119    20    21    1
   120    21    22    2
