@<TRIPOS>MOLECULE
tmp/4znwB01.pdb
 223 210 0 0 0
SMALL
GASTEIGER

@<TRIPOS>ATOM
      1  N         17.3740   23.0160   39.1290 N.3    39  MET39      -0.1245
      2  CA        17.0620   21.7650   38.4460 C.3    39  MET39       0.1570
      3  C         16.3920   20.7900   39.4010 C.2    39  MET39       0.2261
      4  O         15.5740   19.9710   38.9880 O.2    39  MET39      -0.2867
      5  CB        18.3230   21.1380   37.8470 C.3    39  MET39       0.0387
      6  CG        18.7780   21.7880   36.5480 C.3    39  MET39       0.0595
      7  SD        17.5610   21.6070   35.2280 S.3    39  MET39      -0.1393
      8  CE        17.4270   19.8200   35.1490 C.3    39  MET39       0.0692
      9  N         12.6220   22.1370   39.5990 N.3    42  LEU42      -0.1231
     10  CA        11.8510   21.8570   38.3930 C.3    42  LEU42       0.1693
     11  C         11.5940   20.3660   38.2070 C.2    42  LEU42       0.2592
     12  O         10.5500   19.9700   37.6910 O.2    42  LEU42      -0.2718
     13  CB        12.5680   22.4170   37.1620 C.3    42  LEU42       0.0284
     14  CG        12.8270   23.9240   37.1650 C.3    42  LEU42       0.0019
     15  CD1       13.4280   24.3700   35.8410 C.3    42  LEU42       0.0001
     16  CD2       11.5470   24.6860   37.4620 C.3    42  LEU42       0.0001
     17  N         12.5510   19.5440   38.6250 N.am   43  THR43      -0.1953
     18  CA        12.4170   18.0980   38.5080 C.3    43  THR43       0.1897
     19  C         11.3550   17.5850   39.4710 C.2    43  THR43       0.2313
     20  O         10.4920   16.7940   39.0920 O.2    43  THR43      -0.2863
     21  CB        13.7540   17.3810   38.7790 C.3    43  THR43       0.1794
     22  OG1       14.7230   17.7930   37.8050 O.3    43  THR43      -0.2208
     23  CG2       13.5830   15.8730   38.7030 C.3    43  THR43       0.0378
     24  N          8.9370   19.2990   40.7240 N.3    45  LEU45      -0.1231
     25  CA         7.6610   19.8260   40.2530 C.3    45  LEU45       0.1693
     26  C          7.1000   18.9820   39.1110 C.2    45  LEU45       0.2591
     27  O          5.9540   18.5370   39.1630 O.2    45  LEU45      -0.2718
     28  CB         7.8200   21.2800   39.8030 C.3    45  LEU45       0.0284
     29  CG         6.5710   21.9830   39.2670 C.3    45  LEU45       0.0019
     30  CD1        5.5230   22.1240   40.3600 C.3    45  LEU45       0.0001
     31  CD2        6.9280   23.3420   38.6830 C.3    45  LEU45       0.0001
     32  N          7.9190   18.7660   38.0850 N.am   46  ALA46      -0.1980
     33  CA         7.5160   17.9870   36.9180 C.3    46  ALA46       0.1597
     34  C          7.1340   16.5630   37.3040 C.2    46  ALA46       0.2287
     35  O          6.1660   16.0090   36.7840 O.2    46  ALA46      -0.2864
     36  CB         8.6330   17.9680   35.8800 C.3    46  ALA46       0.0319
     37  N          3.7980   16.6880   38.7660 N.3    49  GLU49      -0.1245
     38  CA         2.8600   17.0380   37.7060 C.3    49  GLU49       0.1567
     39  C          2.5340   15.8430   36.8210 C.2    49  GLU49       0.2260
     40  O          1.4240   15.7360   36.3010 O.2    49  GLU49      -0.2867
     41  CB         3.4120   18.1750   36.8510 C.3    49  GLU49       0.0388
     42  CG         3.3020   19.5420   37.4920 C.3    49  GLU49       0.1160
     43  CD         3.7210   20.6490   36.5490 C.2    49  GLU49       0.3649
     44  OE1        4.9390   20.8820   36.4050 O.co2  49  GLU49      -0.2457
     45  OE2        2.8310   21.2810   35.9420 O.co2  49  GLU49      -0.2457
     46  N          4.7680   14.0930   27.0380 N.3    79  TRP79      -0.1227
     47  CA         4.7140   14.5840   28.4150 C.3    79  TRP79       0.1737
     48  C          5.4030   15.9380   28.6130 C.2    79  TRP79       0.2595
     49  O          4.8920   16.7920   29.3370 O.2    79  TRP79      -0.2718
     50  CB         5.3060   13.5450   29.3760 C.3    79  TRP79       0.0564
     51  CG         6.7780   13.3120   29.2400 C.ar   79  TRP79       0.0003
     52  CD1        7.3950   12.3900   28.4470 C.ar   79  TRP79       0.0946
     53  CD2        7.8190   14.0000   29.9410 C.ar   79  TRP79       0.0152
     54  NE1        8.7590   12.4690   28.6010 N.ar   79  TRP79      -0.2442
     55  CE2        9.0440   13.4510   29.5140 C.ar   79  TRP79       0.0810
     56  CE3        7.8330   15.0330   30.8830 C.ar   79  TRP79       0.0012
     57  CZ2       10.2710   13.8990   29.9970 C.ar   79  TRP79       0.0191
     58  CZ3        9.0520   15.4780   31.3590 C.ar   79  TRP79       0.0001
     59  CH2       10.2540   14.9120   30.9150 C.ar   79  TRP79       0.0015
     60  N          6.5430   16.1460   27.9620 N.am   80  LEU80      -0.1980
     61  CA         7.2520   17.4140   28.0980 C.3    80  LEU80       0.1596
     62  C          6.5440   18.5130   27.3040 C.2    80  LEU80       0.2287
     63  O          6.5150   19.6670   27.7270 O.2    80  LEU80      -0.2864
     64  CB         8.7090   17.2730   27.6500 C.3    80  LEU80       0.0297
     65  CG         9.6210   18.4760   27.9090 C.3    80  LEU80       0.0022
     66  CD1        9.5340   18.9290   29.3610 C.3    80  LEU80       0.0001
     67  CD2       11.0630   18.1570   27.5340 C.3    80  LEU80       0.0001
     68  N          3.6780   19.5600   29.5030 N.3    83  LEU83      -0.1231
     69  CA         4.2070   20.3800   30.5850 C.3    83  LEU83       0.1693
     70  C          4.5110   21.7900   30.0920 C.2    83  LEU83       0.2591
     71  O          4.2260   22.7750   30.7750 O.2    83  LEU83      -0.2718
     72  CB         5.4710   19.7530   31.1800 C.3    83  LEU83       0.0284
     73  CG         5.3050   18.5380   32.0940 C.3    83  LEU83       0.0019
     74  CD1        6.6540   18.1130   32.6460 C.3    83  LEU83       0.0001
     75  CD2        4.3290   18.8390   33.2240 C.3    83  LEU83       0.0001
     76  N          5.0840   21.8750   28.8960 N.am   84  MET84      -0.1979
     77  CA         5.5030   23.1520   28.3310 C.3    84  MET84       0.1605
     78  C          4.3290   24.0480   27.9540 C.2    84  MET84       0.2287
     79  O          4.3450   25.2440   28.2430 O.2    84  MET84      -0.2864
     80  CB         6.3930   22.9210   27.1110 C.3    84  MET84       0.0413
     81  CG         7.8250   22.5780   27.4720 C.3    84  MET84       0.0598
     82  SD         8.8530   22.2670   26.0290 S.3    84  MET84      -0.1393
     83  CE        10.4540   22.0570   26.7930 C.3    84  MET84       0.0692
     84  N          2.8750   25.3780   30.9910 N.3    87  LEU87      -0.1245
     85  CA         3.7280   26.4280   31.5380 C.3    87  LEU87       0.1561
     86  C          3.4760   27.7760   30.8720 C.2    87  LEU87       0.2260
     87  O          3.3040   28.7850   31.5540 O.2    87  LEU87      -0.2867
     88  CB         5.2030   26.0480   31.3900 C.3    87  LEU87       0.0270
     89  CG         6.2210   27.1190   31.7930 C.3    87  LEU87       0.0019
     90  CD1        6.0520   27.5150   33.2550 C.3    87  LEU87       0.0001
     91  CD2        7.6380   26.6370   31.5240 C.3    87  LEU87       0.0001
     92  N          0.2140   29.3400   31.8550 N.3    90  ARG90      -0.1245
     93  CA         0.2620   29.9670   33.1730 C.3    90  ARG90       0.1563
     94  C          0.9650   31.3170   33.1260 C.2    90  ARG90       0.2260
     95  O          0.7470   32.1700   33.9870 O.2    90  ARG90      -0.2867
     96  CB         0.9780   29.0640   34.1840 C.3    90  ARG90       0.0307
     97  CG         0.2970   27.7370   34.4400 C.3    90  ARG90       0.0489
     98  CD         0.8050   27.0860   35.7220 C.3    90  ARG90       0.2205
     99  NE         2.2080   26.6780   35.6580 N.pl3  90  ARG90      -0.0865
    100  CZ         2.6240   25.5110   35.1750 C.cat  90  ARG90       0.5346
    101  NH1        1.7470   24.6410   34.6930 N.pl3  90  ARG90       0.1354
    102  NH2        3.9170   25.2160   35.1640 N.pl3  90  ARG90       0.1354
    103  N          6.3150   28.7920   36.6640 N.3   100  PHE100     -0.1241
    104  CA         6.3870   27.3550   36.9050 C.3   100  PHE100      0.1605
    105  C          5.4040   26.9620   37.9950 C.2   100  PHE100      0.2264
    106  O          4.7450   25.9260   37.9180 O.2   100  PHE100     -0.2867
    107  CB         7.8060   26.9410   37.2910 C.3   100  PHE100      0.0534
    108  CG         8.7980   27.0790   36.1770 C.ar  100  PHE100     -0.0203
    109  CD1        9.0130   26.0340   35.2940 C.ar  100  PHE100     -0.0042
    110  CD2        9.5140   28.2520   36.0070 C.ar  100  PHE100     -0.0042
    111  CE1        9.9270   26.1560   34.2600 C.ar  100  PHE100     -0.0003
    112  CE2       10.4290   28.3800   34.9740 C.ar  100  PHE100     -0.0003
    113  CZ        10.6350   27.3300   34.1000 C.ar  100  PHE100     -0.0000
    114  N         21.1340   27.5920   35.0100 N.3   114  VAL114     -0.1231
    115  CA        21.3950   26.2880   34.4170 C.3   114  VAL114      0.1692
    116  C         21.9870   26.4760   33.0240 C.2   114  VAL114      0.2592
    117  O         21.3840   27.1240   32.1680 O.2   114  VAL114     -0.2718
    118  CB        20.1210   25.4350   34.3290 C.3   114  VAL114      0.0266
    119  CG1       20.4360   24.0790   33.7200 C.3   114  VAL114      0.0020
    120  CG2       19.4960   25.2770   35.7070 C.3   114  VAL114      0.0020
    121  N         23.1700   25.9100   32.8060 N.am  115  GLU115     -0.1966
    122  CA        23.9100   26.1170   31.5650 C.3   115  GLU115      0.1733
    123  C         23.2620   25.4320   30.3650 C.2   115  GLU115      0.2617
    124  O         23.3360   24.2120   30.2210 O.2   115  GLU115     -0.2715
    125  CB        25.3500   25.6200   31.7230 C.3   115  GLU115      0.0429
    126  CG        25.9910   26.2510   32.9530 C.3   115  GLU115      0.1163
    127  CD        26.4210   27.6830   32.7770 C.2   115  GLU115      0.3649
    128  OE1       26.2360   28.2050   31.6750 O.co2 115  GLU115     -0.2457
    129  OE2       26.9530   28.2950   33.7530 O.co2 115  GLU115     -0.2457
    130  N         22.6370   26.2260   29.5010 N.am  116  GLY116     -0.1940
    131  CA        22.0320   25.7080   28.2880 C.3   116  GLY116      0.2014
    132  C         20.5150   25.6920   28.3210 C.2   116  GLY116      0.2638
    133  O         19.8760   25.1000   27.4510 O.2   116  GLY116     -0.2714
    134  N         19.9370   26.3500   29.3210 N.am  117  MET117     -0.1976
    135  CA        18.4870   26.3690   29.4830 C.3   117  MET117      0.1605
    136  C         17.9000   27.7220   29.0800 C.2   117  MET117      0.2287
    137  O         16.6870   27.8610   28.9170 O.2   117  MET117     -0.2864
    138  CB        18.1110   26.0360   30.9310 C.3   117  MET117      0.0413
    139  CG        16.6490   25.6640   31.1340 C.3   117  MET117      0.0598
    140  SD        16.2750   25.1480   32.8220 S.3   117  MET117     -0.1393
    141  CE        16.6720   26.6380   33.7330 C.3   117  MET117      0.0692
    142  N         15.9750   27.7030   25.6080 N.3   120  ILE120     -0.1231
    143  CA        14.6480   27.1150   25.7150 C.3   120  ILE120      0.1692
    144  C         13.7140   28.0450   26.4860 C.2   120  ILE120      0.2592
    145  O         12.5300   28.1590   26.1620 O.2   120  ILE120     -0.2718
    146  CB        14.7230   25.7330   26.3850 C.3   120  ILE120      0.0266
    147  CG1       15.4880   24.7760   25.4680 C.3   120  ILE120      0.0019
    148  CG2       13.3310   25.1900   26.6830 C.3   120  ILE120      0.0020
    149  CD1       16.1280   23.6240   26.1780 C.3   120  ILE120      0.0001
    150  N         14.2620   28.7260   27.4880 N.am  121  PHE121     -0.1976
    151  CA        13.5220   29.7460   28.2230 C.3   121  PHE121      0.1639
    152  C         13.0020   30.8350   27.2950 C.2   121  PHE121      0.2290
    153  O         11.8450   31.2450   27.3910 O.2   121  PHE121     -0.2864
    154  CB        14.4010   30.3670   29.3090 C.3   121  PHE121      0.0560
    155  CG        14.1290   29.8330   30.6800 C.ar  121  PHE121     -0.0200
    156  CD1       14.1160   28.4680   30.9140 C.ar  121  PHE121     -0.0042
    157  CD2       13.8900   30.6940   31.7370 C.ar  121  PHE121     -0.0042
    158  CE1       13.8650   27.9710   32.1770 C.ar  121  PHE121     -0.0003
    159  CE2       13.6410   30.2030   33.0040 C.ar  121  PHE121     -0.0003
    160  CZ        13.6290   28.8390   33.2250 C.ar  121  PHE121     -0.0000
    161  N         10.2240   29.5070   25.2510 N.3   124  LEU124     -0.1245
    162  CA         9.0380   29.4120   26.0940 C.3   124  LEU124      0.1561
    163  C          8.4060   30.7880   26.2800 C.2   124  LEU124      0.2260
    164  O          7.1860   30.9300   26.2220 O.2   124  LEU124     -0.2867
    165  CB         9.3890   28.7930   27.4500 C.3   124  LEU124      0.0270
    166  CG         9.7160   27.2980   27.4370 C.3   124  LEU124      0.0019
    167  CD1       10.3870   26.8720   28.7330 C.3   124  LEU124      0.0001
    168  CD2        8.4560   26.4820   27.1910 C.3   124  LEU124      0.0001
    169  N         14.6820   20.5140   24.5470 N.3   205  GLY205     -0.1225
    170  CA        14.7180   20.3680   25.9900 C.3   205  GLY205      0.1811
    171  C         15.0210   18.9510   26.4340 C.2   205  GLY205      0.2280
    172  O         15.7230   18.7390   27.4230 O.2   205  GLY205     -0.2866
    173  N         18.7010   17.7700   26.2970 N.3   208  HIS208     -0.1226
    174  CA        19.4270   18.3380   27.4240 C.3   208  HIS208      0.1752
    175  C         19.1420   17.5470   28.6990 C.2   208  HIS208      0.2595
    176  O         20.0410   17.3050   29.5020 O.2   208  HIS208     -0.2718
    177  CB        19.0570   19.8070   27.6290 C.3   208  HIS208      0.0759
    178  CG        19.8690   20.7610   26.8090 C.ar  208  HIS208      0.0818
    179  ND1       21.2050   21.0010   27.0520 N.ar  208  HIS208     -0.2268
    180  CD2       19.5310   21.5480   25.7600 C.ar  208  HIS208      0.1154
    181  CE1       21.6560   21.8880   26.1830 C.ar  208  HIS208      0.1986
    182  NE2       20.6600   22.2350   25.3880 N.ar  208  HIS208     -0.2212
    183  N         17.8870   17.1410   28.8720 N.am  209  LEU209     -0.1980
    184  CA        17.4580   16.4660   30.0950 C.3   209  LEU209      0.1596
    185  C         18.0880   15.0840   30.2780 C.2   209  LEU209      0.2287
    186  O         18.4760   14.7280   31.3910 O.2   209  LEU209     -0.2864
    187  CB        15.9310   16.3460   30.1280 C.3   209  LEU209      0.0297
    188  CG        15.1580   17.6250   30.4630 C.3   209  LEU209      0.0022
    189  CD1       13.6580   17.4010   30.3610 C.3   209  LEU209      0.0001
    190  CD2       15.5290   18.1200   31.8500 C.3   209  LEU209      0.0001
    191  N         22.7020   14.8530   32.9910 N.3   213  LYS213     -0.1245
    192  CA        21.8150   14.9290   34.1440 C.3   213  LYS213      0.1561
    193  C         21.2000   13.5730   34.4750 C.2   213  LYS213      0.2260
    194  O         21.3370   13.0750   35.5940 O.2   213  LYS213     -0.2867
    195  CB        20.7160   15.9580   33.8850 C.3   213  LYS213      0.0271
    196  CG        21.2430   17.3050   33.4160 C.3   213  LYS213      0.0035
    197  CD        20.1860   18.0630   32.6350 C.3   213  LYS213      0.0206
    198  CE        20.7380   19.3560   32.0590 C.3   213  LYS213      0.1093
    199  NZ        21.0970   20.3330   33.1220 N.3   213  LYS213     -0.1314
    200  N         17.0960   12.8240   39.0290 N.3   216  LEU216     -0.1245
    201  CA        15.7450   12.6790   38.5040 C.3   216  LEU216      0.1561
    202  C         15.0500   11.5110   39.1990 C.2   216  LEU216      0.2260
    203  O         15.7050   10.5740   39.6570 O.2   216  LEU216     -0.2867
    204  CB        15.7670   12.4660   36.9900 C.3   216  LEU216      0.0270
    205  CG        16.4150   13.5730   36.1670 C.3   216  LEU216      0.0019
    206  CD1       16.5640   13.1720   34.7150 C.3   216  LEU216      0.0001
    207  CD2       15.6380   14.8730   36.2590 C.3   216  LEU216      0.0001
    208  N         10.1380    9.8950   36.1020 N.3   220  LEU220     -0.1245
    209  CA        10.6950   10.8730   35.1790 C.3   220  LEU220      0.1561
    210  C         11.8770   10.3050   34.3990 C.2   220  LEU220      0.2260
    211  O         12.1570   10.7300   33.2790 O.2   220  LEU220     -0.2867
    212  CB        11.1170   12.1250   35.9480 C.3   220  LEU220      0.0270
    213  CG        11.3360   13.4070   35.1510 C.3   220  LEU220      0.0019
    214  CD1       10.2380   13.5710   34.1250 C.3   220  LEU220      0.0001
    215  CD2       11.3530   14.5900   36.0990 C.3   220  LEU220      0.0001
    216  N         12.0600    9.8970   30.2730 N.3   224  LEU224     -0.1245
    217  CA        13.2260   10.3850   29.5440 C.3   224  LEU224      0.1561
    218  C         13.8670    9.2870   28.7070 C.2   224  LEU224      0.2260
    219  O         14.2540    9.5170   27.5610 O.2   224  LEU224     -0.2867
    220  CB        14.2620   10.9670   30.5090 C.3   224  LEU224      0.0270
    221  CG        13.9630   12.3430   31.1040 C.3   224  LEU224      0.0019
    222  CD1       15.0490   12.7470   32.0880 C.3   224  LEU224      0.0001
    223  CD2       13.8280   13.3760   30.0020 C.3   224  LEU224      0.0001
@<TRIPOS>BOND
     1   169   170    1
     2   161   162    1
     3   182   180   ar
     4   182   181   ar
     5   147   149    1
     6   147   146    1
     7   142   143    1
     8   143   146    1
     9   143   144    1
    10   180   178   ar
    11   170   171    1
    12    82    83    1
    13    82    81    1
    14   162   163    1
    15   162   165    1
    16   145   144    2
    17   181   179   ar
    18   164   163    2
    19   173   174    1
    20   146   148    1
    21   171   172    2
    22   144   150   am
    23   178   179   ar
    24   178   177    1
    25    46    47    1
    26    80    81    1
    27    80    77    1
    28   168   166    1
    29   152   153    2
    30   152   151    1
    31    62    63    2
    32    62    61    1
    33   174   177    1
    34   174   175    1
    35   166   165    1
    36   166   167    1
    37   133   132    2
    38   150   151    1
    39    67    65    1
    40   219   218    2
    41    64    65    1
    42    64    61    1
    43    65    66    1
    44    78    79    2
    45    78    77    1
    46    60    61    1
    47    60    48   am
    48   151   154    1
    49   131   132    1
    50   131   130    1
    51   132   134   am
    52    77    76    1
    53    47    48    1
    54    47    50    1
    55    52    54   ar
    56    52    51   ar
    57    54    55   ar
    58    48    49    2
    59   175   183   am
    60   175   176    2
    61   218   217    1
    62   183   184    1
    63    76    70   am
    64   137   136    2
    65   136   135    1
    66    51    50    1
    67    51    53   ar
    68   154   155    1
    69   134   135    1
    70   135   138    1
    71   130   123   am
    72    68    69    1
    73    55    53   ar
    74    55    57   ar
    75   217   216    1
    76   217   220    1
    77    53    56   ar
    78    57    59   ar
    79   223   221    1
    80    70    69    1
    81    70    71    2
    82   184   187    1
    83   184   185    1
    84   187   188    1
    85   124   123    2
    86   185   186    2
    87   189   188    1
    88   123   122    1
    89   188   190    1
    90   220   221    1
    91    69    72    1
    92   155   156   ar
    93   155   157   ar
    94    86    85    1
    95    86    87    2
    96    56    58   ar
    97   156   158   ar
    98    59    58   ar
    99   138   139    1
   100    84    85    1
   101   221   222    1
   102   139   140    1
   103    72    73    1
   104    88    85    1
   105    88    89    1
   106    91    89    1
   107   122   125    1
   108   122   121    1
   109   128   127   ar
   110   125   126    1
   111   157   159   ar
   112    89    90    1
   113    92    93    1
   114   198   197    1
   115   198   199    1
   116    73    74    1
   117    73    75    1
   118   117   116    2
   119   158   160   ar
   120   197   196    1
   121   127   126    1
   122   127   129   ar
   123   121   116   am
   124   140   141    1
   125   191   192    1
   126   159   160   ar
   127   116   115    1
   128    94    93    1
   129    94    95    2
   130    93    96    1
   131   211   210    2
   132   196   195    1
   133   119   118    1
   134   195   192    1
   135   113   111   ar
   136   113   112   ar
   137   214   213    1
   138   192   193    1
   139    96    97    1
   140   111   109   ar
   141   118   115    1
   142   118   120    1
   143   210   209    1
   144   115   114    1
   145    97    98    1
   146   193   194    2
   147   101   100    1
   148   206   205    1
   149   112   110   ar
   150     8     7    1
   151   213   212    1
   152   213   215    1
   153   102   100    1
   154   100    99    2
   155   209   212    1
   156   209   208    1
   157     7     6    1
   158   109   108   ar
   159    99    98    1
   160    15    14    1
   161    36    33    1
   162    45    43   ar
   163   110   108   ar
   164   205   207    1
   165   205   204    1
   166   108   107    1
   167    40    39    2
   168    44    43   ar
   169     6     5    1
   170    43    42    1
   171   103   104    1
   172    35    34    2
   173    39    38    1
   174    41    42    1
   175    41    38    1
   176   104   107    1
   177   104   105    1
   178    33    34    1
   179    33    32    1
   180   204   201    1
   181    13    14    1
   182    13    10    1
   183    14    16    1
   184    12    11    2
   185    38    37    1
   186    22    21    1
   187     5     2    1
   188   106   105    2
   189    32    26   am
   190    11    10    1
   191    11    17   am
   192    10     9    1
   193     2     1    1
   194     2     3    1
   195   201   200    1
   196   201   202    1
   197    18    17    1
   198    18    21    1
   199    18    19    1
   200    31    29    1
   201    23    21    1
   202     4     3    2
   203    20    19    2
   204    26    27    2
   205    26    25    1
   206   202   203    2
   207    29    28    1
   208    29    30    1
   209    28    25    1
   210    25    24    1
