@<TRIPOS>MOLECULE
tmp/4znwB00.pdb
 127 120 0 0 0
SMALL
GASTEIGER

@<TRIPOS>ATOM
      1  N          2.0410   12.7690   37.6300 N.3    51  VAL51      -0.1245
      2  CA         1.0010   11.9340   38.2190 C.3    51  VAL51       0.1561
      3  C         -0.3860   12.4670   37.8700 C.2    51  VAL51       0.2260
      4  O         -1.3030   11.6980   37.5810 O.2    51  VAL51      -0.2867
      5  CB         1.1540   11.8460   39.7470 C.3    51  VAL51       0.0252
      6  CG1        0.1280   10.8890   40.3310 C.3    51  VAL51       0.0019
      7  CG2        2.5660   11.4030   40.1060 C.3    51  VAL51       0.0019
      8  N         -1.0810   11.9680   33.9980 N.3    54  ILE54      -0.1231
      9  CA        -1.4850   10.5950   33.7150 C.3    54  ILE54       0.1692
     10  C         -2.9820   10.3970   33.9390 C.2    54  ILE54       0.2592
     11  O         -3.6690    9.7950   33.1120 O.2    54  ILE54      -0.2718
     12  CB        -0.6970    9.5960   34.5850 C.3    54  ILE54       0.0266
     13  CG1        0.7660    9.5490   34.1390 C.3    54  ILE54       0.0019
     14  CG2       -1.3120    8.2070   34.5090 C.3    54  ILE54       0.0020
     15  CD1        1.6570    8.7520   35.0630 C.3    54  ILE54       0.0001
     16  N         -3.4880   10.9180   35.0520 N.am   55  ASN55      -0.1974
     17  CA        -4.9050   10.7950   35.3710 C.3    55  ASN55       0.1688
     18  C         -5.7630   11.7770   34.5760 C.2    55  ASN55       0.2292
     19  O         -6.9510   11.5410   34.3590 O.2    55  ASN55      -0.2864
     20  CB        -5.1260   10.9850   36.8710 C.3    55  ASN55       0.1181
     21  CG        -4.5250    9.8590   37.6910 C.2    55  ASN55       0.2629
     22  OD1       -5.1700    8.8370   37.9260 O.2    55  ASN55      -0.2716
     23  ND2       -3.2820   10.0370   38.1240 N.am   55  ASN55      -0.0877
     24  N         -6.5160   10.0680   31.1030 N.3    58  LYS58      -0.1245
     25  CA        -7.6190    9.1140   31.1440 C.3    58  LYS58       0.1561
     26  C         -8.9590    9.8070   30.9270 C.2    58  LYS58       0.2260
     27  O         -9.9050    9.2070   30.4230 O.2    58  LYS58      -0.2867
     28  CB        -7.6410    8.3660   32.4760 C.3    58  LYS58       0.0271
     29  CG        -6.3620    7.6270   32.8080 C.3    58  LYS58       0.0035
     30  CD        -6.5050    6.9000   34.1340 C.3    58  LYS58       0.0206
     31  CE        -5.1810    6.3270   34.6020 C.3    58  LYS58       0.1093
     32  NZ        -5.3260    5.6120   35.8990 N.3    58  LYS58      -0.1314
     33  N         -9.2370    8.5430   24.8130 N.3    63  PHE63      -0.1241
     34  CA        -7.9050    8.0810   25.2080 C.3    63  PHE63       0.1605
     35  C         -7.9300    6.6880   25.8330 C.2    63  PHE63       0.2264
     36  O         -7.0850    5.8490   25.5160 O.2    63  PHE63      -0.2867
     37  CB        -7.2560    9.0740   26.1790 C.3    63  PHE63       0.0534
     38  CG        -5.8160    8.7640   26.4980 C.ar   63  PHE63      -0.0203
     39  CD1       -4.8050    9.1080   25.6140 C.ar   63  PHE63      -0.0042
     40  CD2       -5.4720    8.1360   27.6850 C.ar   63  PHE63      -0.0042
     41  CE1       -3.4780    8.8260   25.9060 C.ar   63  PHE63      -0.0003
     42  CE2       -4.1480    7.8520   27.9820 C.ar   63  PHE63      -0.0003
     43  CZ        -3.1510    8.1970   27.0910 C.ar   63  PHE63      -0.0000
     44  N         -3.4610   -0.1850   26.2820 N.3    68  LEU68      -0.1231
     45  CA        -2.5630    0.2730   27.3320 C.3    68  LEU68       0.1693
     46  C         -1.1820    0.6010   26.7650 C.2    68  LEU68       0.2592
     47  O         -0.5350    1.5570   27.1940 O.2    68  LEU68      -0.2718
     48  CB        -2.4600   -0.7860   28.4310 C.3    68  LEU68       0.0284
     49  CG        -1.9210   -0.3440   29.7900 C.3    68  LEU68       0.0019
     50  CD1       -2.4090    1.0540   30.1250 C.3    68  LEU68       0.0001
     51  CD2       -2.3630   -1.3270   30.8580 C.3    68  LEU68       0.0001
     52  N         -0.7420   -0.1940   25.7960 N.am   69  HIS69      -0.1976
     53  CA         0.5470    0.0360   25.1570 C.3    69  HIS69       0.1656
     54  C          0.5580    1.3590   24.3960 C.2    69  HIS69       0.2291
     55  O          1.5510    2.0850   24.4230 O.2    69  HIS69      -0.2864
     56  CB         0.8960   -1.1230   24.2210 C.3    69  HIS69       0.0771
     57  CG         1.3320   -2.3630   24.9390 C.ar   69  HIS69       0.0820
     58  ND1        1.6110   -2.3800   26.2880 N.ar   69  HIS69      -0.2267
     59  CD2        1.5380   -3.6260   24.4960 C.ar   69  HIS69       0.1154
     60  CE1        1.9700   -3.6000   26.6460 C.ar   69  HIS69       0.1986
     61  NE2        1.9340   -4.3750   25.5770 N.ar   69  HIS69      -0.2212
     62  N         -1.4600    3.9590   25.0160 N.3    71  GLN71      -0.1231
     63  CA        -1.5720    5.0310   25.9980 C.3    71  GLN71       0.1698
     64  C         -0.1970    5.3870   26.5400 C.2    71  GLN71       0.2592
     65  O          0.1410    6.5610   26.6810 O.2    71  GLN71      -0.2718
     66  CB        -2.4970    4.6310   27.1470 C.3    71  GLN71       0.0381
     67  CG        -3.9580    4.5080   26.7660 C.3    71  GLN71       0.0905
     68  CD        -4.8180    4.0830   27.9370 C.2    71  GLN71       0.2608
     69  OE1       -4.3780    4.1120   29.0860 O.2    71  GLN71      -0.2717
     70  NE2       -6.0480    3.6790   27.6510 N.am   71  GLN71      -0.0878
     71  N          0.5860    4.3580   26.8480 N.am   72  VAL72      -0.1980
     72  CA         1.9430    4.5360   27.3460 C.3    72  VAL72       0.1595
     73  C          2.7950    5.2730   26.3200 C.2    72  VAL72       0.2287
     74  O          3.5340    6.1980   26.6600 O.2    72  VAL72      -0.2864
     75  CB         2.6000    3.1790   27.6900 C.3    72  VAL72       0.0276
     76  CG1        4.1050    3.3320   27.8590 C.3    72  VAL72       0.0022
     77  CG2        1.9740    2.5920   28.9440 C.3    72  VAL72       0.0022
     78  N          1.8950    9.1020   25.9870 N.3    75  LEU75      -0.1231
     79  CA         2.3420    9.8920   27.1320 C.3    75  LEU75       0.1693
     80  C          3.8650   10.0090   27.1850 C.2    75  LEU75       0.2591
     81  O          4.3990   11.0610   27.5360 O.2    75  LEU75      -0.2718
     82  CB         1.8120    9.2940   28.4370 C.3    75  LEU75       0.0284
     83  CG         0.3870    9.6970   28.8260 C.3    75  LEU75       0.0019
     84  CD1       -0.0910    8.8980   30.0260 C.3    75  LEU75       0.0001
     85  CD2        0.3130   11.1910   29.1170 C.3    75  LEU75       0.0001
     86  N          4.5610    8.9320   26.8400 N.am   76  GLU76      -0.1979
     87  CA         6.0180    8.9630   26.7750 C.3    76  GLU76       0.1602
     88  C          6.4960    9.9950   25.7590 C.2    76  GLU76       0.2287
     89  O          7.5240   10.6430   25.9550 O.2    76  GLU76      -0.2864
     90  CB         6.5730    7.5800   26.4240 C.3    76  GLU76       0.0415
     91  CG         6.6350    6.6240   27.6030 C.3    76  GLU76       0.1163
     92  CD         7.0290    5.2180   27.2000 C.2    76  GLU76       0.3649
     93  OE1        6.7470    4.8250   26.0490 O.co2  76  GLU76      -0.2457
     94  OE2        7.6200    4.5040   28.0370 O.co2  76  GLU76      -0.2457
     95  N         12.1220    8.2830   39.6020 N.3   218  ASP218     -0.1225
     96  CA        12.0090    6.9980   38.9170 C.3   218  ASP218      0.1805
     97  C         11.0640    7.0480   37.7210 C.2   218  ASP218      0.2597
     98  O         11.3450    6.4600   36.6760 O.2   218  ASP218     -0.2718
     99  CB        11.5530    5.9180   39.8990 C.3   218  ASP218      0.1424
    100  CG        12.5670    5.6680   40.9970 C.2   218  ASP218      0.3668
    101  OD1       13.7650    5.9450   40.7690 O.co2 218  ASP218     -0.2456
    102  OD2       12.1700    5.1990   42.0860 O.co2 218  ASP218     -0.2456
    103  N          9.9410    7.7400   37.8740 N.am  219  LEU219     -0.1979
    104  CA         8.9900    7.8810   36.7780 C.3   219  LEU219      0.1596
    105  C          9.5650    8.7720   35.6860 C.2   219  LEU219      0.2287
    106  O          9.4990    8.4470   34.5030 O.2   219  LEU219     -0.2864
    107  CB         7.6640    8.4520   37.2790 C.3   219  LEU219      0.0297
    108  CG         6.6280    8.7800   36.2020 C.3   219  LEU219      0.0022
    109  CD1        6.2500    7.5330   35.4160 C.3   219  LEU219      0.0001
    110  CD2        5.3950    9.4280   36.8170 C.3   219  LEU219      0.0001
    111  N         12.0820    7.1780   33.4220 N.3   222  GLU222     -0.1231
    112  CA        11.5070    6.2940   32.4150 C.3   222  GLU222      0.1699
    113  C         10.8890    7.0840   31.2660 C.2   222  GLU222      0.2592
    114  O         10.9080    6.6390   30.1160 O.2   222  GLU222     -0.2718
    115  CB        10.4580    5.3750   33.0420 C.3   222  GLU222      0.0402
    116  CG        11.0300    4.3220   33.9670 C.3   222  GLU222      0.1161
    117  CD         9.9920    3.3050   34.3900 C.2   222  GLU222      0.3649
    118  OE1        8.7860    3.5550   34.1730 O.co2 222  GLU222     -0.2457
    119  OE2       10.3840    2.2540   34.9370 O.co2 222  GLU222     -0.2457
    120  N         10.3380    8.2540   31.5800 N.am  223  MET223     -0.1979
    121  CA         9.7780    9.1300   30.5580 C.3   223  MET223      0.1605
    122  C         10.9000    9.6590   29.6690 C.2   223  MET223      0.2287
    123  O         10.7200    9.8370   28.4640 O.2   223  MET223     -0.2864
    124  CB         9.0020   10.2900   31.1920 C.3   223  MET223      0.0413
    125  CG         7.9590    9.8750   32.2200 C.3   223  MET223      0.0598
    126  SD         6.6220    8.8670   31.5600 S.3   223  MET223     -0.1393
    127  CE         5.7630   10.0590   30.5440 C.3   223  MET223      0.0692
@<TRIPOS>BOND
     1    56    57    1
     2    56    53    1
     3    54    55    2
     4    54    53    1
     5    59    57   ar
     6    59    61   ar
     7    33    34    1
     8    57    58   ar
     9    62    63    1
    10    53    52    1
    11    34    35    1
    12    34    37    1
    13    36    35    2
    14    61    60   ar
    15    39    41   ar
    16    39    38   ar
    17    88    89    2
    18    88    87    1
    19    52    46   am
    20    41    43   ar
    21    78    79    1
    22    63    64    1
    23    63    66    1
    24    93    92   ar
    25    37    38    1
    26    44    45    1
    27    58    60   ar
    28    73    74    2
    29    73    72    1
    30    90    87    1
    31    90    91    1
    32    38    40   ar
    33    64    65    2
    34    64    71   am
    35    46    47    2
    36    46    45    1
    37    67    66    1
    38    67    68    1
    39    87    86    1
    40    86    80   am
    41    71    72    1
    42    43    42   ar
    43    79    80    1
    44    79    82    1
    45    80    81    2
    46    92    91    1
    47    92    94   ar
    48    45    48    1
    49    72    75    1
    50    70    68   am
    51    40    42   ar
    52    75    76    1
    53    75    77    1
    54    68    69    2
    55    48    49    1
    56    82    83    1
    57   123   122    2
    58    83    85    1
    59    83    84    1
    60   122   121    1
    61    49    50    1
    62    49    51    1
    63   114   113    2
    64    27    26    2
    65   127   126    1
    66   121   124    1
    67   121   120    1
    68    26    25    1
    69    24    25    1
    70    25    28    1
    71   124   125    1
    72   113   120   am
    73   113   112    1
    74   126   125    1
    75   112   115    1
    76   112   111    1
    77    28    29    1
    78    29    30    1
    79   115   116    1
    80    11    10    2
    81     9    10    1
    82     9     8    1
    83     9    12    1
    84    10    16   am
    85   116   117    1
    86    30    31    1
    87    13    12    1
    88    13    15    1
    89   118   117   ar
    90    19    18    2
    91   117   119   ar
    92   106   105    2
    93    14    12    1
    94    18    17    1
    95    31    32    1
    96    16    17    1
    97    17    20    1
    98   109   108    1
    99   105   104    1
   100   108   110    1
   101   108   107    1
   102    98    97    2
   103   104   107    1
   104   104   103    1
   105    20    21    1
   106     4     3    2
   107     1     2    1
   108    21    22    2
   109    21    23   am
   110    97   103   am
   111    97    96    1
   112     3     2    1
   113     2     5    1
   114    96    95    1
   115    96    99    1
   116     5     7    1
   117     5     6    1
   118    99   100    1
   119   101   100   ar
   120   100   102   ar
