@<TRIPOS>MOLECULE
tmp/4zo1A00.pdb
 107 99 0 0 0
SMALL
GASTEIGER

@<TRIPOS>ATOM
      1  N        -20.6340   13.3770   20.5180 N.3    62  THR62      -0.1218
      2  CA       -22.0680   13.5850   20.6480 C.3    62  THR62       0.1862
      3  C        -22.8100   12.7740   19.5940 C.2    62  THR62       0.2287
      4  O        -23.7530   12.0480   19.9050 O.2    62  THR62      -0.2866
      5  CB       -22.4410   15.0720   20.5140 C.3    62  THR62       0.1770
      6  OG1      -22.0820   15.5460   19.2110 O.3    62  THR62      -0.2211
      7  CG2      -21.7110   15.8950   21.5570 C.3    62  THR62       0.0375
      8  N        -23.3160    9.3830   20.7090 N.3    65  VAL65      -0.1245
      9  CA       -24.3870    9.3140   21.6940 C.3    65  VAL65       0.1561
     10  C        -25.7670    9.3670   21.0450 C.2    65  VAL65       0.2260
     11  O        -26.6940    8.6780   21.4760 O.2    65  VAL65      -0.2867
     12  CB       -24.2870   10.4720   22.6980 C.3    65  VAL65       0.0252
     13  CG1      -25.2890   10.2850   23.8280 C.3    65  VAL65       0.0019
     14  CG2      -22.8710   10.5820   23.2400 C.3    65  VAL65       0.0019
     15  N        -29.1680    6.8980   21.3770 N.3    69  LYS69      -0.1245
     16  CA       -30.5230    7.3140   21.7280 C.3    69  LYS69       0.1561
     17  C        -31.5550    6.9180   20.6760 C.2    69  LYS69       0.2260
     18  O        -32.7440    6.8120   20.9820 O.2    69  LYS69      -0.2867
     19  CB       -30.5900    8.8220   21.9860 C.3    69  LYS69       0.0271
     20  CG       -29.9770    9.2620   23.3040 C.3    69  LYS69       0.0035
     21  CD       -30.0600   10.7710   23.4550 C.3    69  LYS69       0.0206
     22  CE       -29.4940   11.4690   22.2260 C.3    69  LYS69       0.1093
     23  NZ       -29.5200   12.9530   22.3430 N.3    69  LYS69      -0.1314
     24  N        -31.4300    0.3840   23.9260 N.3    74  PHE74      -0.1241
     25  CA       -30.5070    1.2190   24.6940 C.3    74  PHE74       0.1605
     26  C        -31.2530    2.2080   25.5840 C.2    74  PHE74       0.2264
     27  O        -30.7990    2.5400   26.6810 O.2    74  PHE74      -0.2867
     28  CB       -29.5710    1.9790   23.7500 C.3    74  PHE74       0.0534
     29  CG       -28.6440    2.9420   24.4470 C.ar   74  PHE74      -0.0203
     30  CD1      -27.4760    2.4920   25.0270 C.ar   74  PHE74      -0.0042
     31  CD2      -28.9320    4.2990   24.5030 C.ar   74  PHE74      -0.0042
     32  CE1      -26.6200    3.3700   25.6600 C.ar   74  PHE74      -0.0003
     33  CE2      -28.0750    5.1810   25.1370 C.ar   74  PHE74      -0.0003
     34  CZ       -26.9200    4.7160   25.7110 C.ar   74  PHE74      -0.0000
     35  N        -29.6770    4.6980   33.5670 N.3    79  CYS79      -0.1235
     36  CA       -28.7110    5.7500   33.2570 C.3    79  CYS79       0.1677
     37  C        -27.2840    5.3250   33.6080 C.2    79  CYS79       0.2270
     38  O        -26.3280    5.7420   32.9560 O.2    79  CYS79      -0.2867
     39  CB       -29.0780    7.0470   33.9870 C.3    79  CYS79       0.0956
     40  SG       -28.1320    8.5100   33.4880 S.3    79  CYS79      -0.0801
     41  N        -26.2300    3.0020   30.8980 N.3    82  GLN82      -0.1231
     42  CA       -26.2940    3.8660   29.7210 C.3    82  GLN82       0.1698
     43  C        -24.9880    4.6390   29.5260 C.2    82  GLN82       0.2592
     44  O        -24.4560    4.7010   28.4170 O.2    82  GLN82      -0.2718
     45  CB       -27.4890    4.8250   29.8310 C.3    82  GLN82       0.0381
     46  CG       -27.7350    5.6920   28.6040 C.3    82  GLN82       0.0905
     47  CD       -29.0180    6.4910   28.7070 C.2    82  GLN82       0.2608
     48  OE1      -29.6750    6.4860   29.7430 O.2    82  GLN82      -0.2717
     49  NE2      -29.3840    7.1820   27.6290 N.am   82  GLN82      -0.0878
     50  N        -24.4700    5.2080   30.6110 N.am   83  ILE83      -0.1980
     51  CA       -23.2310    5.9730   30.5600 C.3    83  ILE83       0.1595
     52  C        -22.0420    5.0720   30.3000 C.2    83  ILE83       0.2287
     53  O        -21.1620    5.4050   29.5110 O.2    83  ILE83      -0.2864
     54  CB       -22.9620    6.7150   31.8760 C.3    83  ILE83       0.0276
     55  CG1      -24.0390    7.7720   32.1240 C.3    83  ILE83       0.0022
     56  CG2      -21.5860    7.3620   31.8480 C.3    83  ILE83       0.0022
     57  CD1      -24.1440    8.8160   31.0310 C.3    83  ILE83       0.0001
     58  N        -21.4950    3.7530   26.6150 N.3    86  LEU86      -0.1231
     59  CA       -20.9260    4.7960   25.7790 C.3    86  LEU86       0.1693
     60  C        -19.4340    4.9530   26.0350 C.2    86  LEU86       0.2591
     61  O        -18.6250    4.7560   25.1310 O.2    86  LEU86      -0.2718
     62  CB       -21.6450    6.1180   26.0200 C.3    86  LEU86       0.0284
     63  CG       -23.0860    6.1360   25.5170 C.3    86  LEU86       0.0019
     64  CD1      -23.7520    7.4530   25.8580 C.3    86  LEU86       0.0001
     65  CD2      -23.1200    5.8850   24.0180 C.3    86  LEU86       0.0001
     66  N        -19.0730    5.3030   27.2670 N.am   87  LYS87      -0.1980
     67  CA       -17.6740    5.5160   27.6340 C.3    87  LYS87       0.1596
     68  C        -16.7620    4.4370   27.0530 C.2    87  LYS87       0.2287
     69  O        -15.6450    4.7210   26.6130 O.2    87  LYS87      -0.2864
     70  CB       -17.5230    5.5720   29.1560 C.3    87  LYS87       0.0298
     71  CG       -18.1980    6.7720   29.8050 C.3    87  LYS87       0.0038
     72  CD       -18.2380    6.6440   31.3200 C.3    87  LYS87       0.0206
     73  CE       -16.8480    6.4570   31.9130 C.3    87  LYS87       0.1093
     74  NZ       -15.9530    7.6200   31.6610 N.3    87  LYS87      -0.1314
     75  N        -14.0710   19.4800   27.4670 N.3   234  PRO234     -0.2102
     76  CA       -14.8210   18.9200   28.5980 C.3   234  PRO234      0.1504
     77  C        -15.4300   17.5560   28.2830 C.2   234  PRO234      0.2575
     78  O        -15.1780   16.5920   29.0060 O.2   234  PRO234     -0.2718
     79  CB       -15.9310   19.9510   28.8220 C.3   234  PRO234      0.0282
     80  CG       -15.3660   21.2260   28.3060 C.3   234  PRO234      0.0208
     81  CD       -14.5230   20.8410   27.1260 C.3   234  PRO234      0.0893
     82  N        -16.2220   17.4830   27.2180 N.am  235  LEU235     -0.1980
     83  CA       -16.8880   16.2400   26.8460 C.3   235  LEU235      0.1596
     84  C        -15.8950   15.0990   26.6700 C.2   235  LEU235      0.2287
     85  O        -16.1200   13.9910   27.1540 O.2   235  LEU235     -0.2864
     86  CB       -17.6970   16.4240   25.5630 C.3   235  LEU235      0.0297
     87  CG       -18.3740   15.1530   25.0490 C.3   235  LEU235      0.0022
     88  CD1      -19.2680   14.5540   26.1230 C.3   235  LEU235      0.0001
     89  CD2      -19.1620   15.4370   23.7840 C.3   235  LEU235      0.0001
     90  N        -14.6810   13.7500   30.1480 N.3   238  GLU238     -0.1245
     91  CA       -15.7350   12.9520   30.7540 C.3   238  GLU238      0.1567
     92  C        -15.7980   11.5550   30.1500 C.2   238  GLU238      0.2260
     93  O        -16.0830   10.5880   30.8540 O.2   238  GLU238     -0.2867
     94  CB       -17.0900   13.6510   30.6030 C.3   238  GLU238      0.0388
     95  CG       -17.1390   15.0380   31.2390 C.3   238  GLU238      0.1160
     96  CD       -18.4790   15.7270   31.0600 C.2   238  GLU238      0.3649
     97  OE1      -19.3370   15.1770   30.3410 O.co2 238  GLU238     -0.2457
     98  OE2      -18.6750   16.8190   31.6370 O.co2 238  GLU238     -0.2457
     99  N        -12.2730    9.5830   31.1280 N.3   241  GLU241     -0.1245
    100  CA       -11.7430    9.8300   32.4650 C.3   241  GLU241      0.1567
    101  C        -12.3290    8.8670   33.4920 C.2   241  GLU241      0.2260
    102  O        -13.3720    9.1410   34.0890 O.2   241  GLU241     -0.2867
    103  CB       -11.9930   11.2800   32.8900 C.3   241  GLU241      0.0388
    104  CG       -11.6020   11.5940   34.3300 C.3   241  GLU241      0.1160
    105  CD       -10.1070   11.4780   34.5840 C.2   241  GLU241      0.3649
    106  OE1       -9.4880   10.5000   34.1160 O.co2 241  GLU241     -0.2457
    107  OE2       -9.5490   12.3650   35.2650 O.co2 241  GLU241     -0.2457
@<TRIPOS>BOND
     1     6     5    1
     2     3     4    2
     3     3     2    1
     4     5     2    1
     5     5     7    1
     6     1     2    1
     7    17    18    2
     8    17    16    1
     9     8     9    1
    10    10    11    2
    11    10     9    1
    12    15    16    1
    13     9    12    1
    14    16    19    1
    15    19    20    1
    16    22    23    1
    17    22    21    1
    18    12    14    1
    19    12    13    1
    20    20    21    1
    21    28    29    1
    22    28    25    1
    23    89    87    1
    24    24    25    1
    25    65    63    1
    26    29    31   ar
    27    29    30   ar
    28    31    33   ar
    29    25    26    1
    30    30    32   ar
    31    87    86    1
    32    87    88    1
    33    61    60    2
    34    33    34   ar
    35    63    64    1
    36    63    62    1
    37    86    83    1
    38    26    27    2
    39    32    34   ar
    40    59    62    1
    41    59    60    1
    42    59    58    1
    43    60    66   am
    44    69    68    2
    45    84    83    1
    46    84    85    2
    47    83    82    1
    48    68    67    1
    49    81    75    1
    50    81    80    1
    51    82    77   am
    52    66    67    1
    53    75    76    1
    54    49    47   am
    55    67    70    1
    56    77    76    1
    57    77    78    2
    58    80    79    1
    59    44    43    2
    60    76    79    1
    61    46    47    1
    62    46    45    1
    63    47    48    2
    64    70    71    1
    65    53    52    2
    66    43    42    1
    67    43    50   am
    68    42    45    1
    69    42    41    1
    70    71    72    1
    71    90    91    1
    72    92    91    1
    73    92    93    2
    74    52    51    1
    75    97    96   ar
    76    51    50    1
    77    51    54    1
    78    94    91    1
    79    94    95    1
    80    57    55    1
    81    96    95    1
    82    96    98   ar
    83    99   100    1
    84    72    73    1
    85    74    73    1
    86    56    54    1
    87    54    55    1
    88   100   103    1
    89   100   101    1
    90   103   104    1
    91    38    37    2
    92    36    35    1
    93    36    37    1
    94    36    39    1
    95    40    39    1
    96   101   102    2
    97   106   105   ar
    98   104   105    1
    99   105   107   ar
