@<TRIPOS>MOLECULE
tmp/4zo3B00.pdb
 185 179 0 0 0
SMALL
GASTEIGER

@<TRIPOS>ATOM
      1  N         17.3470  -10.0840  -17.2210 N.3    24  ILE24      -0.1245
      2  CA        17.0190  -10.9450  -16.0960 C.3    24  ILE24       0.1561
      3  C         16.0250  -12.0400  -16.5280 C.2    24  ILE24       0.2260
      4  O         14.9190  -11.7330  -16.9550 O.2    24  ILE24      -0.2867
      5  CB        16.4180  -10.1080  -14.9370 C.3    24  ILE24       0.0252
      6  CG1       17.4100   -9.0350  -14.4720 C.3    24  ILE24       0.0019
      7  CG2       15.9980  -10.9980  -13.7680 C.3    24  ILE24       0.0019
      8  CD1       16.7560   -7.8770  -13.7480 C.3    24  ILE24       0.0001
      9  N         13.5640  -14.5740  -15.4750 N.3    26  GLU26      -0.1245
     10  CA        12.8100  -14.8960  -14.2670 C.3    26  GLU26       0.1567
     11  C         11.8830  -16.0890  -14.4710 C.2    26  GLU26       0.2260
     12  O         10.8390  -15.9630  -15.1040 O.2    26  GLU26      -0.2867
     13  CB        12.0080  -13.6790  -13.8040 C.3    26  GLU26       0.0388
     14  CG        11.2300  -13.9250  -12.5270 C.3    26  GLU26       0.1160
     15  CD        12.1250  -14.4570  -11.4210 C.2    26  GLU26       0.3649
     16  OE1       12.0110  -15.6560  -11.0810 O.co2  26  GLU26      -0.2457
     17  OE2       12.9630  -13.6820  -10.9170 O.co2  26  GLU26      -0.2457
     18  N         13.2230   -9.8840  -18.2850 N.3    57  MET57      -0.1245
     19  CA        13.2090   -8.4430  -18.0740 C.3    57  MET57       0.1570
     20  C         14.4840   -7.8050  -18.6240 C.2    57  MET57       0.2261
     21  O         15.5860   -8.2420  -18.3040 O.2    57  MET57      -0.2867
     22  CB        13.0610   -8.1120  -16.5780 C.3    57  MET57       0.0387
     23  CG        11.6670   -8.4100  -16.0350 C.3    57  MET57       0.0595
     24  SD        11.5210   -8.0650  -14.2680 S.3    57  MET57      -0.1393
     25  CE        12.7320   -9.1880  -13.5880 C.3    57  MET57       0.0692
     26  N         18.4100   -0.2240   -6.0090 N.3   111  HIS111     -0.1227
     27  CA        18.3220   -1.6580   -6.1990 C.3   111  HIS111      0.1737
     28  C         19.5810   -2.1430   -6.9140 C.2   111  HIS111      0.2438
     29  O         20.2030   -1.3650   -7.6230 O.2   111  HIS111     -0.2733
     30  CB        17.0710   -2.0200   -7.0000 C.3   111  HIS111      0.0758
     31  CG        15.8490   -2.1830   -6.1530 C.ar  111  HIS111      0.0818
     32  ND1       14.5890   -2.3560   -6.6870 N.ar  111  HIS111     -0.2268
     33  CD2       15.6990   -2.2040   -4.8070 C.ar  111  HIS111      0.1154
     34  CE1       13.7160   -2.4790   -5.7030 C.ar  111  HIS111      0.1986
     35  NE2       14.3600   -2.3830   -4.5530 N.ar  111  HIS111     -0.2212
     36  N         19.9520   -3.4160   -6.7150 N.am  112  PRO112     -0.2718
     37  CA        21.1810   -3.9760   -7.3080 C.3   112  PRO112      0.1535
     38  C         21.2990   -3.7720   -8.8250 C.2   112  PRO112      0.2598
     39  O         22.4030   -3.5200   -9.3190 O.2   112  PRO112     -0.2715
     40  CB        21.0730   -5.4670   -6.9800 C.3   112  PRO112      0.0310
     41  CG        20.2790   -5.5120   -5.7330 C.3   112  PRO112      0.0237
     42  CD        19.3020   -4.3780   -5.8090 C.3   112  PRO112      0.0939
     43  N         20.1830   -3.8750   -9.5480 N.am  113  ASP113     -0.1972
     44  CA        20.2320   -3.7860  -11.0070 C.3   113  ASP113      0.1709
     45  C         20.2760   -2.3400  -11.5280 C.2   113  ASP113      0.2293
     46  O         20.1890   -2.0990  -12.7340 O.2   113  ASP113     -0.2864
     47  CB        19.0460   -4.5460  -11.6250 C.3   113  ASP113      0.1436
     48  CG        17.7020   -4.1290  -11.0440 C.2   113  ASP113      0.3671
     49  OD1       17.5540   -4.1150   -9.8000 O.co2 113  ASP113     -0.2456
     50  OD2       16.7880   -3.8060  -11.8370 O.co2 113  ASP113     -0.2456
     51  N         17.8330    3.3150    2.5710 N.3   142  TRP142     -0.1241
     52  CA        18.6900    2.1420    2.4910 C.3   142  TRP142      0.1605
     53  C         19.7410    2.1490    3.5990 C.2   142  TRP142      0.2264
     54  O         20.0700    1.1000    4.1430 O.2   142  TRP142     -0.2867
     55  CB        19.3240    2.0520    1.1020 C.3   142  TRP142      0.0550
     56  CG        18.2960    1.6630    0.0910 C.ar  142  TRP142      0.0003
     57  CD1       17.7430    2.4570   -0.8760 C.ar  142  TRP142      0.0946
     58  CD2       17.6490    0.3910   -0.0150 C.ar  142  TRP142      0.0152
     59  NE1       16.8070    1.7440   -1.5910 N.ar  142  TRP142     -0.2442
     60  CE2       16.7310    0.4740   -1.0800 C.ar  142  TRP142      0.0810
     61  CE3       17.7680   -0.8170    0.6790 C.ar  142  TRP142      0.0012
     62  CZ2       15.9410   -0.6050   -1.4690 C.ar  142  TRP142      0.0191
     63  CZ3       16.9750   -1.8850    0.2980 C.ar  142  TRP142      0.0001
     64  CH2       16.0760   -1.7740   -0.7670 C.ar  142  TRP142      0.0015
     65  N          9.7190   -3.9480    5.1990 N.3   150  PHE150     -0.1241
     66  CA         9.2730   -4.7250    4.0540 C.3   150  PHE150      0.1605
     67  C          8.0230   -5.5360    4.3780 C.2   150  PHE150      0.2264
     68  O          7.6850   -6.4890    3.6760 O.2   150  PHE150     -0.2867
     69  CB        10.4180   -5.6360    3.5690 C.3   150  PHE150      0.0534
     70  CG        11.5900   -4.8780    2.9830 C.ar  150  PHE150     -0.0203
     71  CD1       12.4770   -4.1910    3.8040 C.ar  150  PHE150     -0.0042
     72  CD2       11.7980   -4.8490    1.6090 C.ar  150  PHE150     -0.0042
     73  CE1       13.5410   -3.4830    3.2690 C.ar  150  PHE150     -0.0003
     74  CE2       12.8610   -4.1450    1.0650 C.ar  150  PHE150     -0.0003
     75  CZ        13.7400   -3.4630    1.9000 C.ar  150  PHE150     -0.0000
     76  N          8.6090   -9.3190   -0.3700 N.3   155  LEU155     -0.1245
     77  CA         9.9520   -9.6840    0.0830 C.3   155  LEU155      0.1561
     78  C          9.9890  -10.1300    1.5470 C.2   155  LEU155      0.2260
     79  O         10.9890  -10.6850    1.9970 O.2   155  LEU155     -0.2867
     80  CB        10.9180   -8.5130   -0.1270 C.3   155  LEU155      0.0270
     81  CG        11.2190   -8.1580   -1.5870 C.3   155  LEU155      0.0019
     82  CD1       11.9180   -6.8170   -1.7070 C.3   155  LEU155      0.0001
     83  CD2       12.0380   -9.2530   -2.2370 C.3   155  LEU155      0.0001
     84  N         17.1200  -13.1420    2.1190 N.3   161  ARG161     -0.1231
     85  CA        17.5930  -12.3780    0.9770 C.3   161  ARG161      0.1694
     86  C         17.7650  -10.9060    1.3270 C.2   161  ARG161      0.2591
     87  O         18.7430  -10.2820    0.9240 O.2   161  ARG161     -0.2718
     88  CB        16.6340  -12.5320   -0.2000 C.3   161  ARG161      0.0321
     89  CG        16.1590  -13.9570   -0.4180 C.3   161  ARG161      0.0489
     90  CD        16.0740  -14.2730   -1.8980 C.3   161  ARG161      0.2205
     91  NE        14.9250  -15.1200   -2.2050 N.pl3 161  ARG161     -0.0865
     92  CZ        13.9460  -14.7710   -3.0330 C.cat 161  ARG161      0.5346
     93  NH1       13.9690  -13.5840   -3.6320 N.pl3 161  ARG161      0.1354
     94  NH2       12.9380  -15.6020   -3.2570 N.pl3 161  ARG161      0.1354
     95  N         16.8140  -10.3460    2.0700 N.am  162  LEU162     -0.1980
     96  CA        16.9270   -8.9590    2.4990 C.3   162  LEU162      0.1596
     97  C         18.1860   -8.7560    3.3390 C.2   162  LEU162      0.2287
     98  O         18.9220   -7.7830    3.1560 O.2   162  LEU162     -0.2864
     99  CB        15.6930   -8.5330    3.2930 C.3   162  LEU162      0.0297
    100  CG        14.3900   -8.3860    2.5030 C.3   162  LEU162      0.0022
    101  CD1       13.2300   -8.0770    3.4340 C.3   162  LEU162      0.0001
    102  CD2       14.5290   -7.2950    1.4570 C.3   162  LEU162      0.0001
    103  N         21.3540   -8.7370    1.0040 N.3   165  ILE165     -0.1231
    104  CA        21.5230   -7.6980   -0.0140 C.3   165  ILE165      0.1692
    105  C         21.6070   -6.2790    0.5530 C.2   165  ILE165      0.2591
    106  O         22.3430   -5.4400    0.0280 O.2   165  ILE165     -0.2718
    107  CB        20.3740   -7.7560   -1.0560 C.3   165  ILE165      0.0266
    108  CG1       20.5070   -9.0170   -1.9050 C.3   165  ILE165      0.0019
    109  CG2       20.4020   -6.5490   -1.9800 C.3   165  ILE165      0.0020
    110  CD1       21.8120   -9.0900   -2.6650 C.3   165  ILE165      0.0001
    111  N         20.8610   -6.0080    1.6210 N.am  166  ILE166     -0.1980
    112  CA        20.8330   -4.6700    2.1990 C.3   166  ILE166      0.1595
    113  C         22.2440   -4.1560    2.5880 C.2   166  ILE166      0.2287
    114  O         22.5960   -3.0240    2.2370 O.2   166  ILE166     -0.2864
    115  CB        19.8850   -4.6140    3.4180 C.3   166  ILE166      0.0276
    116  CG1       18.4230   -4.6970    2.9490 C.3   166  ILE166      0.0022
    117  CG2       20.1150   -3.3440    4.2060 C.3   166  ILE166      0.0022
    118  CD1       17.3970   -4.7100    4.0730 C.3   166  ILE166      0.0001
    119  N         24.1070   -3.0160   -0.5880 N.3   169  LEU169     -0.1245
    120  CA        23.6590   -1.7260   -1.0880 C.3   169  LEU169      0.1561
    121  C         24.1430   -0.5860   -0.1980 C.2   169  LEU169      0.2260
    122  O         24.4940    0.4960   -0.6730 O.2   169  LEU169     -0.2867
    123  CB        22.1390   -1.6950   -1.1790 C.3   169  LEU169      0.0270
    124  CG        21.4940   -2.7780   -2.0400 C.3   169  LEU169      0.0019
    125  CD1       19.9800   -2.6470   -1.9760 C.3   169  LEU169      0.0001
    126  CD2       21.9860   -2.6780   -3.4760 C.3   169  LEU169      0.0001
    127  N          7.8210    1.3370   -5.1700 N.3   201  HIS201     -0.1241
    128  CA         8.8150    0.3370   -5.5400 C.3   201  HIS201      0.1621
    129  C          9.9750    0.4600   -4.5390 C.2   201  HIS201      0.2264
    130  O         10.3960   -0.5290   -3.9370 O.2   201  HIS201     -0.2867
    131  CB         9.2850    0.5310   -6.9810 C.3   201  HIS201      0.0745
    132  CG        10.3080   -0.4690   -7.4160 C.ar  201  HIS201      0.0817
    133  ND1       10.0210   -1.8100   -7.5640 N.ar  201  HIS201     -0.2268
    134  CD2       11.6270   -0.3320   -7.6960 C.ar  201  HIS201      0.1154
    135  CE1       11.1180   -2.4520   -7.9310 C.ar  201  HIS201      0.1986
    136  NE2       12.1040   -1.5770   -8.0180 N.ar  201  HIS201     -0.2212
    137  N         11.6560    1.9080  -12.6400 N.3   222  ASP222     -0.1239
    138  CA        11.0130    0.6660  -12.1840 C.3   222  ASP222      0.1674
    139  C          9.5450    0.8330  -11.7920 C.2   222  ASP222      0.2266
    140  O          9.0170    0.0460  -11.0100 O.2   222  ASP222     -0.2867
    141  CB        11.7880    0.0560  -11.0000 C.3   222  ASP222      0.1410
    142  CG        12.9930   -0.7510  -11.4550 C.2   222  ASP222      0.3668
    143  OD1       13.4370   -0.4380  -12.5740 O.co2 222  ASP222     -0.2456
    144  OD2       13.4660   -1.6830  -10.7410 O.co2 222  ASP222     -0.2456
    145  N          7.0380   -3.3290  -14.5640 N.3   225  HIS225     -0.1241
    146  CA         8.0390   -4.3270  -14.9570 C.3   225  HIS225      0.1621
    147  C          7.6450   -5.2580  -16.0950 C.2   225  HIS225      0.2264
    148  O          8.4890   -6.0010  -16.5940 O.2   225  HIS225     -0.2867
    149  CB         8.4270   -5.1620  -13.7430 C.3   225  HIS225      0.0745
    150  CG         9.2870   -4.4180  -12.7670 C.ar  225  HIS225      0.0817
    151  ND1        8.7860   -3.4540  -11.9190 N.ar  225  HIS225     -0.2268
    152  CD2       10.6210   -4.4620  -12.5420 C.ar  225  HIS225      0.1154
    153  CE1        9.7700   -2.9600  -11.1880 C.ar  225  HIS225      0.1986
    154  NE2       10.8960   -3.5500  -11.5490 N.ar  225  HIS225     -0.2212
    155  N          4.5350   -6.1310   -8.2520 N.3   238  PHE238     -0.1227
    156  CA         5.8080   -6.7220   -8.6390 C.3   238  PHE238      0.1736
    157  C          6.5590   -7.2260   -7.3990 C.2   238  PHE238      0.2596
    158  O          6.5460   -6.5700   -6.3660 O.2   238  PHE238     -0.2718
    159  CB         6.6570   -5.7110   -9.4080 C.3   238  PHE238      0.0547
    160  CG         7.9820   -6.2600   -9.8390 C.ar  238  PHE238     -0.0202
    161  CD1        8.0420   -7.3040  -10.7450 C.ar  238  PHE238     -0.0042
    162  CD2        9.1620   -5.7500   -9.3250 C.ar  238  PHE238     -0.0042
    163  CE1        9.2580   -7.8330  -11.1400 C.ar  238  PHE238     -0.0003
    164  CE2       10.3890   -6.2690   -9.7150 C.ar  238  PHE238     -0.0003
    165  CZ        10.4360   -7.3140  -10.6230 C.ar  238  PHE238     -0.0000
    166  N          7.2030   -8.3890   -7.5090 N.am  239  SER239     -0.1938
    167  CA         7.8290   -9.0380   -6.3600 C.3   239  SER239      0.2055
    168  C          8.8430   -8.1340   -5.6630 C.2   239  SER239      0.2643
    169  O          9.0530   -8.2520   -4.4600 O.2   239  SER239     -0.2714
    170  CB         8.5090  -10.3420   -6.7800 C.3   239  SER239      0.2130
    171  OG         9.4800  -10.1050   -7.7810 O.3   239  SER239     -0.2179
    172  N          9.4270   -7.2070   -6.4140 N.am  240  GLY240     -0.1954
    173  CA        10.4710   -6.3350   -5.9010 C.3   240  GLY240      0.1869
    174  C         10.0000   -5.0810   -5.1840 C.2   240  GLY240      0.2309
    175  O         10.7880   -4.4440   -4.4800 O.2   240  GLY240     -0.2863
    176  N         12.9520   -1.8980  -17.7850 N.3   269  HIS269     -0.1241
    177  CA        12.8080   -3.3430  -17.8450 C.3   269  HIS269      0.1621
    178  C         11.8470   -3.8510  -18.9140 C.2   269  HIS269      0.2264
    179  O         11.7450   -5.0580  -19.1100 O.2   269  HIS269     -0.2867
    180  CB        12.3730   -3.8760  -16.4790 C.3   269  HIS269      0.0745
    181  CG        13.3870   -3.6690  -15.3980 C.ar  269  HIS269      0.0817
    182  ND1       14.7100   -4.0360  -15.5350 N.ar  269  HIS269     -0.2268
    183  CD2       13.2730   -3.1260  -14.1600 C.ar  269  HIS269      0.1154
    184  CE1       15.3650   -3.7370  -14.4250 C.ar  269  HIS269      0.1986
    185  NE2       14.5160   -3.1830  -13.5760 N.ar  269  HIS269     -0.2212
@<TRIPOS>BOND
     1   179   178    2
     2   178   177    1
     3    20    21    2
     4    20    19    1
     5    18    19    1
     6    19    22    1
     7   177   176    1
     8   177   180    1
     9     1     2    1
    10     4     3    2
    11   148   147    2
    12    22    23    1
    13     3     2    1
    14   180   181    1
    15     2     5    1
    16   147   146    1
    17    23    24    1
    18   182   181   ar
    19   182   184   ar
    20     9    10    1
    21   181   183   ar
    22    12    11    2
    23   146   145    1
    24   146   149    1
    25     5     6    1
    26     5     7    1
    27     6     8    1
    28    11    10    1
    29   184   185   ar
    30    24    25    1
    31    10    13    1
    32   183   185   ar
    33    13    14    1
    34   149   150    1
    35   150   152   ar
    36   150   151   ar
    37    46    45    2
    38   137   138    1
    39   143   142   ar
    40   152   154   ar
    41    14    15    1
    42   138   139    1
    43   138   141    1
    44   151   153   ar
    45    50    48   ar
    46   139   140    2
    47    47    48    1
    48    47    44    1
    49   154   153   ar
    50    45    44    1
    51   142   141    1
    52   142   144   ar
    53    15    16   ar
    54    15    17   ar
    55   163   161   ar
    56   163   165   ar
    57    48    49   ar
    58    44    43    1
    59   161   160   ar
    60   165   164   ar
    61   160   159    1
    62   160   162   ar
    63   164   162   ar
    64    43    38   am
    65   159   156    1
    66    39    38    2
    67    38    37    1
    68   156   155    1
    69   156   157    1
    70   136   135   ar
    71   136   134   ar
    72   135   133   ar
    73   171   170    1
    74   134   132   ar
    75    29    28    2
    76   133   132   ar
    77   166   157   am
    78   166   167    1
    79   132   131    1
    80   157   158    2
    81    37    40    1
    82    37    36    1
    83    30    27    1
    84    30    31    1
    85   131   128    1
    86    40    41    1
    87    28    36   am
    88    28    27    1
    89   170   167    1
    90    36    42    1
    91    32    31   ar
    92    32    34   ar
    93   172   173    1
    94   172   168   am
    95   167   168    1
    96    27    26    1
    97    31    33   ar
    98   173   174    1
    99    42    41    1
   100    34    35   ar
   101   168   169    2
   102   128   127    1
   103   128   129    1
   104   174   175    2
   105    33    35   ar
   106   129   130    2
   107    93    92    1
   108   126   124    1
   109    94    92    1
   110    92    91    2
   111   110   108    1
   112    83    81    1
   113    91    90    1
   114   124   125    1
   115   124   123    1
   116   109   107    1
   117   108   107    1
   118    90    89    1
   119    82    81    1
   120    59    60   ar
   121    59    57   ar
   122    81    80    1
   123    62    60   ar
   124    62    64   ar
   125   123   120    1
   126   120   119    1
   127   120   121    1
   128    60    58   ar
   129   107   104    1
   130    57    56   ar
   131    64    63   ar
   132   122   121    2
   133    89    88    1
   134    76    77    1
   135    88    85    1
   136    80    77    1
   137    58    56   ar
   138    58    61   ar
   139   104   105    1
   140   104   103    1
   141   106   105    2
   142    77    78    1
   143    56    55    1
   144    63    61   ar
   145   105   111   am
   146    87    86    2
   147    85    86    1
   148    85    84    1
   149    74    72   ar
   150    74    75   ar
   151    55    52    1
   152    86    95   am
   153   102   100    1
   154    78    79    2
   155    72    70   ar
   156   111   112    1
   157    75    73   ar
   158    95    96    1
   159   112   113    1
   160   112   115    1
   161   114   113    2
   162    52    51    1
   163    52    53    1
   164    96    99    1
   165    96    97    1
   166   100    99    1
   167   100   101    1
   168   116   115    1
   169   116   118    1
   170    70    69    1
   171    70    71   ar
   172    98    97    2
   173    73    71   ar
   174   115   117    1
   175    69    66    1
   176    53    54    2
   177    68    67    2
   178    66    67    1
   179    66    65    1
