@<TRIPOS>MOLECULE
tmp/4zo5A00.pdb
 183 175 0 0 0
SMALL
GASTEIGER

@<TRIPOS>ATOM
      1  N         14.2240   15.4510   49.2520 N.3    78  TYR78      -0.1227
      2  CA        12.9840   14.8700   49.7960 C.3    78  TYR78       0.1736
      3  C         13.0960   13.4640   50.3670 C.2    78  TYR78       0.2595
      4  O         12.5090   13.2090   51.4170 O.2    78  TYR78      -0.2718
      5  CB        11.8680   14.8930   48.7020 C.3    78  TYR78       0.0548
      6  CG        10.6030   14.1560   49.0950 C.ar   78  TYR78      -0.0200
      7  CD1        9.6560   14.7500   49.9180 C.ar   78  TYR78      -0.0009
      8  CD2       10.3740   12.8460   48.6790 C.ar   78  TYR78      -0.0009
      9  CE1        8.5100   14.0620   50.3210 C.ar   78  TYR78       0.0417
     10  CE2        9.2240   12.1520   49.0640 C.ar   78  TYR78       0.0417
     11  CZ         8.2940   12.7680   49.8860 C.ar   78  TYR78       0.1957
     12  OH         7.1360   12.1340   50.2500 O.3    78  TYR78      -0.2866
     13  N         13.7440   12.5430   49.6270 N.am   79  HIS79      -0.1975
     14  CA        13.8660   11.1370   50.0180 C.3    79  HIS79       0.1656
     15  C         15.0140   10.9500   51.0250 C.2    79  HIS79       0.2291
     16  O         15.9720   10.2060   50.7970 O.2    79  HIS79      -0.2864
     17  CB        13.9660   10.2440   48.7670 C.3    79  HIS79       0.0771
     18  CG        12.6460    9.9860   48.0940 C.ar   79  HIS79       0.0820
     19  ND1       12.4560   10.2360   46.7410 N.ar   79  HIS79      -0.2267
     20  CD2       11.4860    9.5050   48.6100 C.ar   79  HIS79       0.1154
     21  CE1       11.2030    9.8950   46.4820 C.ar   79  HIS79       0.1986
     22  NE2       10.5790    9.4440   47.5720 N.ar   79  HIS79      -0.2212
     23  N         13.0210    3.8050   52.0560 N.3   118  ASP118     -0.1239
     24  CA        13.7390    4.6190   51.0620 C.3   118  ASP118      0.1674
     25  C         15.2680    4.6630   51.2780 C.2   118  ASP118      0.2266
     26  O         15.9530    5.5010   50.6760 O.2   118  ASP118     -0.2867
     27  CB        13.1480    6.0240   50.9440 C.3   118  ASP118      0.1410
     28  CG        12.0210    6.1080   49.9280 C.2   118  ASP118      0.3668
     29  OD1       11.9580    5.2540   49.0360 O.co2 118  ASP118     -0.2456
     30  OD2       11.1940    7.0010   50.0460 O.co2 118  ASP118     -0.2456
     31  N         18.4670    6.3330   49.1140 N.3   121  HIS121     -0.1241
     32  CA        17.8560    6.9880   47.9610 C.3   121  HIS121      0.1621
     33  C         18.8160    8.0350   47.4320 C.2   121  HIS121      0.2264
     34  O         19.3580    8.8260   48.2070 O.2   121  HIS121     -0.2867
     35  CB        16.4900    7.6060   48.2790 C.3   121  HIS121      0.0745
     36  CG        15.5890    7.6090   47.0790 C.ar  121  HIS121      0.0817
     37  ND1       15.6620    8.6030   46.1270 N.ar  121  HIS121     -0.2268
     38  CD2       14.6430    6.7170   46.7020 C.ar  121  HIS121      0.1154
     39  CE1       14.7580    8.2970   45.2130 C.ar  121  HIS121      0.1986
     40  NE2       14.1180    7.1740   45.5170 N.ar  121  HIS121     -0.2212
     41  N         13.2910    0.0390   45.1630 N.3   146  GLU146     -0.1245
     42  CA        12.6190   -0.6810   46.2570 C.3   146  GLU146      0.1567
     43  C         13.3250   -1.9940   46.6010 C.2   146  GLU146      0.2260
     44  O         13.4630   -2.3060   47.7820 O.2   146  GLU146     -0.2867
     45  CB        11.1190   -0.8710   45.9770 C.3   146  GLU146      0.0388
     46  CG        10.3780    0.4590   45.8960 C.3   146  GLU146      0.1160
     47  CD        10.5650    1.3060   44.6390 C.2   146  GLU146      0.3649
     48  OE1       10.9200    0.7520   43.5730 O.co2 146  GLU146     -0.2457
     49  OE2       10.3510    2.5340   44.7190 O.co2 146  GLU146     -0.2457
     50  N          6.0460    0.0310   48.0350 N.3   187  THR187     -0.1218
     51  CA         6.2510    1.4810   47.9720 C.3   187  THR187      0.1862
     52  C          6.5700    1.9180   46.5310 C.2   187  THR187      0.2287
     53  O          6.6220    3.1200   46.2860 O.2   187  THR187     -0.2866
     54  CB         7.2380    2.0060   49.0330 C.3   187  THR187      0.1770
     55  OG1        8.5610    1.5190   48.7890 O.3   187  THR187     -0.2211
     56  CG2        6.7870    1.7170   50.4420 C.3   187  THR187      0.0375
     57  N          5.3020    2.9840   43.4920 N.3   189  LEU189     -0.1245
     58  CA         4.0570    3.5970   43.0370 C.3   189  LEU189      0.1561
     59  C          3.4300    2.9640   41.7860 C.2   189  LEU189      0.2260
     60  O          2.1990    2.9310   41.6830 O.2   189  LEU189     -0.2867
     61  CB         4.2300    5.1120   42.8400 C.3   189  LEU189      0.0270
     62  CG         2.9690    5.9500   42.9800 C.3   189  LEU189      0.0019
     63  CD1        2.3170    5.7680   44.3540 C.3   189  LEU189      0.0001
     64  CD2        3.2660    7.4190   42.7260 C.3   189  LEU189      0.0001
     65  N          3.4850    6.5270   52.6300 N.3   228  ASP228     -0.1225
     66  CA         4.4380    7.1440   51.7070 C.3   228  ASP228      0.1805
     67  C          3.9570    8.5020   51.1480 C.2   228  ASP228      0.2597
     68  O          4.7770    9.3460   50.7600 O.2   228  ASP228     -0.2718
     69  CB         4.7220    6.1990   50.5370 C.3   228  ASP228      0.1424
     70  CG         6.1090    6.3110   49.9360 C.2   228  ASP228      0.3668
     71  OD1        6.8440    7.2480   50.3060 O.co2 228  ASP228     -0.2456
     72  OD2        6.4650    5.4530   49.1030 O.co2 228  ASP228     -0.2456
     73  N          2.6350    8.7070   51.0790 N.am  229  LEU229     -0.1979
     74  CA         2.1060    9.9590   50.5570 C.3   229  LEU229      0.1596
     75  C          1.5410   10.8960   51.6460 C.2   229  LEU229      0.2287
     76  O          1.0020   11.9330   51.2740 O.2   229  LEU229     -0.2864
     77  CB         1.0440    9.6960   49.4720 C.3   229  LEU229      0.0297
     78  CG         1.3310    8.6640   48.3570 C.3   229  LEU229      0.0022
     79  CD1        0.1100    8.4560   47.5040 C.3   229  LEU229      0.0001
     80  CD2        2.5270    9.0550   47.4920 C.3   229  LEU229      0.0001
     81  N          2.4420   13.2420   53.2730 N.3   231  SER231     -0.1202
     82  CA         2.7610   14.6660   53.1490 C.3   231  SER231      0.2020
     83  C          1.5410   15.5000   52.6970 C.2   231  SER231      0.2618
     84  O          1.4390   16.6700   53.0700 O.2   231  SER231     -0.2717
     85  CB         3.9090   14.8770   52.1710 C.3   231  SER231      0.2103
     86  OG         5.1460   14.6570   52.8290 O.3   231  SER231     -0.2182
     87  N          0.6250   14.8830   51.8930 N.am  232  VAL232     -0.1979
     88  CA        -0.6160   15.4850   51.3580 C.3   232  VAL232      0.1595
     89  C         -1.7590   15.4730   52.4150 C.2   232  VAL232      0.2287
     90  O         -2.8560   15.9480   52.1170 O.2   232  VAL232     -0.2864
     91  CB        -1.0880   14.8660   49.9940 C.3   232  VAL232      0.0276
     92  CG1        0.0050   14.9120   48.9280 C.3   232  VAL232      0.0022
     93  CG2       -1.6380   13.4440   50.1580 C.3   232  VAL232      0.0022
     94  N          2.3080   20.8480   53.9270 N.3   239  THR239     -0.1218
     95  CA         2.0540   20.2090   52.6270 C.3   239  THR239      0.1862
     96  C          2.7500   20.9790   51.4810 C.2   239  THR239      0.2287
     97  O          3.4640   20.3650   50.6730 O.2   239  THR239     -0.2866
     98  CB         0.5400   20.0110   52.4560 C.3   239  THR239      0.1770
     99  OG1        0.1140   19.0780   53.4500 O.3   239  THR239     -0.2211
    100  CG2        0.1480   19.5040   51.0540 C.3   239  THR239      0.0375
    101  N          6.6340   20.6600   51.6300 N.3   242  THR242     -0.1203
    102  CA         7.0710   19.3310   51.1970 C.3   242  THR242      0.1994
    103  C          7.0450   19.2130   49.6660 C.2   242  THR242      0.2617
    104  O          7.9480   18.5960   49.0860 O.2   242  THR242     -0.2717
    105  CB         6.2830   18.2310   51.9200 C.3   242  THR242      0.1784
    106  OG1        6.3960   18.4030   53.3290 O.3   242  THR242     -0.2211
    107  CG2        6.7700   16.8670   51.5680 C.3   242  THR242      0.0376
    108  N          6.0170   19.8210   49.0170 N.am  243  ALA243     -0.1979
    109  CA         5.8780   19.8240   47.5510 C.3   243  ALA243      0.1597
    110  C          7.1490   20.4350   46.9430 C.2   243  ALA243      0.2287
    111  O          7.6970   19.8930   45.9870 O.2   243  ALA243     -0.2864
    112  CB         4.6420   20.6250   47.1360 C.3   243  ALA243      0.0319
    113  N         10.0800   17.7460   47.0240 N.3   246  ILE246     -0.1231
    114  CA        10.0340   16.6850   46.0020 C.3   246  ILE246      0.1692
    115  C         10.3330   17.2730   44.6040 C.2   246  ILE246      0.2592
    116  O         10.9870   16.6200   43.7740 O.2   246  ILE246     -0.2718
    117  CB         8.7470   15.7820   46.0410 C.3   246  ILE246      0.0266
    118  CG1        8.9910   14.4690   45.2360 C.3   246  ILE246      0.0019
    119  CG2        7.4660   16.5290   45.5800 C.3   246  ILE246      0.0020
    120  CD1        8.4440   13.2480   45.7000 C.3   246  ILE246      0.0001
    121  N          9.8800   18.5190   44.3660 N.am  247  TYR247     -0.1976
    122  CA        10.1010   19.1620   43.0840 C.3   247  TYR247      0.1639
    123  C         11.5630   19.5250   42.8820 C.2   247  TYR247      0.2290
    124  O         12.0550   19.3000   41.7900 O.2   247  TYR247     -0.2864
    125  CB         9.1340   20.3100   42.8710 C.3   247  TYR247      0.0560
    126  CG         7.8630   19.8210   42.2060 C.ar  247  TYR247     -0.0198
    127  CD1        6.6820   19.6650   42.9380 C.ar  247  TYR247     -0.0009
    128  CD2        7.8520   19.4530   40.8610 C.ar  247  TYR247     -0.0009
    129  CE1        5.5080   19.2030   42.3330 C.ar  247  TYR247      0.0417
    130  CE2        6.6860   18.9920   40.2450 C.ar  247  TYR247      0.0417
    131  CZ         5.5150   18.8700   40.9820 C.ar  247  TYR247      0.1957
    132  OH         4.3690   18.4360   40.3590 O.3   247  TYR247     -0.2866
    133  N         13.0150   16.2610   41.8300 N.3   250  PHE250     -0.1241
    134  CA        12.5690   15.9810   40.4450 C.3   250  PHE250      0.1605
    135  C         13.2900   16.8790   39.4460 C.2   250  PHE250      0.2264
    136  O         13.6970   16.3970   38.3880 O.2   250  PHE250     -0.2867
    137  CB        11.0560   16.2490   40.2530 C.3   250  PHE250      0.0534
    138  CG        10.0610   15.3270   40.9060 C.ar  250  PHE250     -0.0203
    139  CD1       10.3680   13.9830   41.1270 C.ar  250  PHE250     -0.0042
    140  CD2        8.8030   15.7900   41.2740 C.ar  250  PHE250     -0.0042
    141  CE1        9.4290   13.1180   41.7080 C.ar  250  PHE250     -0.0003
    142  CE2        7.8690   14.9330   41.8730 C.ar  250  PHE250     -0.0003
    143  CZ         8.1800   13.5960   42.0720 C.ar  250  PHE250     -0.0000
    144  N          6.8390   17.6780   34.8240 N.3   267  MET267     -0.1245
    145  CA         7.0070   17.4710   36.2740 C.3   267  MET267      0.1570
    146  C          8.4790   17.5580   36.7120 C.2   267  MET267      0.2261
    147  O          8.7910   18.0430   37.8060 O.2   267  MET267     -0.2867
    148  CB         6.4500   16.0870   36.6180 C.3   267  MET267      0.0387
    149  CG         6.5160   15.7150   38.0830 C.3   267  MET267      0.0595
    150  SD         5.9620   14.0260   38.2780 S.3   267  MET267     -0.1393
    151  CE         7.5050   13.1920   38.2410 C.3   267  MET267      0.0692
    152  N         -0.3780   18.8420   40.6540 N.3   280  GLN280     -0.1245
    153  CA        -0.8030   18.4720   42.0040 C.3   280  GLN280      0.1566
    154  C         -2.2590   18.0260   41.9500 C.2   280  GLN280      0.2260
    155  O         -2.5710   16.9290   42.4130 O.2   280  GLN280     -0.2867
    156  CB        -0.6220   19.6450   42.9770 C.3   280  GLN280      0.0367
    157  CG         0.8310   19.9280   43.3560 C.3   280  GLN280      0.0905
    158  CD         1.3830   18.8400   44.2310 C.2   280  GLN280      0.2608
    159  OE1        0.9900   18.6790   45.3870 O.2   280  GLN280     -0.2717
    160  NE2        2.2970   18.0700   43.6850 N.am  280  GLN280     -0.0878
    161  N         -2.4440   14.6610   40.4760 N.3   283  PHE283     -0.1227
    162  CA        -1.8850   13.6880   41.4140 C.3   283  PHE283      0.1736
    163  C         -2.8750   13.3970   42.5530 C.2   283  PHE283      0.2595
    164  O         -3.0640   12.2370   42.9150 O.2   283  PHE283     -0.2718
    165  CB        -0.5370   14.2000   41.9910 C.3   283  PHE283      0.0547
    166  CG         0.1830   13.2230   42.8930 C.ar  283  PHE283     -0.0202
    167  CD1        0.8550   12.1310   42.3650 C.ar  283  PHE283     -0.0042
    168  CD2        0.1630   13.3790   44.2710 C.ar  283  PHE283     -0.0042
    169  CE1        1.4860   11.1960   43.2030 C.ar  283  PHE283     -0.0003
    170  CE2        0.7930   12.4470   45.1110 C.ar  283  PHE283     -0.0003
    171  CZ         1.4550   11.3620   44.5700 C.ar  283  PHE283     -0.0000
    172  N         -3.5110   14.4560   43.1130 N.am  284  TYR284     -0.1976
    173  CA        -4.4850   14.3070   44.1940 C.3   284  TYR284      0.1639
    174  C         -5.6820   13.5350   43.6870 C.2   284  TYR284      0.2290
    175  O         -6.0990   12.5900   44.3460 O.2   284  TYR284     -0.2864
    176  CB        -4.9260   15.6780   44.7650 C.3   284  TYR284      0.0560
    177  CG        -3.9880   16.3050   45.7890 C.ar  284  TYR284     -0.0198
    178  CD1       -2.7440   16.8010   45.4140 C.ar  284  TYR284     -0.0009
    179  CD2       -4.3600   16.4200   47.1290 C.ar  284  TYR284     -0.0009
    180  CE1       -1.8740   17.3510   46.3470 C.ar  284  TYR284      0.0417
    181  CE2       -3.5030   16.9870   48.0700 C.ar  284  TYR284      0.0417
    182  CZ        -2.2650   17.4640   47.6690 C.ar  284  TYR284      0.1957
    183  OH        -1.4070   18.0550   48.5660 O.3   284  TYR284     -0.2866
@<TRIPOS>BOND
     1   144   145    1
     2   145   148    1
     3   145   146    1
     4   148   149    1
     5   146   147    2
     6   149   150    1
     7   151   150    1
     8   136   135    2
     9   135   134    1
    10   130   128   ar
    11   130   131   ar
    12   137   134    1
    13   137   138    1
    14   132   131    1
    15   134   133    1
    16   161   162    1
    17   152   153    1
    18   128   126   ar
    19   138   139   ar
    20   138   140   ar
    21   131   129   ar
    22   139   141   ar
    23   140   142   ar
    24   162   165    1
    25   162   163    1
    26    60    59    2
    27   141   143   ar
    28    59    58    1
    29   124   123    2
    30   142   143   ar
    31   154   153    1
    32   154   155    2
    33   165   166    1
    34   153   156    1
    35   126   125    1
    36   126   127   ar
    37   129   127   ar
    38   167   166   ar
    39   167   169   ar
    40   163   164    2
    41   163   172   am
    42    64    62    1
    43    61    62    1
    44    61    58    1
    45   125   122    1
    46   123   122    1
    47   166   168   ar
    48   156   157    1
    49    62    63    1
    50    58    57    1
    51   122   121    1
    52   172   173    1
    53   169   171   ar
    54   157   158    1
    55    48    47   ar
    56   160   158   am
    57   174   173    1
    58   174   175    2
    59   116   115    2
    60   173   176    1
    61   158   159    2
    62   168   170   ar
    63   121   115   am
    64   171   170   ar
    65   115   114    1
    66    47    49   ar
    67    47    46    1
    68   176   177    1
    69    41    42    1
    70    39    40   ar
    71    39    37   ar
    72   118   120    1
    73   118   117    1
    74   178   177   ar
    75   178   180   ar
    76    40    38   ar
    77   119   117    1
    78   177   179   ar
    79    46    45    1
    80    45    42    1
    81   111   110    2
    82   114   117    1
    83   114   113    1
    84    37    36   ar
    85    42    43    1
    86    53    52    2
    87   180   182   ar
    88    21    19   ar
    89    21    22   ar
    90    52    51    1
    91    43    44    2
    92    38    36   ar
    93    19    18   ar
    94   110   109    1
    95    36    35    1
    96   179   181   ar
    97   112   109    1
    98    33    32    1
    99    33    34    2
   100    80    78    1
   101    79    78    1
   102   109   108    1
   103    22    20   ar
   104   182   181   ar
   105   182   183    1
   106    32    35    1
   107    32    31    1
   108    51    50    1
   109    51    54    1
   110    18    20   ar
   111    18    17    1
   112    78    77    1
   113     8    10   ar
   114     8     6   ar
   115     5     6    1
   116     5     2    1
   117    17    14    1
   118    55    54    1
   119    92    91    1
   120   108   103   am
   121    54    56    1
   122    29    28   ar
   123    10    11   ar
   124   104   103    2
   125     6     7   ar
   126    72    70   ar
   127     1     2    1
   128    77    74    1
   129    13    14    1
   130    13     3   am
   131   103   102    1
   132     2     3    1
   133    11    12    1
   134    11     9   ar
   135     7     9   ar
   136    28    30   ar
   137    28    27    1
   138    70    71   ar
   139    70    69    1
   140    91    93    1
   141    91    88    1
   142    14    15    1
   143     3     4    2
   144    69    66    1
   145    74    73    1
   146    74    75    1
   147    97    96    2
   148    26    25    2
   149    68    67    2
   150    16    15    2
   151    27    24    1
   152   100    98    1
   153    24    25    1
   154    24    23    1
   155    73    67   am
   156    67    66    1
   157   102   101    1
   158   102   105    1
   159    76    75    2
   160    88    87    1
   161    88    89    1
   162    96    95    1
   163   107   105    1
   164    66    65    1
   165    87    83   am
   166   105   106    1
   167    90    89    2
   168    85    86    1
   169    85    82    1
   170    98    95    1
   171    98    99    1
   172    95    94    1
   173    83    84    2
   174    83    82    1
   175    82    81    1
