@<TRIPOS>MOLECULE
tmp/4zo5B00.pdb
 199 194 0 0 0
SMALL
GASTEIGER

@<TRIPOS>ATOM
      1  N         -5.4320    7.4940   15.2110 N.3    78  TYR78      -0.1227
      2  CA        -6.3230    6.4360   14.7190 C.3    78  TYR78       0.1736
      3  C         -7.7870    6.7870   14.6380 C.2    78  TYR78       0.2595
      4  O         -8.4170    6.4190   13.6460 O.2    78  TYR78      -0.2718
      5  CB        -6.1530    5.1610   15.5760 C.3    78  TYR78       0.0548
      6  CG        -7.1470    4.0600   15.2840 C.ar   78  TYR78      -0.0200
      7  CD1       -6.9450    3.1750   14.2240 C.ar   78  TYR78      -0.0009
      8  CD2       -8.2970    3.9070   16.0580 C.ar   78  TYR78      -0.0009
      9  CE1       -7.8660    2.1680   13.9390 C.ar   78  TYR78       0.0417
     10  CE2       -9.2260    2.9040   15.7800 C.ar   78  TYR78       0.0417
     11  CZ        -9.0010    2.0330   14.7210 C.ar   78  TYR78       0.1957
     12  OH        -9.8710    1.0030   14.4660 O.3    78  TYR78      -0.2866
     13  N         -8.3550    7.3920   15.6940 N.am   79  HIS79      -0.1975
     14  CA        -9.7840    7.7320   15.7590 C.3    79  HIS79       0.1656
     15  C        -10.0720    9.0530   15.0230 C.2    79  HIS79       0.2291
     16  O        -10.5650   10.0420   15.5860 O.2    79  HIS79      -0.2864
     17  CB       -10.2720    7.7220   17.2160 C.3    79  HIS79       0.0771
     18  CG       -10.5270    6.3450   17.7600 C.ar   79  HIS79       0.0820
     19  ND1       -9.9360    5.9080   18.9360 N.ar   79  HIS79      -0.2267
     20  CD2      -11.2940    5.3450   17.2640 C.ar   79  HIS79       0.1154
     21  CE1      -10.3740    4.6740   19.1210 C.ar   79  HIS79       0.1986
     22  NE2      -11.1970    4.2910   18.1430 N.ar   79  HIS79      -0.2212
     23  N        -16.9060   -0.8080   23.2120 N.3   189  LEU189     -0.1245
     24  CA       -16.4150   -2.1910   23.2660 C.3   189  LEU189      0.1561
     25  C        -16.7550   -2.9540   24.5510 C.2   189  LEU189      0.2260
     26  O        -16.9300   -4.1740   24.5040 O.2   189  LEU189     -0.2867
     27  CB       -14.9070   -2.2410   22.9980 C.3   189  LEU189      0.0270
     28  CG       -14.3390   -3.5510   22.4630 C.3   189  LEU189      0.0019
     29  CD1      -14.9910   -3.9380   21.1440 C.3   189  LEU189      0.0001
     30  CD2      -12.8220   -3.4590   22.2970 C.3   189  LEU189      0.0001
     31  N        -19.0660   -7.4620   24.6390 N.3   193  PHE193     -0.1241
     32  CA       -18.9270   -8.8080   25.2090 C.3   193  PHE193      0.1605
     33  C        -20.2880   -9.3840   25.5980 C.2   193  PHE193      0.2264
     34  O        -20.6310  -10.4750   25.1370 O.2   193  PHE193     -0.2867
     35  CB       -17.8860   -8.8180   26.3410 C.3   193  PHE193      0.0534
     36  CG       -16.5380   -8.3660   25.8200 C.ar  193  PHE193     -0.0203
     37  CD1      -16.1140   -7.0500   25.9870 C.ar  193  PHE193     -0.0042
     38  CD2      -15.7230   -9.2380   25.1000 C.ar  193  PHE193     -0.0042
     39  CE1      -14.8910   -6.6200   25.4520 C.ar  193  PHE193     -0.0003
     40  CE2      -14.4890   -8.8120   24.5800 C.ar  193  PHE193     -0.0003
     41  CZ       -14.0850   -7.5040   24.7580 C.ar  193  PHE193     -0.0000
     42  N        -14.0510   -2.8360   13.9390 N.3   229  LEU229     -0.1245
     43  CA       -12.7930   -3.5750   13.9990 C.3   229  LEU229      0.1561
     44  C        -12.2970   -4.0530   12.6580 C.2   229  LEU229      0.2260
     45  O        -11.2940   -4.7750   12.6010 O.2   229  LEU229     -0.2867
     46  CB       -12.9120   -4.7630   14.9600 C.3   229  LEU229      0.0270
     47  CG       -13.5320   -4.5330   16.3640 C.3   229  LEU229      0.0019
     48  CD1      -13.6990   -5.8680   17.0930 C.3   229  LEU229      0.0001
     49  CD2      -12.7280   -3.5390   17.2100 C.3   229  LEU229      0.0001
     50  N        -10.4060   -3.1600   10.5300 N.3   231  SER231     -0.1202
     51  CA        -8.9780   -2.9980   10.2260 C.3   231  SER231      0.2020
     52  C         -8.2230   -4.3660   10.2230 C.2   231  SER231      0.2618
     53  O         -7.2340   -4.5210    9.4920 O.2   231  SER231     -0.2717
     54  CB        -8.3360   -2.0380   11.2170 C.3   231  SER231      0.2103
     55  OG        -6.9680   -2.3790   11.3880 O.3   231  SER231     -0.2182
     56  N         -8.7180   -5.3380   11.0380 N.am  232  VAL232     -0.1979
     57  CA        -8.1790   -6.7000   11.1840 C.3   232  VAL232      0.1595
     58  C         -8.6440   -7.6370   10.0440 C.2   232  VAL232      0.2287
     59  O         -8.2610   -8.8110   10.0340 O.2   232  VAL232     -0.2864
     60  CB        -8.4590   -7.3300   12.5970 C.3   232  VAL232      0.0276
     61  CG1       -7.9490   -6.4370   13.7280 C.3   232  VAL232      0.0022
     62  CG2       -9.9390   -7.6840   12.8050 C.3   232  VAL232      0.0022
     63  N         -2.3220   -0.0490   10.2430 N.3   242  THR242     -0.1203
     64  CA        -3.3920    0.4380   11.1120 C.3   242  THR242      0.1994
     65  C         -3.0850    0.1440   12.5860 C.2   242  THR242      0.2617
     66  O         -3.3770    0.9800   13.4450 O.2   242  THR242     -0.2717
     67  CB        -4.7560   -0.0760   10.6520 C.3   242  THR242      0.1784
     68  OG1       -4.9470    0.2480    9.2860 O.3   242  THR242     -0.2211
     69  CG2       -5.8990    0.5100   11.4580 C.3   242  THR242      0.0376
     70  N         -2.4840   -1.0210   12.8650 N.am  243  ALA243     -0.1979
     71  CA        -2.0920   -1.4230   14.2190 C.3   243  ALA243      0.1597
     72  C         -1.1530   -0.3630   14.8060 C.2   243  ALA243      0.2287
     73  O         -1.3520    0.0630   15.9460 O.2   243  ALA243     -0.2864
     74  CB        -1.3940   -2.7770   14.1850 C.3   243  ALA243      0.0319
     75  N         -3.3450    2.8010   15.9330 N.3   246  ILE246     -0.1231
     76  CA        -4.0780    2.7170   17.2020 C.3   246  ILE246      0.1692
     77  C         -3.0930    2.6710   18.3810 C.2   246  ILE246      0.2592
     78  O         -3.4200    3.2460   19.4210 O.2   246  ILE246     -0.2718
     79  CB        -5.1910    1.6510   17.3010 C.3   246  ILE246      0.0266
     80  CG1       -6.1950    2.0670   18.4030 C.3   246  ILE246      0.0019
     81  CG2       -4.6350    0.2250   17.4890 C.3   246  ILE246      0.0020
     82  CD1       -7.5200    1.2860   18.4620 C.3   246  ILE246      0.0001
     83  N         -1.8800    2.0580   18.1970 N.am  247  TYR247     -0.1976
     84  CA        -0.8610    2.0070   19.2510 C.3   247  TYR247      0.1639
     85  C         -0.3330    3.3760   19.5690 C.2   247  TYR247      0.2290
     86  O         -0.3000    3.7260   20.7470 O.2   247  TYR247     -0.2864
     87  CB         0.2590    0.9900   18.9940 C.3   247  TYR247      0.0560
     88  CG        -0.2180   -0.3990   19.3390 C.ar  247  TYR247     -0.0198
     89  CD1       -0.5330   -1.3150   18.3450 C.ar  247  TYR247     -0.0009
     90  CD2       -0.4500   -0.7680   20.6590 C.ar  247  TYR247     -0.0009
     91  CE1       -1.0420   -2.5730   18.6510 C.ar  247  TYR247      0.0417
     92  CE2       -0.9350   -2.0350   20.9800 C.ar  247  TYR247      0.0417
     93  CZ        -1.2250   -2.9370   19.9700 C.ar  247  TYR247      0.1957
     94  OH        -1.7060   -4.1850   20.2710 O.3   247  TYR247     -0.2866
     95  N         -2.7810    5.0460   21.7630 N.3   250  PHE250     -0.1227
     96  CA        -2.7450    4.3690   23.0630 C.3   250  PHE250      0.1736
     97  C         -1.5380    4.8140   23.8850 C.2   250  PHE250      0.2595
     98  O         -1.6770    5.1440   25.0590 O.2   250  PHE250     -0.2718
     99  CB        -2.7130    2.8420   22.8380 C.3   250  PHE250      0.0547
    100  CG        -4.0610    2.2390   22.5470 C.ar  250  PHE250     -0.0202
    101  CD1       -5.2270    2.9900   22.6880 C.ar  250  PHE250     -0.0042
    102  CD2       -4.1750    0.9160   22.1410 C.ar  250  PHE250     -0.0042
    103  CE1       -6.4810    2.4220   22.4460 C.ar  250  PHE250     -0.0003
    104  CE2       -5.4340    0.3540   21.8890 C.ar  250  PHE250     -0.0003
    105  CZ        -6.5770    1.1110   22.0450 C.ar  250  PHE250     -0.0000
    106  N         -0.3650    4.8630   23.2280 N.am  251  TRP251     -0.1976
    107  CA         0.9070    5.2650   23.7990 C.3   251  TRP251      0.1640
    108  C          0.9080    6.7040   24.2330 C.2   251  TRP251      0.2290
    109  O          1.3930    6.9840   25.3300 O.2   251  TRP251     -0.2864
    110  CB         2.0630    4.9230   22.8700 C.3   251  TRP251      0.0576
    111  CG         2.2040    3.4440   22.7010 C.ar  251  TRP251      0.0006
    112  CD1        1.7250    2.4670   23.5290 C.ar  251  TRP251      0.0946
    113  CD2        2.8500    2.7730   21.6210 C.ar  251  TRP251      0.0152
    114  NE1        2.0200    1.2220   23.0200 N.ar  251  TRP251     -0.2442
    115  CE2        2.7260    1.3800   21.8550 C.ar  251  TRP251      0.0810
    116  CE3        3.5230    3.2120   20.4610 C.ar  251  TRP251      0.0012
    117  CZ2        3.2690    0.4240   20.9850 C.ar  251  TRP251      0.0191
    118  CZ3        4.0450    2.2610   19.5900 C.ar  251  TRP251      0.0001
    119  CH2        3.9210    0.8850   19.8600 C.ar  251  TRP251      0.0015
    120  N         -0.0830   -2.2070   30.2810 N.3   266  PRO266     -0.2102
    121  CA         0.8720   -2.5140   29.1850 C.3   266  PRO266      0.1504
    122  C          0.5030   -2.0020   27.7890 C.2   266  PRO266      0.2575
    123  O          1.3740   -1.4870   27.0840 O.2   266  PRO266     -0.2718
    124  CB         0.9660   -4.0430   29.2250 C.3   266  PRO266      0.0282
    125  CG         0.7390   -4.3770   30.6560 C.3   266  PRO266      0.0208
    126  CD        -0.2470   -3.3680   31.1870 C.3   266  PRO266      0.0893
    127  N         -0.7790   -2.1330   27.4050 N.am  267  MET267     -0.1980
    128  CA        -1.3680   -1.7190   26.1170 C.3   267  MET267      0.1605
    129  C         -1.1150   -0.2210   25.7910 C.2   267  MET267      0.2287
    130  O         -0.8720    0.1290   24.6320 O.2   267  MET267     -0.2864
    131  CB        -2.8700   -2.0100   26.1970 C.3   267  MET267      0.0413
    132  CG        -3.6460   -1.7800   24.9520 C.3   267  MET267      0.0598
    133  SD        -5.3830   -2.0050   25.4130 S.3   267  MET267     -0.1393
    134  CE        -5.8550   -0.3920   25.6620 C.3   267  MET267      0.0692
    135  N          6.5950   -1.1230   26.3980 N.3   272  LYS272     -0.1245
    136  CA         6.2040   -2.5380   26.3120 C.3   272  LYS272      0.1561
    137  C          5.7030   -2.7810   24.8690 C.2   272  LYS272      0.2260
    138  O          4.7810   -3.5690   24.6690 O.2   272  LYS272     -0.2867
    139  CB         5.0770   -2.8650   27.3170 C.3   272  LYS272      0.0271
    140  CG         5.2640   -2.2740   28.6940 C.3   272  LYS272      0.0035
    141  CD         4.5560   -3.0480   29.7860 C.3   272  LYS272      0.0206
    142  CE         5.5170   -3.6850   30.7730 C.3   272  LYS272      0.1093
    143  NZ         6.4680   -2.7080   31.3970 N.3   272  LYS272     -0.1314
    144  N          5.5590   -6.3230   23.2740 N.3   275  GLU275     -0.1231
    145  CA         4.4330   -7.1370   23.7320 C.3   275  GLU275      0.1699
    146  C          3.2190   -7.0570   22.7540 C.2   275  GLU275      0.2592
    147  O          2.2730   -7.8490   22.8770 O.2   275  GLU275     -0.2718
    148  CB         4.0270   -6.7180   25.1520 C.3   275  GLU275      0.0402
    149  CG         5.0870   -6.9840   26.2120 C.3   275  GLU275      0.1161
    150  CD         4.7200   -6.6940   27.6590 C.2   275  GLU275      0.3649
    151  OE1        3.5220   -6.4900   27.9680 O.co2 275  GLU275     -0.2457
    152  OE2        5.6520   -6.6890   28.4950 O.co2 275  GLU275     -0.2457
    153  N          3.2680   -6.1130   21.7810 N.am  276  VAL276     -0.1980
    154  CA         2.2290   -5.8650   20.7690 C.3   276  VAL276      0.1595
    155  C          1.8630   -7.1540   19.9740 C.2   276  VAL276      0.2287
    156  O          0.6730   -7.4840   19.9700 O.2   276  VAL276     -0.2864
    157  CB         2.5730   -4.6490   19.8510 C.3   276  VAL276      0.0276
    158  CG1        1.6930   -4.5950   18.6060 C.3   276  VAL276      0.0022
    159  CG2        2.4760   -3.3430   20.6290 C.3   276  VAL276      0.0022
    160  N         -0.1930   -9.2570   22.1590 N.3   279  GLY279     -0.1210
    161  CA        -1.3870   -8.4630   22.4610 C.3   279  GLY279      0.1956
    162  C         -2.4200   -8.5220   21.3500 C.2   279  GLY279      0.2611
    163  O         -3.6280   -8.6030   21.6130 O.2   279  GLY279     -0.2717
    164  N         -1.9320   -8.5120   20.0980 N.am  280  GLN280     -0.1979
    165  CA        -2.7600   -8.6430   18.8920 C.3   280  GLN280      0.1601
    166  C         -3.3860  -10.0490   18.8690 C.2   280  GLN280      0.2287
    167  O         -4.6080  -10.1650   18.7430 O.2   280  GLN280     -0.2864
    168  CB        -1.9170   -8.4280   17.6210 C.3   280  GLN280      0.0394
    169  CG        -1.5630   -6.9630   17.3680 C.3   280  GLN280      0.0908
    170  CD        -2.7810   -6.1880   16.9440 C.2   280  GLN280      0.2608
    171  OE1       -3.3120   -6.3780   15.8450 O.2   280  GLN280     -0.2717
    172  NE2       -3.2660   -5.3080   17.8110 N.am  280  GLN280     -0.0878
    173  N         -3.9590  -12.0200   21.2910 N.3   282  GLY282     -0.1210
    174  CA        -4.9200  -12.0410   22.3930 C.3   282  GLY282      0.1956
    175  C         -6.2130  -11.3670   22.0020 C.2   282  GLY282      0.2611
    176  O         -7.2840  -11.9130   22.2750 O.2   282  GLY282     -0.2717
    177  N         -6.1110  -10.1760   21.3240 N.am  283  PHE283     -0.1976
    178  CA        -7.2430   -9.3700   20.8450 C.3   283  PHE283      0.1639
    179  C         -8.0220  -10.1080   19.7590 C.2   283  PHE283      0.2290
    180  O         -9.2510  -10.1330   19.7780 O.2   283  PHE283     -0.2864
    181  CB        -6.7500   -7.9990   20.3370 C.3   283  PHE283      0.0560
    182  CG        -7.8510   -7.0570   19.9010 C.ar  283  PHE283     -0.0200
    183  CD1       -8.6360   -6.3950   20.8410 C.ar  283  PHE283     -0.0042
    184  CD2       -8.1080   -6.8420   18.5510 C.ar  283  PHE283     -0.0042
    185  CE1       -9.6640   -5.5460   20.4420 C.ar  283  PHE283     -0.0003
    186  CE2       -9.1350   -5.9910   18.1500 C.ar  283  PHE283     -0.0003
    187  CZ        -9.9050   -5.3410   19.1010 C.ar  283  PHE283     -0.0000
    188  N         -9.6430  -13.2250   21.5870 N.3   286  ALA286     -0.1231
    189  CA       -10.6790  -12.8960   22.5740 C.3   286  ALA286      0.1694
    190  C        -11.7650  -11.9390   22.0990 C.2   286  ALA286      0.2591
    191  O        -12.8780  -11.9780   22.6420 O.2   286  ALA286     -0.2718
    192  CB       -10.0380  -12.3510   23.8440 C.3   286  ALA286      0.0304
    193  N        -11.4460  -11.0480   21.1260 N.am  287  VAL287     -0.1980
    194  CA       -12.4010  -10.0410   20.6430 C.3   287  VAL287      0.1595
    195  C        -12.8200  -10.2290   19.1590 C.2   287  VAL287      0.2287
    196  O        -13.9930  -10.4970   18.9010 O.2   287  VAL287     -0.2864
    197  CB       -11.8800   -8.5960   20.9110 C.3   287  VAL287      0.0276
    198  CG1      -12.9150   -7.5520   20.5160 C.3   287  VAL287      0.0022
    199  CG2      -11.4470   -8.4050   22.3680 C.3   287  VAL287      0.0022
@<TRIPOS>BOND
     1    68    67    1
     2    53    52    2
     3    59    58    2
     4    58    57    1
     5    52    51    1
     6    52    56   am
     7    51    50    1
     8    51    54    1
     9    63    64    1
    10    67    64    1
    11    67    69    1
    12    56    57    1
    13    64    65    1
    14    57    60    1
    15    54    55    1
    16    65    70   am
    17    65    66    2
    18    60    62    1
    19    60    61    1
    20    45    44    2
    21    44    43    1
    22    70    71    1
    23     4     3    2
    24    42    43    1
    25     9     7   ar
    26     9    11   ar
    27    43    46    1
    28    74    71    1
    29    71    72    1
    30     7     6   ar
    31    12    11    1
    32     3     2    1
    33     3    13   am
    34     2     1    1
    35     2     5    1
    36    11    10   ar
    37    72    73    2
    38    46    47    1
    39    15    16    2
    40    15    14    1
    41     6     5    1
    42     6     8   ar
    43    13    14    1
    44    14    17    1
    45    10     8   ar
    46   171   170    2
    47    75    76    1
    48    47    48    1
    49    47    49    1
    50   170   169    1
    51   170   172   am
    52    76    79    1
    53    76    77    1
    54    17    18    1
    55    20    18   ar
    56    20    22   ar
    57    79    81    1
    58    79    80    1
    59   169   168    1
    60   168   165    1
    61    18    19   ar
    62    22    21   ar
    63   186   184   ar
    64   186   187   ar
    65    83    77   am
    66    83    84    1
    67    89    91   ar
    68    89    88   ar
    69    77    78    2
    70    80    82    1
    71   184   182   ar
    72   158   157    1
    73    91    93   ar
    74   167   166    2
    75   166   165    1
    76   165   164    1
    77   196   195    2
    78    19    21   ar
    79    87    84    1
    80    87    88    1
    81   187   185   ar
    82   195   194    1
    83    84    85    1
    84    88    90   ar
    85    85    86    2
    86   118   119   ar
    87   118   116   ar
    88   179   180    2
    89   179   178    1
    90   157   159    1
    91   157   154    1
    92   119   117   ar
    93   182   181    1
    94   182   183   ar
    95   156   155    2
    96    93    94    1
    97    93    92   ar
    98   155   154    1
    99   164   162   am
   100   181   178    1
   101   185   183   ar
   102   116   113   ar
   103   198   197    1
   104   194   197    1
   105   194   193    1
   106    90    92   ar
   107   154   153    1
   108   178   177    1
   109   197   199    1
   110   117   115   ar
   111   193   190   am
   112    29    28    1
   113   173   174    1
   114   177   175   am
   115   162   163    2
   116   162   161    1
   117   188   189    1
   118   113   115   ar
   119   113   111   ar
   120    95    96    1
   121   153   146   am
   122   115   114   ar
   123   104   105   ar
   124   104   102   ar
   125   175   176    2
   126   175   174    1
   127   105   103   ar
   128   190   189    1
   129   190   191    2
   130   102   100   ar
   131   160   161    1
   132    30    28    1
   133   103   101   ar
   134    28    27    1
   135   100   101   ar
   136   100    99    1
   137   189   192    1
   138   111   110    1
   139   111   112   ar
   140   146   147    2
   141   146   145    1
   142    99    96    1
   143   110   107    1
   144    27    24    1
   145   114   112   ar
   146    96    97    1
   147    23    24    1
   148   106   107    1
   149   106    97   am
   150    24    25    1
   151   144   145    1
   152   145   148    1
   153   107   108    1
   154    97    98    2
   155   108   109    2
   156    26    25    2
   157    40    41   ar
   158    40    38   ar
   159   130   129    2
   160    31    32    1
   161   138   137    2
   162    41    39   ar
   163   137   136    1
   164   132   133    1
   165   132   131    1
   166    38    36   ar
   167    34    33    2
   168   148   149    1
   169    32    33    1
   170    32    35    1
   171   133   134    1
   172    39    37   ar
   173   129   128    1
   174    36    37   ar
   175    36    35    1
   176   128   131    1
   177   128   127    1
   178   149   150    1
   179   136   135    1
   180   136   139    1
   181   123   122    2
   182   139   140    1
   183   127   122   am
   184   150   151   ar
   185   150   152   ar
   186   122   121    1
   187   140   141    1
   188   121   124    1
   189   121   120    1
   190   124   125    1
   191   141   142    1
   192   120   126    1
   193   125   126    1
   194   142   143    1
