@<TRIPOS>MOLECULE
tmp/4zo8B01.pdb
 121 117 0 0 0
SMALL
GASTEIGER

@<TRIPOS>ATOM
      1  N         57.2360   -2.9120   51.2850 N.3    61  LEU61      -0.1245
      2  CA        56.6110   -3.2130   49.9860 C.3    61  LEU61       0.1561
      3  C         57.6830   -3.3830   48.9190 C.2    61  LEU61       0.2260
      4  O         58.3580   -2.4190   48.5610 O.2    61  LEU61      -0.2867
      5  CB        55.7400   -1.9850   49.5830 C.3    61  LEU61       0.0270
      6  CG        54.9790   -1.7520   48.2850 C.3    61  LEU61       0.0019
      7  CD1       55.7950   -2.1660   47.0950 C.3    61  LEU61       0.0001
      8  CD2       53.6670   -2.4720   48.1910 C.3    61  LEU61       0.0001
      9  N         54.4320   -8.4270   45.0610 N.3    91  ASP91      -0.1239
     10  CA        53.5720   -8.7890   43.9430 C.3    91  ASP91       0.1674
     11  C         54.1710  -10.0330   43.3040 C.2    91  ASP91       0.2266
     12  O         55.0240   -9.9660   42.4120 O.2    91  ASP91      -0.2867
     13  CB        53.5140   -7.6270   42.9190 C.3    91  ASP91       0.1410
     14  CG        52.6570   -6.4810   43.3650 C.2    91  ASP91       0.3668
     15  OD1       51.4400   -6.6830   43.6450 O.co2  91  ASP91      -0.2456
     16  OD2       53.1650   -5.3500   43.3890 O.co2  91  ASP91      -0.2456
     17  N         50.5930  -10.1610   46.9180 N.3   135  PHE135     -0.1241
     18  CA        49.3580   -9.4650   46.5260 C.3   135  PHE135      0.1605
     19  C         48.6330  -10.2080   45.4170 C.2   135  PHE135      0.2264
     20  O         48.4720   -9.7080   44.2750 O.2   135  PHE135     -0.2867
     21  CB        49.6560   -8.0120   46.1300 C.3   135  PHE135      0.0534
     22  CG        50.3270   -7.1990   47.2140 C.ar  135  PHE135     -0.0203
     23  CD1       49.7490   -7.0860   48.4730 C.ar  135  PHE135     -0.0042
     24  CD2       51.5340   -6.5430   46.9730 C.ar  135  PHE135     -0.0042
     25  CE1       50.3480   -6.3270   49.4820 C.ar  135  PHE135     -0.0003
     26  CE2       52.1060   -5.7560   47.9490 C.ar  135  PHE135     -0.0003
     27  CZ        51.5160   -5.6570   49.2280 C.ar  135  PHE135     -0.0000
     28  N         44.0350   -4.7150   32.8280 N.3   149  ARG149     -0.1245
     29  CA        44.1390   -5.6070   33.9650 C.3   149  ARG149      0.1563
     30  C         43.3570   -6.8950   33.8450 C.2   149  ARG149      0.2260
     31  O         43.4610   -7.7250   34.7500 O.2   149  ARG149     -0.2867
     32  CB        43.8460   -4.9180   35.2720 C.3   149  ARG149      0.0307
     33  CG        44.6360   -3.6330   35.4160 C.3   149  ARG149      0.0489
     34  CD        44.5650   -3.1990   36.8460 C.3   149  ARG149      0.2205
     35  NE        45.5160   -3.9500   37.6560 N.pl3 149  ARG149     -0.0865
     36  CZ        46.0490   -3.5300   38.8010 C.cat 149  ARG149      0.5346
     37  NH1       45.6680   -2.4000   39.3400 N.pl3 149  ARG149      0.1354
     38  NH2       46.9740   -4.2790   39.4020 N.pl3 149  ARG149      0.1354
     39  N         42.6190   -9.3160   46.1800 N.3   191  LYS191     -0.1231
     40  CA        42.5230   -7.9320   45.6580 C.3   191  LYS191      0.1693
     41  C         41.5960   -7.9290   44.4200 C.2   191  LYS191      0.2592
     42  O         41.3100   -8.9890   43.8880 O.2   191  LYS191     -0.2718
     43  CB        43.8990   -7.3000   45.4230 C.3   191  LYS191      0.0285
     44  CG        44.6300   -7.7820   44.1860 C.3   191  LYS191      0.0035
     45  CD        46.1110   -7.4540   44.1670 C.3   191  LYS191      0.0206
     46  CE        46.7050   -7.5840   42.7570 C.3   191  LYS191      0.1093
     47  NZ        48.1850   -7.4200   42.7560 N.3   191  LYS191     -0.1314
     48  N         41.0150   -6.8020   44.0260 N.am  192  HIS192     -0.1976
     49  CA        41.0380   -5.4940   44.6850 C.3   192  HIS192      0.1656
     50  C         39.5840   -5.2680   45.1760 C.2   192  HIS192      0.2291
     51  O         38.6690   -5.2280   44.3510 O.2   192  HIS192     -0.2864
     52  CB        41.3610   -4.3850   43.6490 C.3   192  HIS192      0.0771
     53  CG        42.6760   -4.5470   42.9520 C.ar  192  HIS192      0.0820
     54  ND1       42.8500   -5.3760   41.8650 N.ar  192  HIS192     -0.2267
     55  CD2       43.8640   -3.9360   43.1410 C.ar  192  HIS192      0.1154
     56  CE1       44.1030   -5.3100   41.4500 C.ar  192  HIS192      0.1986
     57  NE2       44.7340   -4.4260   42.1970 N.ar  192  HIS192     -0.2212
     58  N         43.1110   -6.3530   50.0040 N.3   235  MET235     -0.1196
     59  CA        43.5070   -5.0260   49.5440 C.3   235  MET235      0.1786
     60  C         42.2960   -4.2430   48.9360 C.2   235  MET235      0.2306
     61  O         41.4890   -4.8120   48.1730 O.2   235  MET235     -0.2863
     62  CB        44.6870   -5.1820   48.5220 C.2   235  MET235      0.0070
     63  CG        45.2250   -3.8820   47.9450 C.2   235  MET235      0.0282
     64  SD        46.2800   -4.0310   46.4820 S.3   235  MET235     -0.1125
     65  CE        47.7160   -4.7820   47.2880 C.3   235  MET235      0.0742
     66  N         40.9630    0.8670   43.7720 N.3   238  PHE238     -0.1241
     67  CA        41.0590    2.2580   43.3550 C.3   238  PHE238      0.1605
     68  C         39.7540    3.0110   43.0700 C.2   238  PHE238      0.2264
     69  O         39.7190    4.2700   43.1890 O.2   238  PHE238     -0.2867
     70  CB        41.9600    2.3810   42.1100 C.3   238  PHE238      0.0534
     71  CG        43.4390    2.0920   42.3940 C.ar  238  PHE238     -0.0203
     72  CD1       44.1520    2.9240   43.2100 C.ar  238  PHE238     -0.0042
     73  CD2       44.0680    0.9650   41.8630 C.ar  238  PHE238     -0.0042
     74  CE1       45.4720    2.6990   43.4770 C.ar  238  PHE238     -0.0003
     75  CE2       45.3920    0.6990   42.1460 C.ar  238  PHE238     -0.0003
     76  CZ        46.1220    1.5930   42.9460 C.ar  238  PHE238     -0.0000
     77  N         48.0090    0.8880   46.2330 N.3   271  TRP271     -0.1241
     78  CA        49.0350    1.9100   46.2410 C.3   271  TRP271      0.1605
     79  C         48.4550    3.3380   46.1730 C.2   271  TRP271      0.2264
     80  O         47.8550    3.7300   45.1970 O.2   271  TRP271     -0.2867
     81  CB        50.0090    1.7090   45.1190 C.3   271  TRP271      0.0550
     82  CG        51.0950    2.7150   45.1470 C.ar  271  TRP271      0.0003
     83  CD1       50.9770    4.0840   44.9930 C.ar  271  TRP271      0.0946
     84  CD2       52.4860    2.4650   45.2930 C.ar  271  TRP271      0.0152
     85  NE1       52.1950    4.6800   45.0640 N.ar  271  TRP271     -0.2442
     86  CE2       53.1500    3.7210   45.2260 C.ar  271  TRP271      0.0810
     87  CE3       53.2300    1.3310   45.4560 C.ar  271  TRP271      0.0012
     88  CZ2       54.5370    3.8560   45.3420 C.ar  271  TRP271      0.0191
     89  CZ3       54.6250    1.4550   45.5550 C.ar  271  TRP271      0.0001
     90  CH2       55.2580    2.7100   45.4960 C.ar  271  TRP271      0.0015
     91  N         49.4650    2.1000   52.0520 N.3   302  MET302     -0.1245
     92  CA        50.6000    1.7710   51.1660 C.3   302  MET302      0.1570
     93  C         51.2160    3.0020   50.4920 C.2   302  MET302      0.2261
     94  O         50.6350    3.6050   49.5560 O.2   302  MET302     -0.2867
     95  CB        50.1570    0.7460   50.1230 C.3   302  MET302      0.0387
     96  CG        51.2000    0.4270   49.0670 C.3   302  MET302      0.0595
     97  SD        50.6350   -0.7070   47.8020 S.3   302  MET302     -0.1393
     98  CE        50.2200   -2.1990   48.7030 C.3   302  MET302      0.0692
     99  N         52.7630   -7.8850   34.7800 N.3   409  TRP409     -0.1241
    100  CA        52.8710   -8.1870   36.2000 C.3   409  TRP409      0.1605
    101  C         53.9220   -9.3170   36.4660 C.2   409  TRP409      0.2264
    102  O         53.7140  -10.2560   37.2690 O.2   409  TRP409     -0.2867
    103  CB        51.4860   -8.4630   36.7940 C.3   409  TRP409      0.0550
    104  CG        50.7940   -7.2040   37.1880 C.ar  409  TRP409      0.0003
    105  CD1       49.6720   -6.6760   36.6130 C.ar  409  TRP409      0.0946
    106  CD2       51.1910   -6.2770   38.2320 C.ar  409  TRP409      0.0152
    107  NE1       49.3660   -5.4920   37.2120 N.ar  409  TRP409     -0.2442
    108  CE2       50.2780   -5.2120   38.2000 C.ar  409  TRP409      0.0810
    109  CE3       52.2440   -6.2550   39.1750 C.ar  409  TRP409      0.0012
    110  CZ2       50.3470   -4.1230   39.1050 C.ar  409  TRP409      0.0191
    111  CZ3       52.3640   -5.1670   40.0480 C.ar  409  TRP409      0.0001
    112  CH2       51.4220   -4.1000   40.0040 C.ar  409  TRP409      0.0015
    113  N         48.4710   -2.9090   34.4610 N.3   473  GLU473     -0.1245
    114  CA        47.9450   -1.6710   35.0280 C.3   473  GLU473      0.1567
    115  C         48.2340   -0.4520   34.1510 C.2   473  GLU473      0.2260
    116  O         49.3960   -0.1770   33.7760 O.2   473  GLU473     -0.2867
    117  CB        48.5300   -1.3890   36.4140 C.3   473  GLU473      0.0388
    118  CG        47.8460   -0.1910   37.1040 C.3   473  GLU473      0.1160
    119  CD        48.3480    0.1100   38.5240 C.2   473  GLU473      0.3649
    120  OE1       49.0870   -0.7430   39.0760 O.co2 473  GLU473     -0.2457
    121  OE2       47.9800    1.2070   39.0690 O.co2 473  GLU473     -0.2457
@<TRIPOS>BOND
     1    28    29    1
     2   116   115    2
     3    30    29    1
     4    30    31    2
     5    29    32    1
     6   115   114    1
     7   113   114    1
     8    99   100    1
     9   114   117    1
    10    32    33    1
    11    33    34    1
    12   100   101    1
    13   100   103    1
    14   117   118    1
    15   101   102    2
    16   105   104   ar
    17   105   107   ar
    18   103   104    1
    19    34    35    1
    20   118   119    1
    21   104   106   ar
    22   107   108   ar
    23    35    36    2
    24   108   106   ar
    25   108   110   ar
    26   106   109   ar
    27   119   121   ar
    28   119   120   ar
    29    36    37    1
    30    36    38    1
    31   110   112   ar
    32   109   111   ar
    33   112   111   ar
    34    56    54   ar
    35    56    57   ar
    36    73    75   ar
    37    73    71   ar
    38    54    53   ar
    39    70    71    1
    40    70    67    1
    41    75    76   ar
    42    57    55   ar
    43    71    72   ar
    44    12    11    2
    45    47    46    1
    46    46    45    1
    47    13    14    1
    48    13    10    1
    49    76    74   ar
    50    53    55   ar
    51    53    52    1
    52    68    69    2
    53    68    67    1
    54    72    74   ar
    55    11    10    1
    56    67    66    1
    57    14    16   ar
    58    14    15   ar
    59    52    49    1
    60    42    41    2
    61    10     9    1
    62    48    41   am
    63    48    49    1
    64    45    44    1
    65    44    43    1
    66    20    19    2
    67    51    50    2
    68    41    40    1
    69    49    50    1
    70    83    85   ar
    71    83    82   ar
    72    85    86   ar
    73    81    82    1
    74    81    78    1
    75    82    84   ar
    76    80    79    2
    77    86    84   ar
    78    86    88   ar
    79    84    87   ar
    80    88    90   ar
    81    19    18    1
    82    43    40    1
    83    87    89   ar
    84    90    89   ar
    85    40    39    1
    86    21    18    1
    87    21    22    1
    88    79    78    1
    89    77    78    1
    90    64    65    1
    91    64    63    1
    92    18    17    1
    93    24    22   ar
    94    24    26   ar
    95     7     6    1
    96    22    23   ar
    97    97    98    1
    98    97    96    1
    99    63    62    2
   100    26    27   ar
   101    61    60    2
   102     8     6    1
   103     6     5    1
   104    23    25   ar
   105    62    59    1
   106     4     3    2
   107     3     2    1
   108    60    59    1
   109    96    95    1
   110    27    25   ar
   111    59    58    1
   112    94    93    2
   113     5     2    1
   114     2     1    1
   115    95    92    1
   116    93    92    1
   117    92    91    1
