@<TRIPOS>MOLECULE
tmp/4zoaB00.pdb
 136 131 0 0 0
SMALL
GASTEIGER

@<TRIPOS>ATOM
      1  N        -55.6350  -60.6040  -42.0450 N.3    32  THR32      -0.1218
      2  CA       -54.4000  -61.0700  -41.4270 C.3    32  THR32       0.1862
      3  C        -53.2430  -60.0530  -41.5260 C.2    32  THR32       0.2287
      4  O        -52.0930  -60.3910  -41.3200 O.2    32  THR32      -0.2866
      5  CB       -53.9990  -62.4430  -41.9580 C.3    32  THR32       0.1770
      6  OG1      -53.9210  -62.4070  -43.3850 O.3    32  THR32      -0.2211
      7  CG2      -54.9870  -63.4810  -41.4920 C.3    32  THR32       0.0375
      8  N        -57.0540  -64.0790  -51.1140 N.3    52  LEU52      -0.1245
      9  CA       -56.6740  -64.8020  -49.9250 C.3    52  LEU52       0.1561
     10  C        -57.6840  -64.5850  -48.8590 C.2    52  LEU52       0.2260
     11  O        -58.1790  -63.4800  -48.6490 O.2    52  LEU52      -0.2867
     12  CB       -55.2650  -64.4330  -49.3680 C.3    52  LEU52       0.0270
     13  CG       -55.1320  -63.2520  -48.3880 C.3    52  LEU52       0.0019
     14  CD1      -53.7760  -63.1920  -47.7190 C.3    52  LEU52       0.0001
     15  CD2      -55.3980  -61.9630  -49.1590 C.3    52  LEU52       0.0001
     16  N        -54.4840  -69.5590  -45.0240 N.3    82  ASP82      -0.1239
     17  CA       -53.6260  -69.9230  -43.9310 C.3    82  ASP82       0.1674
     18  C        -54.1830  -71.1850  -43.3120 C.2    82  ASP82       0.2266
     19  O        -55.0680  -71.1490  -42.4840 O.2    82  ASP82      -0.2867
     20  CB       -53.5700  -68.7960  -42.8840 C.3    82  ASP82       0.1410
     21  CG       -52.8530  -67.5760  -43.3930 C.2    82  ASP82       0.3668
     22  OD1      -51.6280  -67.6090  -43.6510 O.co2  82  ASP82      -0.2456
     23  OD2      -53.5150  -66.5640  -43.5340 O.co2  82  ASP82      -0.2456
     24  N        -50.5720  -71.2450  -47.0300 N.3   126  PHE126     -0.1241
     25  CA       -49.3970  -70.5040  -46.5560 C.3   126  PHE126      0.1605
     26  C        -48.7200  -71.2950  -45.4260 C.2   126  PHE126      0.2264
     27  O        -48.5550  -70.8320  -44.2950 O.2   126  PHE126     -0.2867
     28  CB       -49.8520  -69.1150  -46.0870 C.3   126  PHE126      0.0534
     29  CG       -50.4800  -68.2550  -47.1700 C.ar  126  PHE126     -0.0203
     30  CD1      -49.9260  -68.1830  -48.4320 C.ar  126  PHE126     -0.0042
     31  CD2      -51.6070  -67.4860  -46.9030 C.ar  126  PHE126     -0.0042
     32  CE1      -50.4900  -67.3870  -49.4280 C.ar  126  PHE126     -0.0003
     33  CE2      -52.1380  -66.6410  -47.8580 C.ar  126  PHE126     -0.0003
     34  CZ       -51.5760  -66.6030  -49.1420 C.ar  126  PHE126     -0.0000
     35  N        -44.0210  -65.9800  -32.8190 N.3   140  ARG140     -0.1245
     36  CA       -44.2260  -66.8590  -33.9930 C.3   140  ARG140      0.1563
     37  C        -43.4020  -68.1220  -33.8770 C.2   140  ARG140      0.2260
     38  O        -43.3070  -68.8800  -34.8540 O.2   140  ARG140     -0.2867
     39  CB       -43.8750  -66.1600  -35.3040 C.3   140  ARG140      0.0307
     40  CG       -44.5350  -64.8170  -35.4720 C.3   140  ARG140      0.0489
     41  CD       -44.3750  -64.3820  -36.9100 C.3   140  ARG140      0.2205
     42  NE       -45.3350  -65.1110  -37.7170 N.pl3 140  ARG140     -0.0865
     43  CZ       -46.0370  -64.6290  -38.7280 C.cat 140  ARG140      0.5346
     44  NH1      -45.8760  -63.3750  -39.1480 N.pl3 140  ARG140      0.1354
     45  NH2      -46.9520  -65.4260  -39.2810 N.pl3 140  ARG140      0.1354
     46  N        -42.7370  -70.3260  -46.2820 N.3   182  LYS182     -0.1231
     47  CA       -42.5900  -68.9870  -45.7390 C.3   182  LYS182      0.1693
     48  C        -41.7060  -69.0530  -44.5030 C.2   182  LYS182      0.2592
     49  O        -41.5080  -70.1580  -43.9680 O.2   182  LYS182     -0.2718
     50  CB       -43.9530  -68.3810  -45.4520 C.3   182  LYS182      0.0285
     51  CG       -44.6330  -68.9730  -44.2410 C.3   182  LYS182      0.0035
     52  CD       -46.0520  -68.5070  -44.1440 C.3   182  LYS182      0.0206
     53  CE       -46.6380  -68.8170  -42.7820 C.3   182  LYS182      0.1093
     54  NZ       -48.0640  -68.4450  -42.7230 N.3   182  LYS182     -0.1314
     55  N        -41.0960  -67.9430  -44.0650 N.am  183  HIS183     -0.1976
     56  CA       -41.0930  -66.6210  -44.6980 C.3   183  HIS183      0.1656
     57  C        -39.6430  -66.3390  -45.1780 C.2   183  HIS183      0.2291
     58  O        -38.7380  -66.2770  -44.3710 O.2   183  HIS183     -0.2864
     59  CB       -41.4940  -65.5390  -43.6750 C.3   183  HIS183      0.0771
     60  CG       -42.7980  -65.7820  -42.9610 C.ar  183  HIS183      0.0820
     61  ND1      -42.8920  -66.5770  -41.8420 N.ar  183  HIS183     -0.2267
     62  CD2      -44.0410  -65.2550  -43.1410 C.ar  183  HIS183      0.1154
     63  CE1      -44.1290  -66.5760  -41.3900 C.ar  183  HIS183      0.1986
     64  NE2      -44.8470  -65.7860  -42.1640 N.ar  183  HIS183     -0.2212
     65  N        -43.2990  -67.4900  -50.0680 N.3   226  MET226     -0.1245
     66  CA       -43.6380  -66.1610  -49.5590 C.3   226  MET226      0.1570
     67  C        -42.4100  -65.3970  -49.0090 C.2   226  MET226      0.2261
     68  O        -41.6100  -65.9740  -48.2740 O.2   226  MET226     -0.2867
     69  CB       -44.7740  -66.2690  -48.4940 C.3   226  MET226      0.0387
     70  CG       -45.2120  -64.9380  -47.8960 C.3   226  MET226      0.0595
     71  SD       -46.3540  -65.0920  -46.5050 S.3   226  MET226     -0.1393
     72  CE       -47.8100  -65.7410  -47.3980 C.3   226  MET226      0.0692
     73  N        -41.0400  -60.2180  -43.8890 N.3   229  PHE229     -0.1241
     74  CA       -41.1260  -58.8120  -43.4500 C.3   229  PHE229      0.1605
     75  C        -39.8020  -58.1090  -43.0650 C.2   229  PHE229      0.2264
     76  O        -39.7280  -56.8580  -43.1460 O.2   229  PHE229     -0.2867
     77  CB       -42.0450  -58.7000  -42.2160 C.3   229  PHE229      0.0534
     78  CG       -43.5250  -58.8650  -42.5210 C.ar  229  PHE229     -0.0203
     79  CD1      -44.1080  -58.1480  -43.5060 C.ar  229  PHE229     -0.0042
     80  CD2      -44.3070  -59.7370  -41.7820 C.ar  229  PHE229     -0.0042
     81  CE1      -45.4410  -58.2580  -43.7590 C.ar  229  PHE229     -0.0003
     82  CE2      -45.6550  -59.8900  -42.0490 C.ar  229  PHE229     -0.0003
     83  CZ       -46.2190  -59.1300  -43.0250 C.ar  229  PHE229     -0.0000
     84  N        -45.3550  -61.1730  -48.5780 N.3   261  ASP261     -0.1225
     85  CA       -46.1620  -61.1950  -47.3450 C.3   261  ASP261      0.1805
     86  C        -47.0270  -59.8560  -47.3410 C.2   261  ASP261      0.2597
     87  O        -46.8780  -58.9800  -48.1900 O.2   261  ASP261     -0.2718
     88  CB       -45.2710  -61.4140  -46.1190 C.3   261  ASP261      0.1424
     89  CG       -46.0110  -61.9030  -44.8510 C.2   261  ASP261      0.3668
     90  OD1      -47.2880  -61.9230  -44.7970 O.co2 261  ASP261     -0.2456
     91  OD2      -45.2640  -62.2360  -43.8610 O.co2 261  ASP261     -0.2456
     92  N        -47.9570  -59.7620  -46.4140 N.am  262  TRP262     -0.1976
     93  CA       -49.0440  -58.8160  -46.4880 C.3   262  TRP262      0.1640
     94  C        -48.5360  -57.3810  -46.4180 C.2   262  TRP262      0.2290
     95  O        -47.9960  -56.9590  -45.4270 O.2   262  TRP262     -0.2864
     96  CB       -50.0320  -59.1560  -45.3520 C.3   262  TRP262      0.0576
     97  CG       -51.1590  -58.2610  -45.2460 C.ar  262  TRP262      0.0006
     98  CD1      -51.1260  -56.9040  -45.0380 C.ar  262  TRP262      0.0946
     99  CD2      -52.5440  -58.6080  -45.3510 C.ar  262  TRP262      0.0152
    100  NE1      -52.3970  -56.4010  -44.9830 N.ar  262  TRP262     -0.2442
    101  CE2      -53.2890  -57.4170  -45.1910 C.ar  262  TRP262      0.0810
    102  CE3      -53.2110  -59.7790  -45.5630 C.ar  262  TRP262      0.0012
    103  CZ2      -54.6790  -57.3910  -45.2180 C.ar  262  TRP262      0.0191
    104  CZ3      -54.6110  -59.7580  -45.5650 C.ar  262  TRP262      0.0001
    105  CH2      -55.3180  -58.5760  -45.3960 C.ar  262  TRP262      0.0015
    106  N        -49.4010  -58.9040  -52.1350 N.3   293  MET293     -0.1245
    107  CA       -50.5100  -59.1640  -51.2330 C.3   293  MET293      0.1570
    108  C        -51.1340  -57.8990  -50.6030 C.2   293  MET293      0.2261
    109  O        -50.5550  -57.2920  -49.7030 O.2   293  MET293     -0.2867
    110  CB       -50.0990  -60.1520  -50.1740 C.3   293  MET293      0.0387
    111  CG       -51.2030  -60.6380  -49.2300 C.3   293  MET293      0.0595
    112  SD       -50.5760  -61.6730  -47.8460 S.3   293  MET293     -0.1393
    113  CE       -50.2230  -63.2420  -48.6200 C.3   293  MET293      0.0692
    114  N        -52.7880  -69.1530  -34.8050 N.3   400  TRP400     -0.1241
    115  CA       -52.9200  -69.4790  -36.2580 C.3   400  TRP400      0.1605
    116  C        -53.9180  -70.5740  -36.4560 C.2   400  TRP400      0.2264
    117  O        -53.6350  -71.6070  -37.0970 O.2   400  TRP400     -0.2867
    118  CB       -51.5910  -69.8060  -36.9340 C.3   400  TRP400      0.0550
    119  CG       -50.8880  -68.5750  -37.2960 C.ar  400  TRP400      0.0003
    120  CD1      -49.7310  -68.0910  -36.7240 C.ar  400  TRP400      0.0946
    121  CD2      -51.2810  -67.6220  -38.2890 C.ar  400  TRP400      0.0152
    122  NE1      -49.4090  -66.9110  -37.2940 N.ar  400  TRP400     -0.2442
    123  CE2      -50.3310  -66.5810  -38.2540 C.ar  400  TRP400      0.0810
    124  CE3      -52.3510  -67.5410  -39.2040 C.ar  400  TRP400      0.0012
    125  CZ2      -50.3920  -65.4680  -39.1180 C.ar  400  TRP400      0.0191
    126  CZ3      -52.4300  -66.4310  -40.0460 C.ar  400  TRP400      0.0001
    127  CH2      -51.4470  -65.4030  -39.9990 C.ar  400  TRP400      0.0015
    128  N        -48.4250  -63.9270  -34.5120 N.3   464  GLU464     -0.1245
    129  CA       -47.8620  -62.7270  -35.1330 C.3   464  GLU464      0.1567
    130  C        -48.1860  -61.5480  -34.2340 C.2   464  GLU464      0.2260
    131  O        -49.3110  -61.4260  -33.7890 O.2   464  GLU464     -0.2867
    132  CB       -48.4600  -62.4440  -36.5070 C.3   464  GLU464      0.0388
    133  CG       -47.8780  -61.2000  -37.1700 C.3   464  GLU464      0.1160
    134  CD       -48.2370  -60.9840  -38.6460 C.2   464  GLU464      0.3649
    135  OE1      -48.6560  -61.9640  -39.3420 O.co2 464  GLU464     -0.2457
    136  OE2      -48.1180  -59.8020  -39.0780 O.co2 464  GLU464     -0.2457
@<TRIPOS>BOND
     1   106   107    1
     2   107   108    1
     3   107   110    1
     4     8     9    1
     5   108   109    2
     6   110   111    1
     7    65    66    1
     8     9    12    1
     9     9    10    1
    10    66    67    1
    11    66    69    1
    12    32    34   ar
    13    32    30   ar
    14    12    13    1
    15   111   112    1
    16    15    13    1
    17    34    33   ar
    18    67    68    2
    19    10    11    2
    20   113   112    1
    21    84    85    1
    22    69    70    1
    23    30    29   ar
    24    13    14    1
    25    87    86    2
    26    70    71    1
    27    33    31   ar
    28    72    71    1
    29    85    86    1
    30    85    88    1
    31    86    92   am
    32    29    31   ar
    33    29    28    1
    34    24    25    1
    35    25    28    1
    36    25    26    1
    37    93    94    1
    38    93    92    1
    39    93    96    1
    40    94    95    2
    41    46    47    1
    42    88    89    1
    43    47    50    1
    44    47    48    1
    45   104   102   ar
    46   104   105   ar
    47   102    99   ar
    48    50    51    1
    49    26    27    2
    50   105   103   ar
    51    96    97    1
    52    99    97   ar
    53    99   101   ar
    54    97    98   ar
    55   103   101   ar
    56   101   100   ar
    57    57    56    1
    58    57    58    2
    59    98   100   ar
    60    16    17    1
    61    89    90   ar
    62    89    91   ar
    63    56    55    1
    64    56    59    1
    65    48    55   am
    66    48    49    2
    67    51    52    1
    68    52    53    1
    69    17    18    1
    70    17    20    1
    71    73    74    1
    72    81    79   ar
    73    81    83   ar
    74    59    60    1
    75    22    21   ar
    76    23    21   ar
    77    79    78   ar
    78    74    75    1
    79    74    77    1
    80    21    20    1
    81     6     5    1
    82    18    19    2
    83    76    75    2
    84    62    60   ar
    85    62    64   ar
    86    83    82   ar
    87    60    61   ar
    88    53    54    1
    89    78    77    1
    90    78    80   ar
    91    64    63   ar
    92    82    80   ar
    93     1     2    1
    94     5     7    1
    95     5     2    1
    96    61    63   ar
    97     3     2    1
    98     3     4    2
    99   126   127   ar
   100   126   124   ar
   101   127   125   ar
   102   135   134   ar
   103    45    43    1
   104   124   121   ar
   105    44    43    1
   106   125   123   ar
   107   136   134   ar
   108    43    42    2
   109   134   133    1
   110   121   123   ar
   111   121   119   ar
   112   123   122   ar
   113    42    41    1
   114   119   118    1
   115   119   120   ar
   116   122   120   ar
   117   133   132    1
   118   117   116    2
   119   118   115    1
   120    41    40    1
   121   132   129    1
   122   116   115    1
   123   115   114    1
   124    40    39    1
   125    39    36    1
   126   129   128    1
   127   129   130    1
   128    38    37    2
   129   130   131    2
   130    36    37    1
   131    36    35    1
