@<TRIPOS>MOLECULE
tmp/4zobB00.pdb
 94 87 0 0 0
SMALL
GASTEIGER

@<TRIPOS>ATOM
      1  N        -34.1890  -69.9200  -32.1550 N.3   143  ARG143     -0.1245
      2  CA       -33.3460  -70.0770  -30.9660 C.3   143  ARG143      0.1563
      3  C        -33.7930  -69.1540  -29.8480 C.2   143  ARG143      0.2260
      4  O        -33.0870  -69.0240  -28.8460 O.2   143  ARG143     -0.2867
      5  CB       -31.9030  -69.7630  -31.2970 C.3   143  ARG143      0.0307
      6  CG       -31.2290  -70.7720  -32.2140 C.3   143  ARG143      0.0489
      7  CD       -29.8300  -70.3090  -32.4790 C.3   143  ARG143      0.2205
      8  NE       -28.9460  -71.2280  -33.1900 N.pl3 143  ARG143     -0.0865
      9  CZ       -27.7910  -70.8570  -33.7630 C.cat 143  ARG143      0.5346
     10  NH1      -27.3760  -69.5910  -33.7380 N.pl3 143  ARG143      0.1354
     11  NH2      -27.0480  -71.7470  -34.3990 N.pl3 143  ARG143      0.1354
     12  N        -23.6590  -63.4670  -40.2770 N.3   211  SER211     -0.1217
     13  CA       -22.7100  -63.6550  -41.3720 C.3   211  SER211      0.1889
     14  C        -23.3340  -64.5850  -42.3790 C.2   211  SER211      0.2288
     15  O        -24.1740  -65.4450  -42.0430 O.2   211  SER211     -0.2866
     16  CB       -21.3910  -64.2670  -40.8980 C.3   211  SER211      0.2089
     17  OG       -21.5600  -65.6480  -40.5920 O.3   211  SER211     -0.2183
     18  N        -21.9970  -67.0040  -43.9440 N.3   213  ARG213     -0.1231
     19  CA       -21.6310  -68.3870  -43.6790 C.3   213  ARG213      0.1694
     20  C        -22.6150  -69.0730  -42.7200 C.2   213  ARG213      0.2591
     21  O        -22.9590  -70.2430  -42.8840 O.2   213  ARG213     -0.2718
     22  CB       -20.2200  -68.4560  -43.0990 C.3   213  ARG213      0.0321
     23  CG       -19.7150  -69.8890  -42.9070 C.3   213  ARG213      0.0489
     24  CD       -18.4130  -69.9180  -42.1170 C.3   213  ARG213      0.2205
     25  NE       -18.4850  -69.1360  -40.8930 N.pl3 213  ARG213     -0.0865
     26  CZ       -19.2560  -69.4180  -39.8360 C.cat 213  ARG213      0.5346
     27  NH1      -20.0850  -70.4680  -39.8130 N.pl3 213  ARG213      0.1354
     28  NH2      -19.2100  -68.6290  -38.7820 N.pl3 213  ARG213      0.1354
     29  N        -23.0730  -68.3260  -41.7320 N.am  214  GLU214     -0.1979
     30  CA       -23.9940  -68.8290  -40.7230 C.3   214  GLU214      0.1602
     31  C        -25.4000  -68.9350  -41.3130 C.2   214  GLU214      0.2287
     32  O        -26.1800  -69.8330  -40.9900 O.2   214  GLU214     -0.2864
     33  CB       -23.9470  -67.8600  -39.5380 C.3   214  GLU214      0.0415
     34  CG       -24.6690  -68.2980  -38.3070 C.3   214  GLU214      0.1163
     35  CD       -24.0890  -69.5460  -37.6730 C.2   214  GLU214      0.3649
     36  OE1      -22.9230  -69.9420  -37.9450 O.co2 214  GLU214     -0.2457
     37  OE2      -24.8380  -70.1180  -36.8540 O.co2 214  GLU214     -0.2457
     38  N        -26.7340  -72.7080  -41.0240 N.3   218  ASN218     -0.1240
     39  CA       -27.8480  -73.0630  -40.1030 C.3   218  ASN218      0.1653
     40  C        -29.2570  -72.6160  -40.4630 C.2   218  ASN218      0.2266
     41  O        -30.2230  -73.3470  -40.2530 O.2   218  ASN218     -0.2867
     42  CB       -27.4790  -72.5750  -38.7350 C.3   218  ASN218      0.1155
     43  CG       -26.4440  -73.4540  -38.1010 C.2   218  ASN218      0.2627
     44  OD1      -26.6090  -74.6670  -38.1060 O.2   218  ASN218     -0.2716
     45  ND2      -25.3700  -72.8630  -37.5430 N.am  218  ASN218     -0.0877
     46  N        -29.1060  -73.0720  -26.8400 N.3   561  TYR561     -0.1241
     47  CA       -29.4320  -74.1440  -27.7930 C.3   561  TYR561      0.1605
     48  C        -28.3840  -75.2640  -27.7090 C.2   561  TYR561      0.2264
     49  O        -27.2680  -75.0180  -27.2320 O.2   561  TYR561     -0.2867
     50  CB       -29.5380  -73.5570  -29.2010 C.3   561  TYR561      0.0534
     51  CG       -28.4060  -72.6170  -29.5660 C.ar  561  TYR561     -0.0201
     52  CD1      -28.4770  -71.2440  -29.3070 C.ar  561  TYR561     -0.0009
     53  CD2      -27.2600  -73.1000  -30.1720 C.ar  561  TYR561     -0.0009
     54  CE1      -27.4390  -70.4060  -29.6480 C.ar  561  TYR561      0.0417
     55  CE2      -26.2190  -72.2660  -30.5310 C.ar  561  TYR561      0.0417
     56  CZ       -26.3000  -70.9140  -30.2750 C.ar  561  TYR561      0.1957
     57  OH       -25.2180  -70.1130  -30.6460 O.3   561  TYR561     -0.2866
     58  N        -26.6720  -76.9720  -30.0530 N.3   563  ASN563     -0.1240
     59  CA       -25.5770  -76.9230  -31.0250 C.3   563  ASN563      0.1653
     60  C        -24.7150  -75.6740  -30.8850 C.2   563  ASN563      0.2266
     61  O        -24.6180  -74.8440  -31.7690 O.2   563  ASN563     -0.2867
     62  CB       -26.0450  -77.1700  -32.4720 C.3   563  ASN563      0.1155
     63  CG       -27.2350  -76.3230  -32.9060 C.2   563  ASN563      0.2627
     64  OD1      -28.0590  -75.8760  -32.1100 O.2   563  ASN563     -0.2716
     65  ND2      -27.3350  -76.1230  -34.2060 N.am  563  ASN563     -0.0877
     66  N        -21.1180  -73.4830  -29.8260 N.3   565  LEU565     -0.1245
     67  CA       -19.6580  -73.4840  -29.9250 C.3   565  LEU565      0.1561
     68  C        -19.0010  -73.6200  -28.5510 C.2   565  LEU565      0.2260
     69  O        -19.5870  -73.3500  -27.5290 O.2   565  LEU565     -0.2867
     70  CB       -19.1430  -72.2080  -30.5940 C.3   565  LEU565      0.0270
     71  CG       -19.5910  -71.9500  -32.0280 C.3   565  LEU565      0.0019
     72  CD1      -18.8070  -70.7690  -32.5850 C.3   565  LEU565      0.0001
     73  CD2      -19.4150  -73.1860  -32.9040 C.3   565  LEU565      0.0001
     74  N        -13.0610  -73.4840  -39.2170 N.3   650  ILE650     -0.1231
     75  CA       -14.1170  -72.7120  -38.5440 C.3   650  ILE650      0.1692
     76  C        -14.3790  -73.4180  -37.2020 C.2   650  ILE650      0.2592
     77  O        -14.4060  -74.6530  -37.1530 O.2   650  ILE650     -0.2718
     78  CB       -15.4290  -72.7880  -39.3900 C.3   650  ILE650      0.0266
     79  CG1      -15.3990  -71.8780  -40.6110 C.3   650  ILE650      0.0019
     80  CG2      -16.6830  -72.4980  -38.5920 C.3   650  ILE650      0.0020
     81  CD1      -14.2170  -70.9460  -40.7000 C.3   650  ILE650      0.0001
     82  N        -14.5930  -72.6550  -36.1260 N.am  651  SER651     -0.1952
     83  CA       -15.0300  -73.2390  -34.8600 C.3   651  SER651      0.1924
     84  C        -16.3730  -73.9420  -35.0360 C.2   651  SER651      0.2314
     85  O        -17.3790  -73.2890  -35.3700 O.2   651  SER651     -0.2863
     86  CB       -15.1730  -72.1850  -33.7610 C.3   651  SER651      0.2116
     87  OG       -15.4440  -72.8100  -32.5070 O.3   651  SER651     -0.2180
     88  N        -19.7490  -76.5970  -33.9530 N.3   653  PRO653     -0.2116
     89  CA       -20.5990  -76.8630  -32.7990 C.3   653  PRO653      0.1372
     90  C        -20.2090  -78.1330  -32.1060 C.2   653  PRO653      0.2244
     91  O        -19.8330  -79.0940  -32.7660 O.2   653  PRO653     -0.2868
     92  CB       -22.0170  -76.9990  -33.3870 C.3   653  PRO653      0.0268
     93  CG       -21.8860  -76.8350  -34.8480 C.3   653  PRO653      0.0207
     94  CD       -20.5060  -76.3870  -35.1910 C.3   653  PRO653      0.0892
@<TRIPOS>BOND
     1    18    19    1
     2    19    22    1
     3    19    20    1
     4    22    23    1
     5    23    24    1
     6    21    20    2
     7    20    29   am
     8    14    15    2
     9    14    13    1
    10    24    25    1
    11    29    30    1
    12    13    16    1
    13    13    12    1
    14    31    32    2
    15    31    30    1
    16    38    39    1
    17    16    17    1
    18    25    26    2
    19    30    33    1
    20    81    79    1
    21    79    78    1
    22    40    41    2
    23    40    39    1
    24    39    42    1
    25    26    27    1
    26    26    28    1
    27    33    34    1
    28    78    80    1
    29    78    75    1
    30    74    75    1
    31    42    43    1
    32    75    76    1
    33    34    35    1
    34    44    43    2
    35    43    45   am
    36    36    35   ar
    37    35    37   ar
    38    76    77    2
    39    76    82   am
    40    82    83    1
    41    85    84    2
    42    94    93    1
    43    94    88    1
    44    84    83    1
    45    83    86    1
    46    93    92    1
    47    11     9    1
    48    65    63   am
    49    88    89    1
    50     9    10    1
    51     9     8    2
    52    86    87    1
    53    92    89    1
    54     8     7    1
    55    63    62    1
    56    63    64    2
    57    73    71    1
    58    89    90    1
    59    91    90    2
    60    72    71    1
    61     7     6    1
    62    62    59    1
    63     6     5    1
    64     1     2    1
    65    71    70    1
    66    61    60    2
    67     5     2    1
    68    59    60    1
    69    59    58    1
    70     2     3    1
    71    57    56    1
    72    70    67    1
    73    55    56   ar
    74    55    53   ar
    75    56    54   ar
    76    53    51   ar
    77    67    66    1
    78    67    68    1
    79     3     4    2
    80    54    52   ar
    81    51    52   ar
    82    51    50    1
    83    50    47    1
    84    68    69    2
    85    47    48    1
    86    47    46    1
    87    48    49    2
