@<TRIPOS>MOLECULE
tmp/4zobB03.pdb
 71 70 0 0 0
SMALL
GASTEIGER

@<TRIPOS>ATOM
      1  N        -54.4510  -74.1810  -30.2010 N.3   404  GLY404     -0.1210
      2  CA       -53.1990  -73.4970  -30.5670 C.3   404  GLY404      0.1956
      3  C        -53.3830  -72.2920  -31.4720 C.2   404  GLY404      0.2612
      4  O        -54.4910  -72.0220  -31.9310 O.2   404  GLY404     -0.2717
      5  N        -52.2980  -71.5510  -31.7080 N.am  405  GLY405     -0.1942
      6  CA       -52.3270  -70.3820  -32.6240 C.3   405  GLY405      0.2014
      7  C        -52.3000  -70.7980  -34.0920 C.2   405  GLY405      0.2639
      8  O        -52.1020  -71.9550  -34.3920 O.2   405  GLY405     -0.2714
      9  N        -52.4890  -69.8650  -35.0170 N.am  406  TRP406     -0.1959
     10  CA       -52.5350  -70.2020  -36.4540 C.3   406  TRP406      0.1771
     11  C        -53.5350  -71.3280  -36.7440 C.2   406  TRP406      0.2620
     12  O        -53.2860  -72.2740  -37.4890 O.2   406  TRP406     -0.2715
     13  CB       -51.1390  -70.5370  -36.9790 C.3   406  TRP406      0.0590
     14  CG       -50.3680  -69.2960  -37.3000 C.ar  406  TRP406      0.0006
     15  CD1      -49.2490  -68.8310  -36.6790 C.ar  406  TRP406      0.0946
     16  CD2      -50.6940  -68.3420  -38.3070 C.ar  406  TRP406      0.0152
     17  NE1      -48.8560  -67.6550  -37.2460 N.ar  406  TRP406     -0.2442
     18  CE2      -49.7260  -67.3290  -38.2490 C.ar  406  TRP406      0.0810
     19  CE3      -51.7200  -68.2440  -39.2460 C.ar  406  TRP406      0.0012
     20  CZ2      -49.7360  -66.2260  -39.1150 C.ar  406  TRP406      0.0191
     21  CZ3      -51.7360  -67.1470  -40.0990 C.ar  406  TRP406      0.0001
     22  CH2      -50.7500  -66.1520  -40.0240 C.ar  406  TRP406      0.0015
     23  N        -54.6650  -71.2060  -36.0830 N.am  407  ASN407     -0.1958
     24  CA       -55.7960  -72.0170  -36.3520 C.3   407  ASN407      0.1819
     25  C        -56.8360  -71.1220  -36.9830 C.2   407  ASN407      0.2621
     26  O        -57.6330  -70.5140  -36.2980 O.2   407  ASN407     -0.2715
     27  CB       -56.3370  -72.6020  -35.0700 C.3   407  ASN407      0.1195
     28  CG       -57.6940  -73.2260  -35.2740 C.2   407  ASN407      0.2630
     29  OD1      -58.0100  -73.7100  -36.3670 O.2   407  ASN407     -0.2716
     30  ND2      -58.5140  -73.1890  -34.2460 N.am  407  ASN407     -0.0877
     31  N        -56.8140  -71.0290  -38.2970 N.am  408  VAL408     -0.1977
     32  CA       -57.6850  -70.0940  -38.9800 C.3   408  VAL408      0.1596
     33  C        -59.0780  -70.7100  -39.1910 C.2   408  VAL408      0.2287
     34  O        -60.0580  -69.9920  -39.2070 O.2   408  VAL408     -0.2864
     35  CB       -57.0450  -69.6600  -40.3120 C.3   408  VAL408      0.0276
     36  CG1      -57.9320  -68.6800  -41.0780 C.3   408  VAL408      0.0022
     37  CG2      -55.6820  -69.0350  -40.0520 C.3   408  VAL408      0.0022
     38  N        -53.4880  -68.7360  -26.5790 N.3   465  ASN465     -0.1225
     39  CA       -52.7120  -68.7980  -27.8120 C.3   465  ASN465      0.1785
     40  C        -52.4190  -67.4070  -28.3140 C.2   465  ASN465      0.2597
     41  O        -51.4720  -67.2260  -29.0540 O.2   465  ASN465     -0.2718
     42  CB       -53.4100  -69.5930  -28.9320 C.3   465  ASN465      0.1169
     43  CG       -54.4320  -68.7600  -29.7080 C.2   465  ASN465      0.2627
     44  OD1      -54.0900  -67.9210  -30.5640 O.2   465  ASN465     -0.2716
     45  ND2      -55.7020  -69.0090  -29.4250 N.am  465  ASN465     -0.0877
     46  N        -53.2650  -66.4430  -27.9560 N.am  466  GLU466     -0.1979
     47  CA       -53.0900  -65.0690  -28.4320 C.3   466  GLU466      0.1602
     48  C        -51.8320  -64.4310  -27.8050 C.2   466  GLU466      0.2287
     49  O        -51.3980  -63.3820  -28.2570 O.2   466  GLU466     -0.2864
     50  CB       -54.3580  -64.2070  -28.2370 C.3   466  GLU466      0.0415
     51  CG       -54.4660  -63.5610  -26.8630 C.3   466  GLU466      0.1163
     52  CD       -55.8310  -62.9780  -26.5390 C.2   466  GLU466      0.3649
     53  OE1      -56.7980  -63.7380  -26.4660 O.co2 466  GLU466     -0.2457
     54  OE2      -55.9350  -61.7650  -26.3020 O.co2 466  GLU466     -0.2457
     55  N        -49.0590  -65.8620  -28.1680 N.3   468  GLY468     -0.1210
     56  CA       -48.0400  -66.3050  -29.1040 C.3   468  GLY468      0.1956
     57  C        -48.5350  -66.1700  -30.5250 C.2   468  GLY468      0.2612
     58  O        -49.4790  -65.4530  -30.7770 O.2   468  GLY468     -0.2717
     59  N        -47.9060  -66.8660  -31.4580 N.am  469  GLY469     -0.1942
     60  CA       -48.1820  -66.6620  -32.8780 C.3   469  GLY469      0.2014
     61  C        -47.5780  -65.3520  -33.3710 C.2   469  GLY469      0.2638
     62  O        -46.6280  -64.8630  -32.7830 O.2   469  GLY469     -0.2714
     63  N        -48.1420  -64.7830  -34.4360 N.am  470  GLU470     -0.1977
     64  CA       -47.5730  -63.5970  -35.0690 C.3   470  GLU470      0.1602
     65  C        -47.8840  -62.3620  -34.2310 C.2   470  GLU470      0.2287
     66  O        -49.0180  -62.1740  -33.8170 O.2   470  GLU470     -0.2864
     67  CB       -48.0500  -63.4160  -36.5230 C.3   470  GLU470      0.0415
     68  CG       -47.6530  -62.0570  -37.1070 C.3   470  GLU470      0.1163
     69  CD       -48.0440  -61.8260  -38.5770 C.2   470  GLU470      0.3649
     70  OE1      -48.6020  -62.7290  -39.2280 O.co2 470  GLU470     -0.2457
     71  OE2      -47.7900  -60.7160  -39.0890 O.co2 470  GLU470     -0.2457
@<TRIPOS>BOND
     1    36    35    1
     2    35    37    1
     3    35    32    1
     4    21    22   ar
     5    21    19   ar
     6    22    20   ar
     7    19    16   ar
     8    70    69   ar
     9    34    33    2
    10    33    32    1
    11    20    18   ar
    12    71    69   ar
    13    32    31    1
    14    69    68    1
    15    16    18   ar
    16    16    14   ar
    17    31    25   am
    18    18    17   ar
    19    12    11    2
    20    14    13    1
    21    14    15   ar
    22    17    15   ar
    23    68    67    1
    24    25    24    1
    25    25    26    2
    26    13    10    1
    27    11    10    1
    28    11    23   am
    29    67    64    1
    30    10     9    1
    31    29    28    2
    32    24    23    1
    33    24    27    1
    34    28    27    1
    35    28    30   am
    36    64    63    1
    37    64    65    1
    38     9     7   am
    39    63    61   am
    40     8     7    2
    41    65    66    2
    42     7     6    1
    43    61    60    1
    44    61    62    2
    45    60    59    1
    46     6     5    1
    47     4     3    2
    48     5     3   am
    49     3     2    1
    50    59    57   am
    51    58    57    2
    52     2     1    1
    53    44    43    2
    54    57    56    1
    55    43    45   am
    56    43    42    1
    57    56    55    1
    58    41    40    2
    59    42    39    1
    60    47    50    1
    61    47    46    1
    62    47    48    1
    63    40    46   am
    64    40    39    1
    65    49    48    2
    66    50    51    1
    67    39    38    1
    68    51    52    1
    69    52    53   ar
    70    52    54   ar
