@<TRIPOS>MOLECULE
tmp/4zofA01.pdb
 136 130 0 0 0
SMALL
GASTEIGER

@<TRIPOS>ATOM
      1  N          8.2290   -4.7070   36.4890 N.3    62  MET62      -0.1245
      2  CA         8.9530   -3.5610   35.9560 C.3    62  MET62       0.1570
      3  C          9.9770   -3.0360   36.9530 C.2    62  MET62       0.2261
      4  O         11.1150   -2.7210   36.5930 O.2    62  MET62      -0.2867
      5  CB         7.9950   -2.4390   35.5710 C.3    62  MET62       0.0387
      6  CG         7.2600   -2.6950   34.2720 C.3    62  MET62       0.0595
      7  SD         6.2430   -1.2940   33.7610 S.3    62  MET62      -0.1393
      8  CE         7.5420   -0.1610   33.3010 C.3    62  MET62       0.0692
      9  N          3.3010   12.9170   39.3890 N.3    82  VAL82      -0.1231
     10  CA         3.2920   12.4090   38.0130 C.3    82  VAL82       0.1692
     11  C          1.9260   11.8400   37.6690 C.2    82  VAL82       0.2593
     12  O          1.1710   11.4470   38.5560 O.2    82  VAL82      -0.2718
     13  CB         4.3700   11.3340   37.8210 C.3    82  VAL82       0.0266
     14  CG1        4.0420   10.0980   38.6600 C.3    82  VAL82       0.0020
     15  CG2        4.5380   10.9730   36.3480 C.3    82  VAL82       0.0020
     16  N          1.6130   11.7890   36.3810 N.am   83  GLY83      -0.1942
     17  CA         0.3560   11.2360   35.9310 C.3    83  GLY83       0.2014
     18  C          0.5530   10.2380   34.8230 C.2    83  GLY83       0.2639
     19  O          1.6410   10.0990   34.2860 O.2    83  GLY83      -0.2714
     20  N         -0.5190    9.5310   34.5020 N.am   84  THR84      -0.1950
     21  CA        -0.5440    8.5930   33.3880 C.3    84  THR84       0.1897
     22  C         -0.4120    9.2980   32.0510 C.2    84  THR84       0.2313
     23  O          0.0230    8.7070   31.0660 O.2    84  THR84      -0.2863
     24  CB        -1.8630    7.8040   33.3640 C.3    84  THR84       0.1794
     25  OG1       -2.9460    8.7230   33.2370 O.3    84  THR84      -0.2208
     26  CG2       -2.0670    7.0130   34.6350 C.3    84  THR84       0.0378
     27  N          9.1880   10.8720   38.5380 N.3   112  HIS112     -0.1226
     28  CA         9.1860    9.9840   37.3900 C.3   112  HIS112      0.1752
     29  C          8.6280   10.8040   36.2520 C.2   112  HIS112      0.2597
     30  O          7.6590   11.5500   36.4290 O.2   112  HIS112     -0.2718
     31  CB         8.3220    8.7400   37.6460 C.3   112  HIS112      0.0759
     32  CG         8.7210    7.5340   36.8580 C.ar  112  HIS112      0.0818
     33  ND1        7.8430    6.5050   36.5910 N.ar  112  HIS112     -0.2268
     34  CD2        9.9070    7.1660   36.3190 C.ar  112  HIS112      0.1154
     35  CE1        8.4660    5.5650   35.9090 C.ar  112  HIS112      0.1986
     36  NE2        9.7230    5.9350   35.7360 N.ar  112  HIS112     -0.2212
     37  N          9.2760   10.7020   35.1260 N.am  113  GLY113     -0.1942
     38  CA         8.7890   11.3980   33.9840 C.3   113  GLY113      0.2014
     39  C          9.1720   10.8510   32.6250 C.2   113  GLY113      0.2638
     40  O          9.9990   10.0450   32.5050 O.2   113  GLY113     -0.2714
     41  N          8.5320   11.3750   31.6210 N.am  114  ASN114     -0.1972
     42  CA         8.7060   10.8950   30.2930 C.3   114  ASN114      0.1688
     43  C          8.3200   11.9410   29.2880 C.2   114  ASN114      0.2292
     44  O          7.7160   12.9190   29.6240 O.2   114  ASN114     -0.2864
     45  CB         7.8770    9.6500   30.1180 C.3   114  ASN114      0.1181
     46  CG         8.2360    8.8820   28.8900 C.2   114  ASN114      0.2629
     47  OD1        9.3110    8.9970   28.3790 O.2   114  ASN114     -0.2716
     48  ND2        7.3190    8.0890   28.4300 N.am  114  ASN114     -0.0877
     49  N         12.0720    8.0040   32.5590 N.3   155  ALA155     -0.1231
     50  CA        11.5910    6.6210   32.5380 C.3   155  ALA155      0.1679
     51  C         12.3580    5.6930   31.5830 C.2   155  ALA155      0.2434
     52  O         12.7560    4.6110   31.9910 O.2   155  ALA155     -0.2733
     53  CB        10.0910    6.6000   32.2080 C.3   155  ALA155      0.0304
     54  N         12.5670    6.1030   30.3230 N.am  156  PRO156     -0.2729
     55  CA        13.2930    5.1950   29.4150 C.3   156  PRO156      0.1401
     56  C         14.7260    4.9110   29.8630 C.2   156  PRO156      0.2269
     57  O         15.2570    3.8370   29.5900 O.2   156  PRO156     -0.2865
     58  CB        13.2760    5.9460   28.0750 C.3   156  PRO156      0.0296
     59  CG        12.0990    6.8900   28.1850 C.3   156  PRO156      0.0237
     60  CD        12.0790    7.3070   29.6260 C.3   156  PRO156      0.0939
     61  N         14.1630    2.2990   32.7460 N.3   159  HIS159     -0.1241
     62  CA        13.3460    1.1190   32.3900 C.3   159  HIS159      0.1621
     63  C         13.6720    0.6260   30.9790 C.2   159  HIS159      0.2264
     64  O         12.7860    0.5350   30.1370 O.2   159  HIS159     -0.2867
     65  CB        11.8400    1.4560   32.4670 C.3   159  HIS159      0.0745
     66  CG        11.3620    1.7920   33.8380 C.ar  159  HIS159      0.0817
     67  ND1       11.1560    0.8330   34.8110 N.ar  159  HIS159     -0.2268
     68  CD2       11.0570    2.9810   34.4100 C.ar  159  HIS159      0.1154
     69  CE1       10.7340    1.4200   35.9160 C.ar  159  HIS159      0.1986
     70  NE2       10.6720    2.7200   35.7050 N.ar  159  HIS159     -0.2212
     71  N         11.6160   -2.1140   29.2700 N.3   162  TYR162     -0.1241
     72  CA        10.2490   -1.8270   28.8550 C.3   162  TYR162      0.1605
     73  C         10.1490   -1.5280   27.3600 C.2   162  TYR162      0.2264
     74  O          9.0590   -1.4690   26.8080 O.2   162  TYR162     -0.2867
     75  CB         9.6990   -0.6570   29.6500 C.3   162  TYR162      0.0534
     76  CG         8.1820   -0.4930   29.6450 C.ar  162  TYR162     -0.0201
     77  CD1        7.3300   -1.5430   29.9540 C.ar  162  TYR162     -0.0009
     78  CD2        7.6200    0.7370   29.4140 C.ar  162  TYR162     -0.0009
     79  CE1        5.9480   -1.3630   29.9760 C.ar  162  TYR162      0.0417
     80  CE2        6.2490    0.9260   29.4450 C.ar  162  TYR162      0.0417
     81  CZ         5.4200   -0.1160   29.7430 C.ar  162  TYR162      0.1957
     82  OH         4.0500    0.1170   29.7640 O.3   162  TYR162     -0.2866
     83  N          7.0720   -1.2170   23.7010 N.3   166  ALA166     -0.1245
     84  CA         6.8810    0.1170   23.1480 C.3   166  ALA166      0.1562
     85  C          6.2430    0.1230   21.7670 C.2   166  ALA166      0.2260
     86  O          5.2530    0.8280   21.5620 O.2   166  ALA166     -0.2867
     87  CB         8.2310    0.8590   23.1230 C.3   166  ALA166      0.0290
     88  N          2.5240   -1.0360   21.8630 N.3   169  ARG169     -0.1245
     89  CA         1.5810   -0.0780   22.4270 C.3   169  ARG169      0.1563
     90  C          1.2850    1.0540   21.4500 C.2   169  ARG169      0.2260
     91  O          0.1530    1.5060   21.3460 O.2   169  ARG169     -0.2867
     92  CB         2.1100    0.4920   23.7310 C.3   169  ARG169      0.0307
     93  CG         2.1850   -0.5360   24.8410 C.3   169  ARG169      0.0489
     94  CD         2.7920    0.0680   26.0790 C.3   169  ARG169      0.2205
     95  NE         1.9500    1.1450   26.5890 N.pl3 169  ARG169     -0.0865
     96  CZ         2.3940    2.2470   27.1950 C.cat 169  ARG169      0.5346
     97  NH1        1.5230    3.1320   27.6270 N.pl3 169  ARG169      0.1354
     98  NH2        3.6910    2.4640   27.3740 N.pl3 169  ARG169      0.1354
     99  N         -1.5250   -1.0790   30.4080 N.3   178  PHE178     -0.1227
    100  CA        -0.1400   -0.6190   30.4820 C.3   178  PHE178      0.1736
    101  C         -0.0780    0.9050   30.7170 C.2   178  PHE178      0.2595
    102  O          0.9100    1.4180   31.2600 O.2   178  PHE178     -0.2718
    103  CB         0.6400   -1.0010   29.2300 C.3   178  PHE178      0.0547
    104  CG         1.0110   -2.4720   29.1690 C.ar  178  PHE178     -0.0202
    105  CD1        0.0930   -3.4150   28.7580 C.ar  178  PHE178     -0.0042
    106  CD2        2.2720   -2.8980   29.5530 C.ar  178  PHE178     -0.0042
    107  CE1        0.4330   -4.7630   28.7150 C.ar  178  PHE178     -0.0003
    108  CE2        2.6190   -4.2360   29.5060 C.ar  178  PHE178     -0.0003
    109  CZ         1.7020   -5.1660   29.0870 C.ar  178  PHE178     -0.0000
    110  N         -1.1300    1.6220   30.3470 N.am  179  ASN179     -0.1974
    111  CA        -1.1580    3.0700   30.5840 C.3   179  ASN179      0.1688
    112  C         -1.3630    3.4510   32.0390 C.2   179  ASN179      0.2292
    113  O         -1.3550    4.6330   32.3820 O.2   179  ASN179     -0.2864
    114  CB        -2.2440    3.7130   29.7300 C.3   179  ASN179      0.1181
    115  CG        -1.9270    3.6280   28.2580 C.2   179  ASN179      0.2629
    116  OD1       -2.0150    2.5590   27.6610 O.2   179  ASN179     -0.2716
    117  ND2       -1.5100    4.7440   27.6720 N.am  179  ASN179     -0.0877
    118  N          0.8290    2.1960   34.2720 N.3   181  LEU181     -0.1231
    119  CA         2.0640    1.7410   34.9330 C.3   181  LEU181      0.1693
    120  C          3.1150    2.8230   35.2310 C.2   181  LEU181      0.2592
    121  O          3.8860    2.6770   36.1780 O.2   181  LEU181     -0.2718
    122  CB         2.7150    0.6230   34.1070 C.3   181  LEU181      0.0284
    123  CG         1.8710   -0.6620   34.0260 C.3   181  LEU181      0.0019
    124  CD1        2.5040   -1.7430   33.1320 C.3   181  LEU181      0.0001
    125  CD2        1.5820   -1.2450   35.3920 C.3   181  LEU181      0.0001
    126  N          3.1370    3.8960   34.4460 N.am  182  GLY182     -0.1957
    127  CA         4.0990    4.9850   34.6400 C.3   182  GLY182      0.1869
    128  C          4.2520    5.4760   36.0780 C.2   182  GLY182      0.2309
    129  O          5.3560    5.4100   36.6570 O.2   182  GLY182     -0.2863
    130  N          5.7380    2.9290   38.8360 N.3   185  THR185     -0.1218
    131  CA         7.0320    2.3010   38.6040 C.3   185  THR185      0.1862
    132  C          8.1830    3.3040   38.6950 C.2   185  THR185      0.2287
    133  O          9.2480    3.1110   38.1160 O.2   185  THR185     -0.2866
    134  CB         7.0750    1.5770   37.2210 C.3   185  THR185      0.1770
    135  OG1        6.8130    2.5020   36.1630 O.3   185  THR185     -0.2211
    136  CG2        6.0460    0.4400   37.1730 C.3   185  THR185      0.0375
@<TRIPOS>BOND
     1    91    90    2
     2    90    89    1
     3    86    85    2
     4    85    84    1
     5    88    89    1
     6    89    92    1
     7    87    84    1
     8    84    83    1
     9    92    93    1
    10    93    94    1
    11    94    95    1
    12    95    96    2
    13    74    73    2
    14    96    98    1
    15    96    97    1
    16    73    72    1
    17   116   115    2
    18   117   115   am
    19    58    59    1
    20    58    55    1
    21    59    60    1
    22   115   114    1
    23    47    46    2
    24    48    46   am
    25   107   105   ar
    26   107   109   ar
    27   105   104   ar
    28    72    71    1
    29    72    75    1
    30    46    45    1
    31   109   108   ar
    32   104   103    1
    33   104   106   ar
    34   103   100    1
    35    43    44    2
    36    43    42    1
    37    78    80   ar
    38    78    76   ar
    39    55    56    1
    40    55    54    1
    41    80    81   ar
    42   108   106   ar
    43    57    56    2
    44    60    54    1
    45    76    75    1
    46    76    77   ar
    47   114   111    1
    48    81    82    1
    49    81    79   ar
    50    77    79   ar
    51    45    42    1
    52    64    63    2
    53    42    41    1
    54    54    51   am
    55   110   111    1
    56   110   101   am
    57    99   100    1
    58   100   101    1
    59   111   112    1
    60   101   102    2
    61    63    62    1
    62    23    22    2
    63    51    52    2
    64    51    50    1
    65    41    39   am
    66   112   113    2
    67    22    21    1
    68    53    50    1
    69    62    65    1
    70    62    61    1
    71    65    66    1
    72    40    39    2
    73    50    49    1
    74    39    38    1
    75   124   123    1
    76    25    24    1
    77     8     7    1
    78    24    21    1
    79    24    26    1
    80    21    20    1
    81     7     6    1
    82    66    68   ar
    83    66    67   ar
    84    38    37    1
    85   123   122    1
    86   123   125    1
    87   122   119    1
    88   118   119    1
    89     6     5    1
    90    19    18    2
    91    68    70   ar
    92   126   127    1
    93   126   120   am
    94    20    18   am
    95   127   128    1
    96    67    69   ar
    97    18    17    1
    98   119   120    1
    99    37    29   am
   100   120   121    2
   101     5     2    1
   102    70    69   ar
   103    36    35   ar
   104    36    34   ar
   105    35    33   ar
   106    17    16    1
   107     2     1    1
   108     2     3    1
   109   128   129    2
   110   135   134    1
   111    29    30    2
   112    29    28    1
   113    34    32   ar
   114    15    13    1
   115    16    11   am
   116    33    32   ar
   117     4     3    2
   118    32    31    1
   119   136   134    1
   120   134   131    1
   121    28    31    1
   122    28    27    1
   123    11    10    1
   124    11    12    2
   125    13    10    1
   126    13    14    1
   127    10     9    1
   128   133   132    2
   129   131   132    1
   130   131   130    1
