@<TRIPOS>MOLECULE
tmp/4zohA01.pdb
 140 133 0 0 0
SMALL
GASTEIGER

@<TRIPOS>ATOM
      1  N        106.2220   65.5320   23.8250 N.3   190  TYR190     -0.1241
      2  CA       106.5440   65.8590   22.4370 C.3   190  TYR190      0.1605
      3  C        106.6200   67.3730   22.1790 C.2   190  TYR190      0.2264
      4  O        107.5760   67.8640   21.5720 O.2   190  TYR190     -0.2867
      5  CB       105.5750   65.1780   21.4580 C.3   190  TYR190      0.0534
      6  CG       105.8740   65.4480   20.0160 C.ar  190  TYR190     -0.0201
      7  CD1      107.1170   65.0910   19.4460 C.ar  190  TYR190     -0.0009
      8  CD2      104.9070   66.0260   19.2090 C.ar  190  TYR190     -0.0009
      9  CE1      107.3790   65.3600   18.0970 C.ar  190  TYR190      0.0417
     10  CE2      105.1410   66.2940   17.8690 C.ar  190  TYR190      0.0417
     11  CZ       106.3720   65.9410   17.3220 C.ar  190  TYR190      0.1957
     12  OH       106.5430   66.2510   16.0100 O.3   190  TYR190     -0.2866
     13  N         98.7150   67.7390   17.4800 N.3   219  ILE219     -0.1231
     14  CA        99.9730   66.9780   17.5080 C.3   219  ILE219      0.1692
     15  C        101.1970   67.9080   17.3570 C.2   219  ILE219      0.2591
     16  O        102.0960   67.9200   18.2060 O.2   219  ILE219     -0.2718
     17  CB       100.0410   65.9290   16.3770 C.3   219  ILE219      0.0266
     18  CG1       98.8720   64.9410   16.4980 C.3   219  ILE219      0.0019
     19  CG2      101.4290   65.2290   16.4090 C.3   219  ILE219      0.0020
     20  CD1       98.8780   63.8980   15.3370 C.3   219  ILE219      0.0001
     21  N        101.1770   68.7130   16.2860 N.am  220  ILE220     -0.1980
     22  CA       102.3160   69.5460   15.9650 C.3   220  ILE220      0.1595
     23  C        102.3670   70.7160   16.9430 C.2   220  ILE220      0.2287
     24  O        101.3410   71.0510   17.5900 O.2   220  ILE220     -0.2864
     25  CB       102.2120   70.0730   14.4990 C.3   220  ILE220      0.0276
     26  CG1      101.0460   71.0710   14.2930 C.3   220  ILE220      0.0022
     27  CG2      102.1400   68.8750   13.5550 C.3   220  ILE220      0.0022
     28  CD1      101.0520   71.7080   12.9060 C.3   220  ILE220      0.0001
     29  N        106.6620   71.7100   10.4320 N.3   289  ASP289     -0.1239
     30  CA       105.9680   70.7590   11.4120 C.3   289  ASP289      0.1674
     31  C        104.7420   70.1120   10.8050 C.2   289  ASP289      0.2266
     32  O        104.5780   68.9150   10.8750 O.2   289  ASP289     -0.2867
     33  CB       105.6110   71.4490   12.7260 C.3   289  ASP289      0.1410
     34  CG       106.8100   72.0530   13.3750 C.2   289  ASP289      0.3668
     35  OD1      107.2400   71.5500   14.4430 O.co2 289  ASP289     -0.2456
     36  OD2      107.3190   73.0570   12.7720 O.co2 289  ASP289     -0.2456
     37  N        105.7290   67.8000    7.5330 N.3   292  ASP292     -0.1225
     38  CA       106.2450   66.5280    7.9250 C.3   292  ASP292      0.1805
     39  C        105.0780   65.5500    8.4320 C.2   292  ASP292      0.2597
     40  O        105.1240   64.3460    8.1810 O.2   292  ASP292     -0.2718
     41  CB       107.2640   66.7790    9.0430 C.3   292  ASP292      0.1424
     42  CG       107.7830   65.4870    9.6690 C.2   292  ASP292      0.3668
     43  OD1      108.3250   64.5780    8.9580 O.co2 292  ASP292     -0.2456
     44  OD2      107.6390   65.3720   10.9060 O.co2 292  ASP292     -0.2456
     45  N        104.1280   66.0890    9.2080 N.am  293  ASP293     -0.1974
     46  CA       102.9430   65.3680    9.7480 C.3   293  ASP293      0.1709
     47  C        102.1340   64.8230    8.5820 C.2   293  ASP293      0.2293
     48  O        101.9970   63.6200    8.4280 O.2   293  ASP293     -0.2864
     49  CB       102.0850   66.4050   10.5190 C.3   293  ASP293      0.1436
     50  CG       100.8250   65.7960   11.1590 C.2   293  ASP293      0.3671
     51  OD1      100.8130   64.5680   11.3700 O.co2 293  ASP293     -0.2456
     52  OD2       99.8830   66.5810   11.4300 O.co2 293  ASP293     -0.2456
     53  N        103.7840   62.1940    5.9700 N.3   296  GLY296     -0.1210
     54  CA       103.7010   60.7910    6.4460 C.3   296  GLY296      0.1956
     55  C        102.2940   60.2040    6.1700 C.2   296  GLY296      0.2611
     56  O        102.1440   58.9970    5.8520 O.2   296  GLY296     -0.2717
     57  N        101.2830   61.0660    6.3070 N.am  297  ASN297     -0.1974
     58  CA        99.8540   60.7010    6.0450 C.3   297  ASN297      0.1688
     59  C         99.5650   60.3640    4.5530 C.2   297  ASN297      0.2292
     60  O         98.7570   59.4610    4.2600 O.2   297  ASN297     -0.2864
     61  CB        98.9200   61.8320    6.5140 C.3   297  ASN297      0.1181
     62  CG        98.9400   61.9970    8.0210 C.2   297  ASN297      0.2629
     63  OD1       99.4970   61.1820    8.7230 O.2   297  ASN297     -0.2716
     64  ND2       98.2950   63.0150    8.5170 N.am  297  ASN297     -0.0877
     65  N        100.3040   56.9170    4.0740 N.3   300  SER300     -0.1217
     66  CA        99.2560   56.0600    4.6590 C.3   300  SER300      0.1889
     67  C         98.1270   55.8830    3.6560 C.2   300  SER300      0.2288
     68  O         97.6780   54.7430    3.4470 O.2   300  SER300     -0.2866
     69  CB        98.7370   56.7050    5.9450 C.3   300  SER300      0.2089
     70  OG        99.7520   56.6190    6.8980 O.3   300  SER300     -0.2183
     71  N         97.4650   66.2600   10.2660 N.3   330  SER330     -0.1217
     72  CA        96.7080   65.0670   10.6430 C.3   330  SER330      0.1889
     73  C         95.3050   65.5290   11.0370 C.2   330  SER330      0.2288
     74  O         95.1210   66.5000   11.8070 O.2   330  SER330     -0.2866
     75  CB        97.3150   64.4080   11.8370 C.3   330  SER330      0.2089
     76  OG        98.3070   63.4970   11.4640 O.3   330  SER330     -0.2183
     77  N         94.2850   60.3130    9.6160 N.3   334  ALA334     -0.1245
     78  CA        95.6180   60.7670    9.1920 C.3   334  ALA334      0.1562
     79  C         96.1050   59.9960    7.9220 C.2   334  ALA334      0.2260
     80  O         97.1060   59.2140    7.9700 O.2   334  ALA334     -0.2867
     81  CB        96.5900   60.5750   10.3520 C.3   334  ALA334      0.0290
     82  N         94.5960   57.4000    6.3900 N.3   336  ARG336     -0.1245
     83  CA        93.9010   56.1050    6.2040 C.3   336  ARG336      0.1563
     84  C         92.4510   56.2270    5.7080 C.2   336  ARG336      0.2260
     85  O         92.0450   55.4180    4.8510 O.2   336  ARG336     -0.2867
     86  CB        94.0260   55.2200    7.4130 C.3   336  ARG336      0.0307
     87  CG        95.4070   54.6440    7.5880 C.3   336  ARG336      0.0489
     88  CD        96.2250   55.3680    8.6390 C.3   336  ARG336      0.2205
     89  NE        95.6440   55.1350    9.9380 N.pl3 336  ARG336     -0.0865
     90  CZ        95.9520   55.7980   11.0640 C.cat 336  ARG336      0.5346
     91  NH1       95.3210   55.4860   12.2120 N.pl3 336  ARG336      0.1354
     92  NH2       96.8710   56.7700   11.0440 N.pl3 336  ARG336      0.1354
     93  N        101.3950   52.6990   16.6620 N.3   417  PHE417     -0.1227
     94  CA       102.7350   53.0690   16.2270 C.3   417  PHE417      0.1736
     95  C        103.6770   53.2450   17.4100 C.2   417  PHE417      0.2596
     96  O        103.2530   53.5300   18.5920 O.2   417  PHE417     -0.2718
     97  CB       102.6400   54.3550   15.4250 C.3   417  PHE417      0.0547
     98  CG       101.6370   54.3040   14.3050 C.ar  417  PHE417     -0.0202
     99  CD1      102.0480   54.0020   12.9860 C.ar  417  PHE417     -0.0042
    100  CD2      100.2540   54.5350   14.5490 C.ar  417  PHE417     -0.0042
    101  CE1      101.1110   53.9700   11.9320 C.ar  417  PHE417     -0.0003
    102  CE2       99.3170   54.4730   13.4930 C.ar  417  PHE417     -0.0003
    103  CZ        99.7580   54.1890   12.1830 C.ar  417  PHE417     -0.0000
    104  N        104.9690   53.0130   17.1310 N.am  418  GLY418     -0.1943
    105  CA       106.0020   53.1460   18.1630 C.3   418  GLY418      0.1998
    106  C        106.3840   54.6060   18.3730 C.2   418  GLY418      0.2480
    107  O        105.6110   55.5160   17.9590 O.2   418  GLY418     -0.2729
    108  N        107.5980   54.8560   18.9080 N.am  419  PRO419     -0.2726
    109  CA       108.6400   53.8340   19.0310 C.3   419  PRO419      0.1402
    110  C        108.6030   53.2010   20.3770 C.2   419  PRO419      0.2269
    111  O        109.1580   52.1050   20.6050 O.2   419  PRO419     -0.2865
    112  CB       109.9570   54.6640   18.8430 C.3   419  PRO419      0.0296
    113  CG       109.5740   56.0090   19.4630 C.3   419  PRO419      0.0237
    114  CD       108.1870   56.2210   18.8730 C.3   419  PRO419      0.0939
    115  N        105.6060   59.4780   24.6070 N.3   479  ILE479     -0.1245
    116  CA       105.3950   59.7990   23.2300 C.3   479  ILE479      0.1561
    117  C        104.1580   60.6560   23.0160 C.2   479  ILE479      0.2260
    118  O        104.2940   61.8190   22.6040 O.2   479  ILE479     -0.2867
    119  CB       105.5280   58.5400   22.2830 C.3   479  ILE479      0.0252
    120  CG1      107.0020   58.0760   22.2880 C.3   479  ILE479      0.0019
    121  CG2      104.9840   58.8550   20.8660 C.3   479  ILE479      0.0019
    122  CD1      107.9630   59.0030   21.4930 C.3   479  ILE479      0.0001
    123  N         97.8220   59.7500   19.7460 N.3   482  TRP482     -0.1227
    124  CA        97.5640   59.8870   18.2880 C.3   482  TRP482      0.1737
    125  C         97.7810   58.4710   17.6840 C.2   482  TRP482      0.2596
    126  O         98.2220   57.5630   18.3870 O.2   482  TRP482     -0.2718
    127  CB        98.5130   60.9020   17.6150 C.3   482  TRP482      0.0564
    128  CG       100.0010   60.7180   17.9700 C.ar  482  TRP482      0.0003
    129  CD1      100.8060   59.6210   17.6830 C.ar  482  TRP482      0.0946
    130  CD2      100.8300   61.6280   18.7380 C.ar  482  TRP482      0.0152
    131  NE1      102.0890   59.8350   18.2010 N.ar  482  TRP482     -0.2442
    132  CE2      102.1230   61.0620   18.8260 C.ar  482  TRP482      0.0810
    133  CE3      100.6150   62.8980   19.3070 C.ar  482  TRP482      0.0012
    134  CZ2      103.1990   61.7330   19.4550 C.ar  482  TRP482      0.0191
    135  CZ3      101.6750   63.5320   19.9490 C.ar  482  TRP482      0.0001
    136  CH2      102.9520   62.9680   19.9940 C.ar  482  TRP482      0.0015
    137  N         97.4940   58.2710   16.4010 N.am  483  GLY483     -0.1957
    138  CA        97.6330   56.9340   15.7700 C.3   483  GLY483      0.1869
    139  C         96.9760   55.7660   16.5410 C.2   483  GLY483      0.2309
    140  O         97.4670   54.6170   16.4580 O.2   483  GLY483     -0.2863
@<TRIPOS>BOND
     1    68    67    2
     2    67    66    1
     3    65    66    1
     4    60    59    2
     5    59    58    1
     6    66    69    1
     7    85    84    2
     8    84    83    1
     9    56    55    2
    10    69    70    1
    11    53    54    1
    12    58    57    1
    13    58    61    1
    14    55    57   am
    15    55    54    1
    16    83    82    1
    17    83    86    1
    18    61    62    1
    19    86    87    1
    20    37    38    1
    21    87    88    1
    22    79    80    2
    23    79    78    1
    24    38    39    1
    25    38    41    1
    26    62    64   am
    27    62    63    2
    28    40    39    2
    29    48    47    2
    30    39    45   am
    31    47    46    1
    32    88    89    1
    33    43    42   ar
    34    41    42    1
    35    78    77    1
    36    78    81    1
    37    45    46    1
    38    42    44   ar
    39    46    49    1
    40    89    90    2
    41    71    72    1
    42    29    30    1
    43    49    50    1
    44    72    73    1
    45    72    75    1
    46    31    32    2
    47    31    30    1
    48    73    74    2
    49    92    90    1
    50    90    91    1
    51    50    51   ar
    52    50    52   ar
    53    30    33    1
    54    76    75    1
    55   101   103   ar
    56   101    99   ar
    57   103   102   ar
    58    33    34    1
    59    36    34   ar
    60    28    26    1
    61    99    98   ar
    62    34    35   ar
    63   102   100   ar
    64    27    25    1
    65    26    25    1
    66    98   100   ar
    67    98    97    1
    68    25    22    1
    69    20    18    1
    70    97    94    1
    71   138   137    1
    72   138   139    1
    73    22    21    1
    74    22    23    1
    75    12    11    1
    76    94    93    1
    77    94    95    1
    78    21    15   am
    79    17    19    1
    80    17    18    1
    81    17    14    1
    82   137   125   am
    83   140   139    2
    84    23    24    2
    85   104    95   am
    86   104   105    1
    87    11    10   ar
    88    11     9   ar
    89    15    14    1
    90    15    16    2
    91    95    96    2
    92    13    14    1
    93   127   128    1
    94   127   124    1
    95   129   128   ar
    96   129   131   ar
    97   125   124    1
    98   125   126    2
    99    10     8   ar
   100   107   106    2
   101   128   130   ar
   102     9     7   ar
   103   105   106    1
   104   131   132   ar
   105   124   123    1
   106   106   108   am
   107   130   132   ar
   108   130   133   ar
   109   132   134   ar
   110   112   109    1
   111   112   113    1
   112   114   108    1
   113   114   113    1
   114   108   109    1
   115   109   110    1
   116     8     6   ar
   117   133   135   ar
   118     7     6   ar
   119   134   136   ar
   120   135   136   ar
   121     6     5    1
   122   110   111    2
   123   121   119    1
   124     5     2    1
   125   122   120    1
   126     4     3    2
   127     3     2    1
   128   119   120    1
   129   119   116    1
   130     2     1    1
   131   118   117    2
   132   117   116    1
   133   116   115    1
