@<TRIPOS>MOLECULE
tmp/4zojA01.pdb
 162 156 0 0 0
SMALL
GASTEIGER

@<TRIPOS>ATOM
      1  N         66.2410   60.6110  -23.0720 N.3    62  MET62      -0.1245
      2  CA        67.1270   60.5220  -24.2230 C.3    62  MET62       0.1570
      3  C         67.4480   61.9020  -24.7680 C.2    62  MET62       0.2261
      4  O         68.6120   62.2180  -25.0240 O.2    62  MET62      -0.2867
      5  CB        66.5130   59.6530  -25.3190 C.3    62  MET62       0.0387
      6  CG        66.5280   58.1890  -24.9520 C.3    62  MET62       0.0595
      7  SD        65.8070   57.1030  -26.1900 S.3    62  MET62      -0.1393
      8  CE        66.9380   57.3500  -27.5630 C.3    62  MET62       0.0692
      9  N         60.3260   59.9710  -40.7300 N.3    82  VAL82      -0.1231
     10  CA        61.0830   58.8720  -40.1390 C.3    82  VAL82       0.1692
     11  C         60.1040   57.8810  -39.5590 C.2    82  VAL82       0.2593
     12  O         58.9840   58.2440  -39.1900 O.2    82  VAL82      -0.2718
     13  CB        62.0630   59.3800  -39.0410 C.3    82  VAL82       0.0266
     14  CG1       61.2990   59.9380  -37.8680 C.3    82  VAL82       0.0020
     15  CG2       63.0090   58.2810  -38.5720 C.3    82  VAL82       0.0020
     16  N         60.5280   56.6300  -39.4960 N.am   83  GLY83      -0.1942
     17  CA        59.6990   55.5750  -38.9660 C.3    83  GLY83       0.2014
     18  C         60.4670   54.7070  -37.9880 C.2    83  GLY83       0.2639
     19  O         61.6950   54.8040  -37.8610 O.2    83  GLY83      -0.2714
     20  N         59.7260   53.8480  -37.3070 N.am   84  THR84      -0.1950
     21  CA        60.3060   52.8760  -36.3730 C.3    84  THR84       0.1897
     22  C         61.1430   51.8310  -37.0720 C.2    84  THR84       0.2313
     23  O         62.0980   51.3130  -36.5090 O.2    84  THR84      -0.2863
     24  CB        59.2240   52.1530  -35.6060 C.3    84  THR84       0.1794
     25  OG1       58.3450   51.5150  -36.5390 O.3    84  THR84      -0.2208
     26  CG2       58.4120   53.1250  -34.7630 C.3    84  THR84       0.0378
     27  N         65.8520   62.5830  -38.7700 N.3   112  HIS112     -0.1226
     28  CA        66.4610   61.6120  -37.8680 C.3   112  HIS112      0.1752
     29  C         66.5350   60.3020  -38.6040 C.2   112  HIS112      0.2597
     30  O         65.5400   59.8570  -39.1790 O.2   112  HIS112     -0.2718
     31  CB        65.6150   61.4500  -36.6020 C.3   112  HIS112      0.0759
     32  CG        66.3710   60.9640  -35.4080 C.ar  112  HIS112      0.0818
     33  ND1       65.7450   60.3780  -34.3240 N.ar  112  HIS112     -0.2268
     34  CD2       67.6860   61.0290  -35.0900 C.ar  112  HIS112      0.1154
     35  CE1       66.6420   60.0860  -33.4010 C.ar  112  HIS112      0.1986
     36  NE2       67.8290   60.4720  -33.8400 N.ar  112  HIS112     -0.2212
     37  N         67.6960   59.6730  -38.5990 N.am  113  GLY113     -0.1942
     38  CA        67.8340   58.4230  -39.3050 C.3   113  GLY113      0.2014
     39  C         68.7940   57.4690  -38.6430 C.2   113  GLY113      0.2638
     40  O         69.4800   57.7930  -37.6730 O.2   113  GLY113     -0.2714
     41  N         68.8370   56.2730  -39.1980 N.am  114  ASN114     -0.1972
     42  CA        69.6340   55.2100  -38.6400 C.3   114  ASN114      0.1688
     43  C         69.8170   54.1470  -39.7020 C.2   114  ASN114      0.2292
     44  O         69.0960   54.1430  -40.6990 O.2   114  ASN114     -0.2864
     45  CB        68.9580   54.6450  -37.4010 C.3   114  ASN114      0.1181
     46  CG        69.8860   53.8000  -36.5650 C.2   114  ASN114      0.2629
     47  OD1       71.1050   53.9800  -36.5860 O.2   114  ASN114     -0.2716
     48  ND2       69.3120   52.8540  -35.8300 N.am  114  ASN114     -0.0877
     49  N         67.9550   47.6000  -39.2810 N.3   117  ALA117     -0.1245
     50  CA        68.0230   46.6040  -38.2090 C.3   117  ALA117      0.1562
     51  C         67.7220   45.2010  -38.7570 C.2   117  ALA117      0.2260
     52  O         68.3890   44.2300  -38.3930 O.2   117  ALA117     -0.2867
     53  CB        67.0460   46.9560  -37.0870 C.3   117  ALA117      0.0290
     54  N         71.3860   58.8660  -35.8400 N.3   155  ALA155     -0.1231
     55  CA        71.0020   58.6200  -34.4500 C.3   155  ALA155      0.1679
     56  C         72.1900   58.2610  -33.5570 C.2   155  ALA155      0.2434
     57  O         72.3640   58.8730  -32.5110 O.2   155  ALA155     -0.2733
     58  CB        69.9310   57.5210  -34.3690 C.3   155  ALA155      0.0304
     59  N         73.0160   57.2750  -33.9630 N.am  156  PRO156     -0.2729
     60  CA        74.1510   56.9290  -33.0930 C.3   156  PRO156      0.1401
     61  C         75.0530   58.1190  -32.8000 C.2   156  PRO156      0.2269
     62  O         75.6640   58.1560  -31.7380 O.2   156  PRO156     -0.2865
     63  CB        74.9110   55.8660  -33.9010 C.3   156  PRO156      0.0296
     64  CG        73.9000   55.2910  -34.8270 C.3   156  PRO156      0.0237
     65  CD        72.9910   56.4390  -35.1760 C.3   156  PRO156      0.0939
     66  N         73.0200   60.4780  -30.1790 N.3   159  HIS159     -0.1241
     67  CA        72.5680   59.7350  -28.9880 C.3   159  HIS159      0.1621
     68  C         73.6010   58.6890  -28.5270 C.2   159  HIS159      0.2264
     69  O         73.2790   57.5180  -28.3550 O.2   159  HIS159     -0.2867
     70  CB        71.2400   59.0180  -29.2710 C.3   159  HIS159      0.0745
     71  CG        70.0960   59.9370  -29.5710 C.ar  159  HIS159      0.0817
     72  ND1       69.3910   60.5970  -28.5840 N.ar  159  HIS159     -0.2268
     73  CD2       69.5160   60.2840  -30.7450 C.ar  159  HIS159      0.1154
     74  CE1       68.4350   61.3210  -29.1410 C.ar  159  HIS159      0.1986
     75  NE2       68.4860   61.1460  -30.4500 N.ar  159  HIS159     -0.2212
     76  N         73.0150   55.8450  -25.8370 N.3   162  TYR162     -0.1227
     77  CA        71.9660   54.8590  -26.0810 C.3   162  TYR162      0.1736
     78  C         72.5360   53.5000  -26.5030 C.2   162  TYR162      0.2595
     79  O         71.7980   52.5240  -26.6180 O.2   162  TYR162     -0.2718
     80  CB        71.0010   55.3830  -27.1510 C.3   162  TYR162      0.0548
     81  CG        69.7580   54.5380  -27.3560 C.ar  162  TYR162     -0.0200
     82  CD1       68.7540   54.5010  -26.3920 C.ar  162  TYR162     -0.0009
     83  CD2       69.5820   53.7870  -28.5110 C.ar  162  TYR162     -0.0009
     84  CE1       67.6190   53.7410  -26.5720 C.ar  162  TYR162      0.0417
     85  CE2       68.4420   53.0180  -28.6970 C.ar  162  TYR162      0.0417
     86  CZ        67.4680   53.0010  -27.7220 C.ar  162  TYR162      0.1957
     87  OH        66.3330   52.2410  -27.8910 O.3   162  TYR162     -0.2866
     88  N         73.8500   53.4230  -26.7020 N.am  163  ARG163     -0.1980
     89  CA        74.4600   52.1880  -27.1900 C.3   163  ARG163      0.1597
     90  C         74.1850   50.9700  -26.3090 C.2   163  ARG163      0.2287
     91  O         73.9930   49.8700  -26.8250 O.2   163  ARG163     -0.2864
     92  CB        75.9690   52.3630  -27.3450 C.3   163  ARG163      0.0334
     93  CG        76.7600   52.2920  -26.0550 C.3   163  ARG163      0.0492
     94  CD        78.2460   52.4380  -26.3390 C.3   163  ARG163      0.2205
     95  NE        79.0360   52.5640  -25.1180 N.pl3 163  ARG163     -0.0865
     96  CZ        79.0230   53.6360  -24.3330 C.cat 163  ARG163      0.5346
     97  NH1       78.2390   54.6650  -24.6290 N.pl3 163  ARG163      0.1354
     98  NH2       79.7770   53.6730  -23.2400 N.pl3 163  ARG163      0.1354
     99  N         70.6520   49.7730  -27.1590 N.3   166  ALA166     -0.1245
    100  CA        70.5730   49.2150  -28.5190 C.3   166  ALA166      0.1562
    101  C         71.1900   47.8090  -28.5870 C.2   166  ALA166      0.2260
    102  O         70.6520   46.8940  -29.2290 O.2   166  ALA166     -0.2867
    103  CB        71.2560   50.1590  -29.5060 C.3   166  ALA166      0.0290
    104  N         68.9240   45.2250  -27.1880 N.3   169  ARG169     -0.1231
    105  CA        67.8010   45.0400  -28.0900 C.3   169  ARG169      0.1694
    106  C         68.1140   44.0450  -29.1960 C.2   169  ARG169      0.2591
    107  O         67.3020   43.1640  -29.4970 O.2   169  ARG169     -0.2718
    108  CB        67.3910   46.3670  -28.6900 C.3   169  ARG169      0.0321
    109  CG        66.7840   47.3270  -27.6850 C.3   169  ARG169      0.0489
    110  CD        66.5670   48.6800  -28.3300 C.3   169  ARG169      0.2205
    111  NE        65.6580   48.5880  -29.4720 N.pl3 169  ARG169     -0.0865
    112  CZ        65.6390   49.4350  -30.4980 C.cat 169  ARG169      0.5346
    113  NH1       64.7640   49.2500  -31.4770 N.pl3 169  ARG169      0.1354
    114  NH2       66.4840   50.4620  -30.5470 N.pl3 169  ARG169      0.1354
    115  N         69.2970   44.1750  -29.7920 N.am  170  ARG170     -0.1980
    116  CA        69.7260   43.2340  -30.8220 C.3   170  ARG170      0.1597
    117  C         69.8420   41.8200  -30.2310 C.2   170  ARG170      0.2287
    118  O         69.4450   40.8380  -30.8630 O.2   170  ARG170     -0.2864
    119  CB        71.0590   43.6720  -31.4410 C.3   170  ARG170      0.0334
    120  CG        71.0720   45.0150  -32.1420 C.3   170  ARG170      0.0492
    121  CD        70.1730   44.9180  -33.3960 C.3   170  ARG170      0.2205
    122  NE        70.2040   46.1780  -34.1440 N.pl3 170  ARG170     -0.0865
    123  CZ        69.4760   47.2410  -33.7980 C.cat 170  ARG170      0.5346
    124  NH1       68.6560   47.2120  -32.7290 N.pl3 170  ARG170      0.1354
    125  NH2       69.5900   48.3600  -34.5210 N.pl3 170  ARG170      0.1354
    126  N         61.2240   50.1130  -26.6980 N.3   178  PHE178     -0.1227
    127  CA        62.3980   50.8550  -27.1550 C.3   178  PHE178      0.1736
    128  C         62.3540   51.0830  -28.6680 C.2   178  PHE178      0.2595
    129  O         62.9700   52.0160  -29.1750 O.2   178  PHE178     -0.2718
    130  CB        63.6910   50.1100  -26.8090 C.3   178  PHE178      0.0547
    131  CG        64.0950   50.1850  -25.3610 C.ar  178  PHE178     -0.0202
    132  CD1       63.4030   50.9690  -24.4560 C.ar  178  PHE178     -0.0042
    133  CD2       65.1900   49.4690  -24.9140 C.ar  178  PHE178     -0.0042
    134  CE1       63.7920   51.0330  -23.1300 C.ar  178  PHE178     -0.0003
    135  CE2       65.5850   49.5280  -23.5940 C.ar  178  PHE178     -0.0003
    136  CZ        64.8870   50.3140  -22.7010 C.ar  178  PHE178     -0.0000
    137  N         61.6360   50.2140  -29.3810 N.am  179  ASN179     -0.1974
    138  CA        61.4650   50.3430  -30.8280 C.3   179  ASN179      0.1688
    139  C         60.6580   51.5700  -31.2330 C.2   179  ASN179      0.2292
    140  O         60.6260   51.9270  -32.4100 O.2   179  ASN179     -0.2864
    141  CB        60.7990   49.0910  -31.3970 C.3   179  ASN179      0.1181
    142  CG        61.7280   47.8880  -31.4000 C.2   179  ASN179      0.2629
    143  OD1       61.9710   47.2610  -30.3640 O.2   179  ASN179     -0.2716
    144  ND2       62.2540   47.5620  -32.5750 N.am  179  ASN179     -0.0877
    145  N         63.1860   55.9070  -31.4210 N.3   182  GLY182     -0.1210
    146  CA        63.8530   56.5540  -32.5450 C.3   182  GLY182      0.1940
    147  C         63.1120   57.7570  -33.0930 C.2   182  GLY182      0.2453
    148  O         63.6410   58.8730  -33.0650 O.2   182  GLY182     -0.2732
    149  N         61.8710   57.5500  -33.5690 N.am  183  PRO183     -0.2728
    150  CA        61.1270   58.6820  -34.1200 C.3   183  PRO183      0.1401
    151  C         60.8150   59.7460  -33.0930 C.2   183  PRO183      0.2269
    152  O         60.5950   60.8840  -33.4820 O.2   183  PRO183     -0.2865
    153  CB        59.8410   58.0370  -34.6360 C.3   183  PRO183      0.0296
    154  CG        60.2510   56.6690  -34.9890 C.3   183  PRO183      0.0237
    155  CD        61.2360   56.2700  -33.9190 C.3   183  PRO183      0.0939
    156  N         62.7800   60.9090  -30.7380 N.3   185  THR185     -0.1218
    157  CA        63.9590   61.5450  -30.1510 C.3   185  THR185      0.1862
    158  C         64.8610   62.2100  -31.1780 C.2   185  THR185      0.2287
    159  O         66.0860   62.1890  -31.0400 O.2   185  THR185     -0.2866
    160  CB        64.7940   60.5250  -29.3280 C.3   185  THR185      0.1770
    161  OG1       65.1780   59.4190  -30.1580 O.3   185  THR185     -0.2211
    162  CG2       64.0040   60.0390  -28.1190 C.3   185  THR185      0.0375
@<TRIPOS>BOND
     1     9    10    1
     2    44    43    2
     3    10    11    1
     4    10    13    1
     5    43    42    1
     6    11    16   am
     7    11    12    2
     8    16    17    1
     9    38    39    1
    10    38    37    1
    11    49    50    1
    12    41    39   am
    13    41    42    1
    14    30    29    2
    15    13    15    1
    16    13    14    1
    17    17    18    1
    18    27    28    1
    19    51    52    2
    20    51    50    1
    21    39    40    2
    22    42    45    1
    23    29    37   am
    24    29    28    1
    25    50    53    1
    26    18    19    2
    27    18    20   am
    28    28    31    1
    29    45    46    1
    30    20    21    1
    31    22    23    2
    32    22    21    1
    33    31    32    1
    34    47    46    2
    35    46    48   am
    36    25    24    1
    37    21    24    1
    38    54    55    1
    39    24    26    1
    40    32    34   ar
    41    32    33   ar
    42    65    64    1
    43    65    59    1
    44    34    36   ar
    45   154   153    1
    46   154   155    1
    47    64    63    1
    48   153   150    1
    49   125   123    1
    50    55    58    1
    51    55    56    1
    52    33    35   ar
    53   122   123    2
    54   122   121    1
    55   150   149    1
    56   150   151    1
    57    59    56   am
    58    59    60    1
    59   155   149    1
    60    63    60    1
    61    36    35   ar
    62   123   124    1
    63   149   147   am
    64    56    57    2
    65   152   151    2
    66   121   120    1
    67    60    61    1
    68   147   148    2
    69   147   146    1
    70    61    62    2
    71   144   142   am
    72   146   145    1
    73   140   139    2
    74   120   119    1
    75   113   112    1
    76   119   116    1
    77   142   141    1
    78   142   143    2
    79   141   138    1
    80   139   138    1
    81   158   159    2
    82   158   157    1
    83   118   117    2
    84   138   137    1
    85   116   117    1
    86   116   115    1
    87    73    75   ar
    88    73    71   ar
    89   156   157    1
    90   114   112    1
    91   112   111    2
    92    75    74   ar
    93    66    67    1
    94   161   160    1
    95   157   160    1
    96   115   106   am
    97    71    70    1
    98    71    72   ar
    99   103   100    1
   100   107   106    2
   101   111   110    1
   102   137   128   am
   103   160   162    1
   104    70    67    1
   105   102   101    2
   106   106   105    1
   107   129   128    2
   108    74    72   ar
   109    67    68    1
   110    85    83   ar
   111    85    86   ar
   112   108   105    1
   113   108   109    1
   114   128   127    1
   115   101   100    1
   116    68    69    2
   117   100    99    1
   118    83    81   ar
   119   110   109    1
   120   105   104    1
   121    87    86    1
   122    86    84   ar
   123     8     7    1
   124    81    80    1
   125    81    82   ar
   126    92    89    1
   127    92    93    1
   128    89    88    1
   129    89    90    1
   130   127   130    1
   131   127   126    1
   132    80    77    1
   133    91    90    2
   134   130   131    1
   135    88    78   am
   136    79    78    2
   137    84    82   ar
   138    78    77    1
   139    94    93    1
   140    94    95    1
   141     7     6    1
   142    77    76    1
   143   131   133   ar
   144   131   132   ar
   145     5     6    1
   146     5     2    1
   147    95    96    2
   148     4     3    2
   149   133   135   ar
   150     3     2    1
   151    97    96    1
   152   132   134   ar
   153    96    98    1
   154     2     1    1
   155   135   136   ar
   156   134   136   ar
