@<TRIPOS>MOLECULE
tmp/4zokA01.pdb
 114 113 0 0 0
SMALL
GASTEIGER

@<TRIPOS>ATOM
      1  N          7.6970    5.9410   31.4690 N.3   114  ASN114     -0.1225
      2  CA         7.8930    5.4200   30.1240 C.3   114  ASN114      0.1785
      3  C          7.4500    6.4720   29.1110 C.2   114  ASN114      0.2597
      4  O          6.8660    7.4910   29.4840 O.2   114  ASN114     -0.2718
      5  CB         7.1080    4.1190   29.9290 C.3   114  ASN114      0.1169
      6  CG         7.6100    3.2970   28.7550 C.2   114  ASN114      0.2627
      7  OD1        8.2990    3.8060   27.8710 O.2   114  ASN114     -0.2716
      8  ND2        7.2620    2.0150   28.7410 N.am  114  ASN114     -0.0877
      9  N          7.7270    6.2330   27.8340 N.am  115  ARG115     -0.1979
     10  CA         7.2950    7.1480   26.7840 C.3   115  ARG115      0.1597
     11  C          5.8000    6.9920   26.5260 C.2   115  ARG115      0.2287
     12  O          5.1560    6.1040   27.0840 O.2   115  ARG115     -0.2864
     13  CB         8.0860    6.9070   25.4990 C.3   115  ARG115      0.0334
     14  CG         9.5790    7.1330   25.6490 C.3   115  ARG115      0.0492
     15  CD        10.2970    7.0330   24.3150 C.3   115  ARG115      0.2205
     16  NE        11.7360    7.2370   24.4560 N.pl3 115  ARG115     -0.0865
     17  CZ        12.3290    8.4270   24.4850 C.cat 115  ARG115      0.5346
     18  NH1       13.6460    8.5040   24.6180 N.pl3 115  ARG115      0.1354
     19  NH2       11.6130    9.5400   24.3840 N.pl3 115  ARG115      0.1354
     20  N         13.2820    4.4960   34.2520 N.3   154  PHE154     -0.1227
     21  CA        12.7800    4.3100   32.8970 C.3   154  PHE154      0.1736
     22  C         12.4960    2.8310   32.6550 C.2   154  PHE154      0.2595
     23  O         13.4040    2.0000   32.6910 O.2   154  PHE154     -0.2718
     24  CB        13.7900    4.8560   31.8830 C.3   154  PHE154      0.0547
     25  CG        13.2500    4.9880   30.4840 C.ar  154  PHE154     -0.0202
     26  CD1       11.9690    5.4640   30.2550 C.ar  154  PHE154     -0.0042
     27  CD2       14.0410    4.6610   29.3950 C.ar  154  PHE154     -0.0042
     28  CE1       11.4820    5.5910   28.9680 C.ar  154  PHE154     -0.0003
     29  CE2       13.5590    4.7900   28.1060 C.ar  154  PHE154     -0.0003
     30  CZ        12.2780    5.2550   27.8930 C.ar  154  PHE154     -0.0000
     31  N         11.2270    2.5180   32.4110 N.am  155  ALA155     -0.1966
     32  CA        10.7440    1.1370   32.3540 C.3   155  ALA155      0.1713
     33  C         11.6020    0.1950   31.5010 C.2   155  ALA155      0.2458
     34  O         12.0050   -0.8640   31.9800 O.2   155  ALA155     -0.2730
     35  CB         9.3070    1.1190   31.8540 C.3   155  ALA155      0.0333
     36  N         11.8840    0.5670   30.2400 N.am  156  PRO156     -0.2727
     37  CA        12.6430   -0.3730   29.4030 C.3   156  PRO156      0.1402
     38  C         14.0800   -0.6130   29.8740 C.2   156  PRO156      0.2269
     39  O         14.6730   -1.6240   29.4960 O.2   156  PRO156     -0.2865
     40  CB        12.6270    0.2960   28.0220 C.3   156  PRO156      0.0296
     41  CG        12.3740    1.7230   28.2860 C.3   156  PRO156      0.0237
     42  CD        11.4890    1.7700   29.4890 C.3   156  PRO156      0.0939
     43  N         13.2610   -2.9890   32.9550 N.3   159  HIS159     -0.1227
     44  CA        12.4710   -4.1560   32.5620 C.3   159  HIS159      0.1737
     45  C         12.7950   -4.6090   31.1400 C.2   159  HIS159      0.2438
     46  O         11.9120   -4.6460   30.2830 O.2   159  HIS159     -0.2733
     47  CB        10.9720   -3.8530   32.6640 C.3   159  HIS159      0.0758
     48  CG        10.5170   -3.4790   34.0400 C.ar  159  HIS159      0.0818
     49  ND1       10.3430   -4.4060   35.0450 N.ar  159  HIS159     -0.2268
     50  CD2       10.1830   -2.2790   34.5720 C.ar  159  HIS159      0.1154
     51  CE1        9.9300   -3.7920   36.1390 C.ar  159  HIS159      0.1986
     52  NE2        9.8260   -2.5010   35.8800 N.ar  159  HIS159     -0.2212
     53  N         14.0610   -4.9710   30.8860 N.am  160  PRO160     -0.2729
     54  CA        14.4680   -5.3680   29.5340 C.3   160  PRO160      0.1401
     55  C         13.7500   -6.6220   29.0350 C.2   160  PRO160      0.2269
     56  O         13.5600   -6.7790   27.8290 O.2   160  PRO160     -0.2865
     57  CB        15.9710   -5.6240   29.6820 C.3   160  PRO160      0.0296
     58  CG        16.1630   -5.9440   31.1250 C.3   160  PRO160      0.0237
     59  CD        15.1610   -5.1040   31.8560 C.3   160  PRO160      0.0939
     60  N         10.6790   -7.4210   29.5550 N.3   162  TYR162     -0.1227
     61  CA         9.2810   -7.1310   29.2520 C.3   162  TYR162      0.1736
     62  C          9.0830   -6.8220   27.7650 C.2   162  TYR162      0.2595
     63  O          7.9520   -6.6930   27.2960 O.2   162  TYR162     -0.2718
     64  CB         8.7970   -5.9560   30.1110 C.3   162  TYR162      0.0548
     65  CG         7.3280   -5.6280   29.9580 C.ar  162  TYR162     -0.0200
     66  CD1        6.3550   -6.3930   30.5870 C.ar  162  TYR162     -0.0009
     67  CD2        6.9160   -4.5490   29.1880 C.ar  162  TYR162     -0.0009
     68  CE1        5.0120   -6.0960   30.4490 C.ar  162  TYR162      0.0417
     69  CE2        5.5750   -4.2450   29.0440 C.ar  162  TYR162      0.0417
     70  CZ         4.6280   -5.0210   29.6770 C.ar  162  TYR162      0.1957
     71  OH         3.2930   -4.7190   29.5370 O.3   162  TYR162     -0.2866
     72  N         10.1880   -6.7280   27.0270 N.am  163  ARG163     -0.1980
     73  CA        10.1650   -6.2690   25.6400 C.3   163  ARG163      0.1597
     74  C          9.2710   -7.1130   24.7340 C.2   163  ARG163      0.2287
     75  O          8.6800   -6.5990   23.7850 O.2   163  ARG163     -0.2864
     76  CB        11.5870   -6.2450   25.0740 C.3   163  ARG163      0.0334
     77  CG        12.2480   -7.6110   24.9370 C.3   163  ARG163      0.0492
     78  CD        13.6910   -7.4680   24.4670 C.3   163  ARG163      0.2205
     79  NE        14.4050   -8.7440   24.4280 N.pl3 163  ARG163     -0.0865
     80  CZ        15.0180   -9.2980   25.4710 C.cat 163  ARG163      0.5346
     81  NH1       15.0040   -8.7010   26.6570 N.pl3 163  ARG163      0.1354
     82  NH2       15.6430  -10.4590   25.3310 N.pl3 163  ARG163      0.1354
     83  N          5.8190   -6.0710   25.3120 N.3   166  ALA166     -0.1231
     84  CA         5.6850   -4.6840   24.8830 C.3   166  ALA166      0.1694
     85  C          5.3670   -4.5930   23.3940 C.2   166  ALA166      0.2591
     86  O          4.5070   -3.8160   22.9790 O.2   166  ALA166     -0.2718
     87  CB         6.9580   -3.9130   25.1980 C.3   166  ALA166      0.0304
     88  N          6.0680   -5.3900   22.5950 N.am  167  ALA167     -0.1980
     89  CA         5.8760   -5.3870   21.1500 C.3   167  ALA167      0.1597
     90  C          4.4800   -5.8680   20.7780 C.2   167  ALA167      0.2287
     91  O          3.8740   -5.3660   19.8350 O.2   167  ALA167     -0.2864
     92  CB         6.9240   -6.2520   20.4790 C.3   167  ALA167      0.0319
     93  N          1.7810   -5.6560   22.7250 N.3   169  ARG169     -0.1231
     94  CA         0.8210   -4.6620   23.1870 C.3   169  ARG169      0.1694
     95  C          0.5970   -3.5830   22.1320 C.2   169  ARG169      0.2591
     96  O         -0.5090   -3.0610   21.9920 O.2   169  ARG169     -0.2718
     97  CB         1.2970   -4.0230   24.4950 C.3   169  ARG169      0.0321
     98  CG         0.3160   -3.0130   25.0800 C.3   169  ARG169      0.0489
     99  CD         0.9040   -2.2670   26.2670 C.3   169  ARG169      0.2205
    100  NE         0.4330   -0.8840   26.3120 N.pl3 169  ARG169     -0.0865
    101  CZ         0.7210   -0.0210   27.2820 C.cat 169  ARG169      0.5346
    102  NH1        0.2450    1.2160   27.2270 N.pl3 169  ARG169      0.1354
    103  NH2        1.4790   -0.3890   28.3060 N.pl3 169  ARG169      0.1354
    104  N          1.6520   -3.2540   21.3930 N.am  170  ARG170     -0.1980
    105  CA         1.5870   -2.2020   20.3850 C.3   170  ARG170      0.1597
    106  C          0.9470   -2.7030   19.0940 C.2   170  ARG170      0.2287
    107  O          0.3460   -1.9300   18.3490 O.2   170  ARG170     -0.2864
    108  CB         2.9870   -1.6570   20.0940 C.3   170  ARG170      0.0334
    109  CG         3.5650   -0.9150   21.3030 C.3   170  ARG170      0.0492
    110  CD         3.0340    0.5220   21.2560 C.3   170  ARG170      0.2205
    111  NE         3.7400    1.3060   22.3240 N.pl3 170  ARG170     -0.0865
    112  CZ         3.3410    1.2590   23.5940 C.cat 170  ARG170      0.5346
    113  NH1        2.2560    0.6090   24.0100 N.pl3 170  ARG170      0.1354
    114  NH2        4.1590    1.7600   24.5400 N.pl3 170  ARG170      0.1354
@<TRIPOS>BOND
     1   107   106    2
     2   106   105    1
     3    91    90    2
     4   108   105    1
     5   108   109    1
     6   105   104    1
     7    92    89    1
     8    90    89    1
     9    89    88    1
    10   110   109    1
    11   110   111    1
    12   104    95   am
    13    96    95    2
    14    95    94    1
    15   111   112    2
    16    88    85   am
    17    93    94    1
    18    86    85    2
    19    94    97    1
    20    85    84    1
    21   112   113    1
    22   112   114    1
    23    75    74    2
    24    15    16    1
    25    15    14    1
    26    19    17    1
    27    79    78    1
    28    79    80    2
    29    16    17    2
    30    78    77    1
    31    17    18    1
    32    97    98    1
    33    74    73    1
    34    84    87    1
    35    84    83    1
    36    77    76    1
    37    76    73    1
    38    98    99    1
    39    82    80    1
    40    80    81    1
    41    13    14    1
    42    13    10    1
    43    73    72    1
    44    99   100    1
    45   100   101    2
    46    11    10    1
    47    11    12    2
    48    10     9    1
    49    72    62   am
    50   102   101    1
    51   101   103    1
    52    63    62    2
    53    62    61    1
    54    56    55    2
    55     9     3   am
    56     7     6    2
    57    30    29   ar
    58    30    28   ar
    59    40    41    1
    60    40    37    1
    61    29    27   ar
    62    41    42    1
    63     8     6   am
    64     6     5    1
    65    28    26   ar
    66    55    54    1
    67    69    67   ar
    68    69    70   ar
    69     3     4    2
    70     3     2    1
    71    67    65   ar
    72    61    60    1
    73    61    64    1
    74    27    25   ar
    75    37    38    1
    76    37    36    1
    77    42    36    1
    78    39    38    2
    79    54    57    1
    80    54    53    1
    81    71    70    1
    82    70    68   ar
    83    57    58    1
    84     5     2    1
    85    65    64    1
    86    65    66   ar
    87     2     1    1
    88    36    33   am
    89    26    25   ar
    90    46    45    2
    91    68    66   ar
    92    25    24    1
    93    53    45   am
    94    53    59    1
    95    58    59    1
    96    45    44    1
    97    33    34    2
    98    33    32    1
    99    35    32    1
   100    24    21    1
   101    32    31    1
   102    31    22   am
   103    44    47    1
   104    44    43    1
   105    22    23    2
   106    22    21    1
   107    47    48    1
   108    21    20    1
   109    48    50   ar
   110    48    49   ar
   111    50    52   ar
   112    49    51   ar
   113    52    51   ar
