@<TRIPOS>MOLECULE
tmp/4zomA00.pdb
 212 203 0 0 0
SMALL
GASTEIGER

@<TRIPOS>ATOM
      1  N         32.9400  176.1760   -0.2360 N.3    22  GLN22      -0.1231
      2  CA        34.1310  176.5940    0.5200 C.3    22  GLN22       0.1698
      3  C         35.0900  177.6490   -0.1230 C.2    22  GLN22       0.2592
      4  O         35.2960  178.6970    0.4570 O.2    22  GLN22      -0.2718
      5  CB        34.8690  175.3120    0.9370 C.3    22  GLN22       0.0381
      6  CG        36.3350  175.3750    1.2180 C.3    22  GLN22       0.0905
      7  CD        36.6800  174.1730    2.0910 C.2    22  GLN22       0.2608
      8  OE1       36.4970  172.9950    1.6810 O.2    22  GLN22      -0.2717
      9  NE2       37.1420  174.4370    3.3340 N.am   22  GLN22      -0.0878
     10  N         35.6030  177.3940   -1.3370 N.am   23  LEU23      -0.1980
     11  CA        36.3140  178.4020   -2.1720 C.3    23  LEU23       0.1596
     12  C         35.5560  178.6020   -3.4980 C.2    23  LEU23       0.2287
     13  O         35.2260  177.6510   -4.1850 O.2    23  LEU23      -0.2864
     14  CB        37.6690  177.8380   -2.4950 C.3    23  LEU23       0.0297
     15  CG        38.6770  177.5120   -1.3460 C.3    23  LEU23       0.0022
     16  CD1       39.6200  176.3200   -1.6510 C.3    23  LEU23       0.0001
     17  CD2       39.4780  178.8130   -1.0770 C.3    23  LEU23       0.0001
     18  N         51.7480  168.3590    8.1120 N.3    53  TRP53      -0.1241
     19  CA        50.7380  167.6080    8.4660 C.3    53  TRP53       0.1605
     20  C         49.6870  168.2550    9.2530 C.2    53  TRP53       0.2264
     21  O         48.5350  168.1280    8.8210 O.2    53  TRP53      -0.2867
     22  CB        51.1580  166.3890    9.1860 C.3    53  TRP53       0.0550
     23  CG        50.0140  165.6970    9.8260 C.ar   53  TRP53       0.0003
     24  CD1       49.7370  165.5870   11.1890 C.ar   53  TRP53       0.0946
     25  CD2       48.9490  165.0530    9.1610 C.ar   53  TRP53       0.0152
     26  NE1       48.5950  164.8750   11.3810 N.ar   53  TRP53      -0.2442
     27  CE2       48.0840  164.5230   10.1690 C.ar   53  TRP53       0.0810
     28  CE3       48.6200  164.8480    7.8060 C.ar   53  TRP53       0.0012
     29  CZ2       46.9200  163.7980    9.8400 C.ar   53  TRP53       0.0191
     30  CZ3       47.4960  164.1650    7.5240 C.ar   53  TRP53       0.0001
     31  CH2       46.6530  163.6020    8.5390 C.ar   53  TRP53       0.0015
     32  N         47.8850  170.4950    6.8360 N.3    56  CYS56      -0.1235
     33  CA        47.1580  169.6740    5.8580 C.3    56  CYS56       0.1677
     34  C         45.9800  169.0490    6.5350 C.2    56  CYS56       0.2270
     35  O         44.8960  169.1430    6.0260 O.2    56  CYS56      -0.2867
     36  CB        48.0280  168.5880    5.1890 C.3    56  CYS56       0.0956
     37  SG        49.3340  169.4070    4.1640 S.3    56  CYS56      -0.0801
     38  N         43.0790  171.5220    7.0670 N.3    59  HIS59      -0.1226
     39  CA        42.4210  171.8770    5.7950 C.3    59  HIS59       0.1752
     40  C         41.5340  170.7420    5.3430 C.2    59  HIS59       0.2595
     41  O         40.4310  171.0490    4.9150 O.2    59  HIS59      -0.2718
     42  CB        43.4330  172.1580    4.7400 C.3    59  HIS59       0.0759
     43  CG        44.1450  173.4120    4.9700 C.ar   59  HIS59       0.0818
     44  ND1       45.5220  173.4640    5.1490 N.ar   59  HIS59      -0.2268
     45  CD2       43.6840  174.6950    5.0000 C.ar   59  HIS59       0.1154
     46  CE1       45.8660  174.7460    5.3190 C.ar   59  HIS59       0.1986
     47  NE2       44.7640  175.5070    5.2230 N.ar   59  HIS59      -0.2212
     48  N         41.9210  169.5020    5.5750 N.am   60  LEU60      -0.1980
     49  CA        41.1210  168.3740    5.2550 C.3    60  LEU60       0.1596
     50  C         39.8790  168.2270    6.0610 C.2    60  LEU60       0.2287
     51  O         38.8200  167.8670    5.5330 O.2    60  LEU60      -0.2864
     52  CB        41.8990  167.1210    5.4440 C.3    60  LEU60       0.0297
     53  CG        42.8960  166.9720    4.3100 C.3    60  LEU60       0.0022
     54  CD1       44.1270  166.2260    4.7710 C.3    60  LEU60       0.0001
     55  CD2       42.2160  166.1210    3.2430 C.3    60  LEU60       0.0001
     56  N         37.4290  170.6350    4.9220 N.3    63  ALA63      -0.1245
     57  CA        36.8660  170.1780    3.6450 C.3    63  ALA63       0.1562
     58  C         35.8400  169.1070    3.8660 C.2    63  ALA63       0.2260
     59  O         34.7760  169.1860    3.2760 O.2    63  ALA63      -0.2867
     60  CB        37.8930  169.7830    2.6270 C.3    63  ALA63       0.0290
     61  N         36.3010  164.9340   -1.7130 N.3    97  VAL97      -0.1245
     62  CA        37.3240  165.9840   -1.4200 C.3    97  VAL97       0.1561
     63  C         38.2780  165.9730   -2.6230 C.2    97  VAL97       0.2260
     64  O         38.6350  167.0450   -3.2220 O.2    97  VAL97      -0.2867
     65  CB        38.0390  165.8270   -0.0300 C.3    97  VAL97       0.0252
     66  CG1       39.2950  166.7960    0.0640 C.3    97  VAL97       0.0019
     67  CG2       37.1190  166.0530    1.1170 C.3    97  VAL97       0.0019
     68  N         39.1280  168.9370   -5.2900 N.3   101  MET101     -0.1245
     69  CA        40.5100  169.4870   -5.6170 C.3   101  MET101      0.1570
     70  C         40.8070  169.9280   -7.0410 C.2   101  MET101      0.2261
     71  O         41.5780  170.9170   -7.2080 O.2   101  MET101     -0.2867
     72  CB        41.6310  168.4980   -5.3320 C.3   101  MET101      0.0387
     73  CG        42.0310  168.5260   -3.8550 C.3   101  MET101      0.0595
     74  SD        43.2900  167.2670   -3.4520 S.3   101  MET101     -0.1393
     75  CE        44.5850  168.0640   -4.4460 C.3   101  MET101      0.0692
     76  N         40.8730  173.5850   -7.9950 N.3   104  ALA104     -0.1245
     77  CA        41.9820  174.4330   -7.4250 C.3   104  ALA104      0.1562
     78  C         43.3430  174.0880   -8.1780 C.2   104  ALA104      0.2260
     79  O         44.3950  174.6160   -7.8570 O.2   104  ALA104     -0.2867
     80  CB        42.0800  174.0890   -5.9050 C.3   104  ALA104      0.0290
     81  N         48.7280  173.8370   -7.8960 N.3   112  VAL112     -0.1231
     82  CA        47.5250  173.7120   -7.1210 C.3   112  VAL112      0.1692
     83  C         47.5510  174.8390   -6.2110 C.2   112  VAL112      0.2592
     84  O         48.5870  175.1860   -5.7840 O.2   112  VAL112     -0.2718
     85  CB        47.4440  172.3550   -6.2920 C.3   112  VAL112      0.0266
     86  CG1       48.2760  172.4390   -4.9940 C.3   112  VAL112      0.0020
     87  CG2       46.0210  172.0690   -5.7530 C.3   112  VAL112      0.0020
     88  N         46.3710  175.2960   -5.7810 N.am  113  PHE113     -0.1962
     89  CA        46.2570  176.3230   -4.7910 C.3   113  PHE113      0.1771
     90  C         46.4040  175.7560   -3.4010 C.2   113  PHE113      0.2620
     91  O         45.7920  174.7590   -3.0680 O.2   113  PHE113     -0.2715
     92  CB        44.7940  176.9310   -4.9180 C.3   113  PHE113      0.0574
     93  CG        44.5520  178.1170   -4.0730 C.ar  113  PHE113     -0.0200
     94  CD1       44.8310  179.3810   -4.5410 C.ar  113  PHE113     -0.0042
     95  CD2       43.9390  177.9740   -2.7890 C.ar  113  PHE113     -0.0042
     96  CE1       44.5580  180.5330   -3.7690 C.ar  113  PHE113     -0.0003
     97  CE2       43.6490  179.1230   -1.9900 C.ar  113  PHE113     -0.0003
     98  CZ        44.0390  180.4100   -2.4810 C.ar  113  PHE113     -0.0000
     99  N         47.1230  176.4710   -2.5140 N.am  114  PHE114     -0.1960
    100  CA        47.2530  175.9730   -1.1280 C.3   114  PHE114      0.1771
    101  C         47.6960  177.1960   -0.3120 C.2   114  PHE114      0.2619
    102  O         48.7290  177.8210   -0.6440 O.2   114  PHE114     -0.2715
    103  CB        48.3430  174.9560   -1.1230 C.3   114  PHE114      0.0574
    104  CG        48.7140  174.4660    0.1890 C.ar  114  PHE114     -0.0200
    105  CD1       48.0210  173.3540    0.6830 C.ar  114  PHE114     -0.0042
    106  CD2       49.7610  174.9370    0.8210 C.ar  114  PHE114     -0.0042
    107  CE1       48.3550  172.8040    1.8930 C.ar  114  PHE114     -0.0003
    108  CE2       50.1310  174.4220    2.1240 C.ar  114  PHE114     -0.0003
    109  CZ        49.3990  173.3400    2.6380 C.ar  114  PHE114     -0.0000
    110  N         46.9630  177.5410    0.7160 N.am  115  GLU115     -0.1963
    111  CA        47.3210  178.5880    1.5910 C.3   115  GLU115      0.1733
    112  C         47.6650  179.8970    0.8220 C.2   115  GLU115      0.2616
    113  O         48.7410  180.4110    0.9240 O.2   115  GLU115     -0.2715
    114  CB        48.4830  178.1470    2.4290 C.3   115  GLU115      0.0429
    115  CG        47.9490  177.0470    3.4210 C.3   115  GLU115      0.1163
    116  CD        48.9250  176.6300    4.4510 C.2   115  GLU115      0.3649
    117  OE1       50.1020  177.0510    4.3920 O.co2 115  GLU115     -0.2457
    118  OE2       48.5300  175.8780    5.3230 O.co2 115  GLU115     -0.2457
    119  N         46.7580  180.3440   -0.0490 N.am  116  GLY116     -0.1955
    120  CA        46.7960  181.7170   -0.4550 C.3   116  GLY116      0.1869
    121  C         47.5300  181.7650   -1.7270 C.2   116  GLY116      0.2309
    122  O         47.3850  182.7690   -2.4070 O.2   116  GLY116     -0.2863
    123  N         55.1870  170.1580   -1.2330 N.3   124  PHE124     -0.1241
    124  CA        54.8180  169.1830   -0.2700 C.3   124  PHE124      0.1605
    125  C         55.9070  168.1230   -0.0250 C.2   124  PHE124      0.2264
    126  O         55.6720  167.1610    0.6340 O.2   124  PHE124     -0.2867
    127  CB        53.4900  168.4560   -0.7990 C.3   124  PHE124      0.0534
    128  CG        52.3200  169.3980   -0.9330 C.ar  124  PHE124     -0.0203
    129  CD1       51.5520  169.7340    0.1030 C.ar  124  PHE124     -0.0042
    130  CD2       52.0300  169.9530   -2.1220 C.ar  124  PHE124     -0.0042
    131  CE1       50.5580  170.6970   -0.0210 C.ar  124  PHE124     -0.0003
    132  CE2       51.0360  170.8610   -2.2610 C.ar  124  PHE124     -0.0003
    133  CZ        50.3230  171.2340   -1.2000 C.ar  124  PHE124     -0.0000
    134  N         56.6350  165.9280    3.2810 N.3   127  LEU127     -0.1245
    135  CA        55.6500  164.9160    3.6530 C.3   127  LEU127      0.1561
    136  C         56.2070  163.6070    3.3680 C.2   127  LEU127      0.2260
    137  O         55.7790  162.5890    3.9700 O.2   127  LEU127     -0.2867
    138  CB        54.3290  165.1360    2.9430 C.3   127  LEU127      0.0270
    139  CG        53.3540  166.1520    3.6220 C.3   127  LEU127      0.0019
    140  CD1       52.0200  166.2950    2.7840 C.3   127  LEU127      0.0001
    141  CD2       52.9480  165.7130    5.0570 C.3   127  LEU127      0.0001
    142  N         55.8520  161.8690    0.6370 N.3   129  CYS129     -0.1235
    143  CA        54.8250  161.1230   -0.0990 C.3   129  CYS129      0.1677
    144  C         54.7580  161.4930   -1.5750 C.2   129  CYS129      0.2270
    145  O         53.6900  161.7600   -2.0520 O.2   129  CYS129     -0.2867
    146  CB        53.3700  161.4640    0.4620 C.3   129  CYS129      0.0956
    147  SG        53.2030  160.8060    2.1510 S.3   129  CYS129     -0.0801
    148  N         52.2220  159.2270   -3.9060 N.3   132  LEU132     -0.1231
    149  CA        50.8540  159.6440   -3.6420 C.3   132  LEU132      0.1693
    150  C         50.5660  161.0680   -4.1400 C.2   132  LEU132      0.2591
    151  O         49.5860  161.3130   -4.8630 O.2   132  LEU132     -0.2718
    152  CB        50.5050  159.5220   -2.1990 C.3   132  LEU132      0.0284
    153  CG        49.0450  160.0020   -1.8930 C.3   132  LEU132      0.0019
    154  CD1       48.0660  159.1290   -2.7180 C.3   132  LEU132      0.0001
    155  CD2       48.6760  159.9740   -0.4150 C.3   132  LEU132      0.0001
    156  N         51.4380  161.9990   -3.8360 N.am  133  ILE133     -0.1980
    157  CA        51.1420  163.3930   -4.2690 C.3   133  ILE133      0.1595
    158  C         51.0990  163.4110   -5.7430 C.2   133  ILE133      0.2287
    159  O         50.2940  164.1570   -6.3590 O.2   133  ILE133     -0.2864
    160  CB        52.2510  164.4040   -3.8050 C.3   133  ILE133      0.0276
    161  CG1       52.4160  164.4150   -2.3240 C.3   133  ILE133      0.0022
    162  CG2       51.9310  165.8060   -4.2810 C.3   133  ILE133      0.0022
    163  CD1       51.2960  165.1110   -1.6150 C.3   133  ILE133      0.0001
    164  N         47.9130  162.1240   -7.1510 N.3   136  ILE136     -0.1231
    165  CA        46.9060  163.1920   -6.9860 C.3   136  ILE136      0.1692
    166  C         46.9920  164.2990   -7.9770 C.2   136  ILE136      0.2592
    167  O         46.0020  164.7400   -8.5330 O.2   136  ILE136     -0.2718
    168  CB        46.9270  163.7020   -5.5960 C.3   136  ILE136      0.0266
    169  CG1       46.4700  162.5270   -4.6640 C.3   136  ILE136      0.0019
    170  CG2       46.1480  164.9940   -5.4550 C.3   136  ILE136      0.0020
    171  CD1       46.6060  162.9180   -3.1360 C.3   136  ILE136      0.0001
    172  N         48.1720  164.8160   -8.1860 N.am  137  PHE137     -0.1976
    173  CA        48.3800  165.6830   -9.3550 C.3   137  PHE137      0.1639
    174  C         47.9250  165.0520  -10.6930 C.2   137  PHE137      0.2290
    175  O         47.3640  165.8110  -11.5550 O.2   137  PHE137     -0.2864
    176  CB        49.8980  166.1460   -9.4160 C.3   137  PHE137      0.0560
    177  CG        50.1610  167.3860   -8.5940 C.ar  137  PHE137     -0.0200
    178  CD1       49.8210  167.4350   -7.3010 C.ar  137  PHE137     -0.0042
    179  CD2       50.6090  168.5730   -9.2000 C.ar  137  PHE137     -0.0042
    180  CE1       50.0190  168.5670   -6.5170 C.ar  137  PHE137     -0.0003
    181  CE2       50.6910  169.8050   -8.4540 C.ar  137  PHE137     -0.0003
    182  CZ        50.3820  169.7770   -7.0920 C.ar  137  PHE137     -0.0000
    183  N         45.1050  157.0970   -0.1180 N.3   215  HIS215     -0.1241
    184  CA        45.1710  158.4250    0.5710 C.3   215  HIS215      0.1621
    185  C         44.8980  158.2420    2.0920 C.2   215  HIS215      0.2264
    186  O         45.7170  158.6870    2.9450 O.2   215  HIS215     -0.2867
    187  CB        44.1460  159.3840   -0.0510 C.3   215  HIS215      0.0745
    188  CG        44.3400  160.8290    0.3050 C.ar  215  HIS215      0.0817
    189  ND1       43.6110  161.8340   -0.3040 N.ar  215  HIS215     -0.2268
    190  CD2       45.1800  161.4480    1.1830 C.ar  215  HIS215      0.1154
    191  CE1       44.0060  163.0110    0.1750 C.ar  215  HIS215      0.1986
    192  NE2       44.9530  162.8050    1.0780 N.ar  215  HIS215     -0.2212
    193  N         47.5520  157.2260    4.8390 N.3   218  ARG218     -0.1245
    194  CA        48.1620  158.1450    5.7740 C.3   218  ARG218      0.1563
    195  C         47.1200  158.7250    6.7260 C.2   218  ARG218      0.2260
    196  O         46.4390  159.7100    6.4520 O.2   218  ARG218     -0.2867
    197  CB        48.9350  159.1790    5.0050 C.3   218  ARG218      0.0307
    198  CG        49.7250  158.5540    3.8710 C.3   218  ARG218      0.0489
    199  CD        51.1140  158.2470    4.3590 C.3   218  ARG218      0.2205
    200  NE        51.7570  157.1730    3.6390 N.pl3 218  ARG218     -0.0865
    201  CZ        52.7900  156.5080    4.1170 C.cat 218  ARG218      0.5346
    202  NH1       53.2650  156.8120    5.2930 N.pl3 218  ARG218      0.1354
    203  NH2       53.3500  155.5450    3.4290 N.pl3 218  ARG218      0.1354
    204  N         49.0520  159.6640    9.4090 N.3   220  GLN220     -0.1245
    205  CA        49.9340  160.3870   10.2740 C.3   220  GLN220      0.1566
    206  C         49.1780  160.7900   11.5240 C.2   220  GLN220      0.2260
    207  O         49.7460  161.2900   12.4490 O.2   220  GLN220     -0.2867
    208  CB        50.3920  161.6190    9.5300 C.3   220  GLN220      0.0367
    209  CG        51.2610  161.2810    8.3510 C.3   220  GLN220      0.0905
    210  CD        51.6840  162.4630    7.5390 C.2   220  GLN220      0.2608
    211  OE1       51.0360  163.4710    7.5260 O.2   220  GLN220     -0.2717
    212  NE2       52.7610  162.3130    6.8340 N.am  220  GLN220     -0.0878
@<TRIPOS>BOND
     1   175   174    2
     2   174   173    1
     3   176   173    1
     4   176   177    1
     5   173   172    1
     6   179   177   ar
     7   179   181   ar
     8   177   178   ar
     9   167   166    2
    10   181   182   ar
    11   172   166   am
    12    78    79    2
    13    78    77    1
    14    76    77    1
    15   166   165    1
    16    81    82    1
    17    77    80    1
    18   178   180   ar
    19    71    70    2
    20   164   165    1
    21    82    85    1
    22    82    83    1
    23   182   180   ar
    24    70    69    1
    25   165   168    1
    26   159   158    2
    27    85    87    1
    28    85    86    1
    29    83    84    2
    30    83    88   am
    31    88    89    1
    32   158   157    1
    33    69    72    1
    34    69    68    1
    35   168   170    1
    36   168   169    1
    37    72    73    1
    38    92    89    1
    39    92    93    1
    40   151   150    2
    41    89    90    1
    42   169   171    1
    43    94    93   ar
    44    94    96   ar
    45    75    74    1
    46   162   160    1
    47   157   156    1
    48   157   160    1
    49    13    12    2
    50   150   156   am
    51   150   149    1
    52    93    95   ar
    53   148   149    1
    54    73    74    1
    55   160   161    1
    56    96    98   ar
    57   149   152    1
    58    12    11    1
    59    90    91    2
    60    90    99   am
    61    64    63    2
    62    95    97   ar
    63   154   153    1
    64    63    62    1
    65    99   100    1
    66    14    11    1
    67    14    15    1
    68    98    97   ar
    69   122   121    2
    70   161   163    1
    71   132   130   ar
    72   132   133   ar
    73   152   153    1
    74    11    10    1
    75   130   128   ar
    76   145   144    2
    77   153   155    1
    78   121   120    1
    79    61    62    1
    80    16    15    1
    81   144   143    1
    82    62    65    1
    83    15    17    1
    84    10     3   am
    85   123   124    1
    86   133   131   ar
    87   100   103    1
    88   100   101    1
    89   103   104    1
    90   128   127    1
    91   128   129   ar
    92   127   124    1
    93   102   101    2
    94   120   119    1
    95   101   110   am
    96   189   191   ar
    97   189   188   ar
    98   124   125    1
    99     1     2    1
   100     3     4    2
   101     3     2    1
   102   183   184    1
   103   143   146    1
   104   143   142    1
   105   187   188    1
   106   187   184    1
   107   119   112   am
   108    65    66    1
   109    65    67    1
   110   125   126    2
   111   131   129   ar
   112   191   192   ar
   113   104   105   ar
   114   104   106   ar
   115   188   190   ar
   116   146   147    1
   117     2     5    1
   118   184   185    1
   119   105   107   ar
   120   110   111    1
   121   106   108   ar
   122   112   113    2
   123   112   111    1
   124     5     6    1
   125   192   190   ar
   126     6     7    1
   127   111   114    1
   128     8     7    2
   129   107   109   ar
   130     7     9   am
   131   185   186    2
   132   108   109   ar
   133   114   115    1
   134    60    57    1
   135   140   139    1
   136   138   139    1
   137   138   135    1
   138    55    53    1
   139    59    58    2
   140   134   135    1
   141   136   135    1
   142   136   137    2
   143   115   116    1
   144   203   201    1
   145   139   141    1
   146   200   201    2
   147   200   199    1
   148    57    58    1
   149    57    56    1
   150   198   199    1
   151   198   197    1
   152   201   202    1
   153    37    36    1
   154    53    54    1
   155    53    52    1
   156   117   116   ar
   157   116   118   ar
   158    42    43    1
   159    42    39    1
   160   193   194    1
   161    41    40    2
   162    43    45   ar
   163    43    44   ar
   164    45    47   ar
   165   197   194    1
   166    44    46   ar
   167    36    33    1
   168    47    46   ar
   169    49    52    1
   170    49    48    1
   171    49    50    1
   172    40    48   am
   173    40    39    1
   174    51    50    2
   175   194   195    1
   176    39    38    1
   177    33    34    1
   178    33    32    1
   179    35    34    2
   180   196   195    2
   181   212   210   am
   182    30    28   ar
   183    30    31   ar
   184   211   210    2
   185   210   209    1
   186    28    25   ar
   187    18    19    1
   188   209   208    1
   189    19    22    1
   190    19    20    1
   191    31    29   ar
   192    21    20    2
   193    25    23   ar
   194    25    27   ar
   195    22    23    1
   196   204   205    1
   197   208   205    1
   198    23    24   ar
   199    29    27   ar
   200    27    26   ar
   201   205   206    1
   202    24    26   ar
   203   206   207    2
