@<TRIPOS>MOLECULE
tmp/4zonA00.pdb
 152 147 0 0 0
SMALL
GASTEIGER

@<TRIPOS>ATOM
      1  N        -14.6060   -6.5980  -34.1460 N.3    59  LEU59      -0.1245
      2  CA       -14.4310   -6.1850  -35.5340 C.3    59  LEU59       0.1561
      3  C        -13.9710   -7.3580  -36.3970 C.2    59  LEU59       0.2260
      4  O        -14.5470   -7.6260  -37.4510 O.2    59  LEU59      -0.2867
      5  CB       -13.4300   -5.0270  -35.6240 C.3    59  LEU59       0.0270
      6  CG       -13.3950   -4.1790  -36.9000 C.3    59  LEU59       0.0019
      7  CD1      -12.9110   -2.7760  -36.5830 C.3    59  LEU59       0.0001
      8  CD2      -12.5050   -4.8040  -37.9550 C.3    59  LEU59       0.0001
      9  N        -15.3500  -10.3360  -40.4850 N.3    63  TYR63      -0.1241
     10  CA       -14.6730  -10.4700  -41.7720 C.3    63  TYR63       0.1605
     11  C        -13.9210  -11.7970  -41.9010 C.2    63  TYR63       0.2264
     12  O        -13.5550  -12.4000  -40.8920 O.2    63  TYR63      -0.2867
     13  CB       -13.7160   -9.2880  -41.9720 C.3    63  TYR63       0.0534
     14  CG       -14.4100   -7.9460  -41.9200 C.ar   63  TYR63      -0.0201
     15  CD1      -15.0700   -7.4410  -43.0320 C.ar   63  TYR63      -0.0009
     16  CD2      -14.4150   -7.1900  -40.7560 C.ar   63  TYR63      -0.0009
     17  CE1      -15.7120   -6.2170  -42.9870 C.ar   63  TYR63       0.0417
     18  CE2      -15.0520   -5.9660  -40.7020 C.ar   63  TYR63       0.0417
     19  CZ       -15.7000   -5.4840  -41.8190 C.ar   63  TYR63       0.1957
     20  OH       -16.3350   -4.2650  -41.7670 O.3    63  TYR63      -0.2866
     21  N         -9.8330    8.8870  -31.9880 N.3   107  SER107     -0.1202
     22  CA       -10.9580    7.9730  -31.8940 C.3   107  SER107      0.2020
     23  C        -10.4760    6.5400  -32.0680 C.2   107  SER107      0.2618
     24  O        -10.9670    5.6260  -31.4030 O.2   107  SER107     -0.2717
     25  CB       -12.0200    8.3160  -32.9360 C.3   107  SER107      0.2103
     26  OG       -13.1660    7.4840  -32.7920 O.3   107  SER107     -0.2182
     27  N         -9.5030    6.3600  -32.9580 N.am  108  ALA108     -0.1979
     28  CA        -8.9040    5.0530  -33.2050 C.3   108  ALA108      0.1597
     29  C         -7.6210    5.1570  -34.0200 C.2   108  ALA108      0.2287
     30  O         -7.4640    6.0510  -34.8520 O.2   108  ALA108     -0.2864
     31  CB        -9.8850    4.1390  -33.9160 C.3   108  ALA108      0.0319
     32  N         -5.1400    1.9820  -35.8120 N.3   110  PHE110     -0.1241
     33  CA        -5.0080    0.5360  -35.9250 C.3   110  PHE110      0.1605
     34  C         -4.3180    0.1000  -37.2120 C.2   110  PHE110      0.2264
     35  O         -4.2770    0.8400  -38.1970 O.2   110  PHE110     -0.2867
     36  CB        -6.3860   -0.1230  -35.8370 C.3   110  PHE110      0.0534
     37  CG        -7.3410    0.3430  -36.8930 C.ar  110  PHE110     -0.0203
     38  CD1       -8.1510    1.4440  -36.6740 C.ar  110  PHE110     -0.0042
     39  CD2       -7.4240   -0.3140  -38.1070 C.ar  110  PHE110     -0.0042
     40  CE1       -9.0270    1.8770  -37.6490 C.ar  110  PHE110     -0.0003
     41  CE2       -8.2950    0.1140  -39.0850 C.ar  110  PHE110     -0.0003
     42  CZ        -9.0930    1.2110  -38.8600 C.ar  110  PHE110     -0.0000
     43  N        -16.6270    5.0480  -50.8490 N.3   124  HIS124     -0.1226
     44  CA       -17.4200    5.3860  -49.6790 C.3   124  HIS124      0.1752
     45  C        -16.8940    6.6270  -48.9740 C.2   124  HIS124      0.2596
     46  O        -15.8240    7.1420  -49.3070 O.2   124  HIS124     -0.2718
     47  CB       -17.4280    4.2170  -48.6980 C.3   124  HIS124      0.0759
     48  CG       -16.0840    3.9300  -48.1130 C.ar  124  HIS124      0.0818
     49  ND1      -15.1500    3.1390  -48.7470 N.ar  124  HIS124     -0.2268
     50  CD2      -15.5030    4.3550  -46.9680 C.ar  124  HIS124      0.1154
     51  CE1      -14.0560    3.0800  -48.0110 C.ar  124  HIS124      0.1986
     52  NE2      -14.2470    3.8050  -46.9240 N.ar  124  HIS124     -0.2212
     53  N        -17.6580    7.0870  -47.9880 N.am  125  ARG125     -0.1966
     54  CA       -17.2300    8.1420  -47.0790 C.3   125  ARG125      0.1729
     55  C        -17.0380    7.5570  -45.6840 C.2   125  ARG125      0.2616
     56  O        -17.7070    6.5900  -45.3230 O.2   125  ARG125     -0.2715
     57  CB       -18.2560    9.2750  -47.0450 C.3   125  ARG125      0.0348
     58  CG       -18.3400   10.0680  -48.3400 C.3   125  ARG125      0.0492
     59  CD       -19.5450   11.0000  -48.3530 C.3   125  ARG125      0.2205
     60  NE       -19.3250   12.1520  -49.2250 N.pl3 125  ARG125     -0.0865
     61  CZ       -20.2910   12.9390  -49.6850 C.cat 125  ARG125      0.5346
     62  NH1      -21.5570   12.6980  -49.3680 N.pl3 125  ARG125      0.1354
     63  NH2      -19.9910   13.9630  -50.4700 N.pl3 125  ARG125      0.1354
     64  N        -16.1300    8.1400  -44.9020 N.am  126  ASP126     -0.1957
     65  CA       -15.8870    7.6670  -43.5360 C.3   126  ASP126      0.1840
     66  C        -16.9200    8.1940  -42.5450 C.2   126  ASP126      0.2622
     67  O        -16.6030    9.0150  -41.6880 O.2   126  ASP126     -0.2715
     68  CB       -14.4790    8.0540  -43.0750 C.3   126  ASP126      0.1450
     69  CG       -13.4130    7.2040  -43.7250 C.2   126  ASP126      0.3671
     70  OD1      -13.8000    6.1710  -44.3050 O.co2 126  ASP126     -0.2456
     71  OD2      -12.2110    7.5540  -43.6530 O.co2 126  ASP126     -0.2456
     72  N        -18.1520    7.7040  -42.6510 N.am  127  ASP127     -0.1957
     73  CA       -19.2430    8.2290  -41.8360 C.3   127  ASP127      0.1840
     74  C        -20.0970    7.1520  -41.1660 C.2   127  ASP127      0.2622
     75  O        -21.2490    7.4080  -40.8230 O.2   127  ASP127     -0.2715
     76  CB       -20.1460    9.1300  -42.6930 C.3   127  ASP127      0.1450
     77  CG       -20.7880    8.3900  -43.8680 C.2   127  ASP127      0.3671
     78  OD1      -20.6800    7.1470  -43.9460 O.co2 127  ASP127     -0.2456
     79  OD2      -21.4170    9.0600  -44.7170 O.co2 127  ASP127     -0.2456
     80  N        -19.5540    5.9540  -40.9820 N.am  128  ALA128     -0.1963
     81  CA       -20.3800    4.8630  -40.4680 C.3   128  ALA128      0.1728
     82  C        -20.0880    4.5270  -39.0050 C.2   128  ALA128      0.2617
     83  O        -20.9480    3.9850  -38.3170 O.2   128  ALA128     -0.2715
     84  CB       -20.2260    3.6210  -41.3440 C.3   128  ALA128      0.0334
     85  N        -18.8940    4.8580  -38.5210 N.am  129  THR129     -0.1937
     86  CA       -18.5800    4.6330  -37.1100 C.3   129  THR129      0.2028
     87  C        -19.4330    5.5370  -36.2290 C.2   129  THR129      0.2642
     88  O        -19.9450    5.1110  -35.1920 O.2   129  THR129     -0.2714
     89  CB       -17.0950    4.8770  -36.8120 C.3   129  THR129      0.1808
     90  OG1      -16.3140    3.9560  -37.5770 O.3   129  THR129     -0.2208
     91  CG2      -16.8030    4.6680  -35.3330 C.3   129  THR129      0.0379
     92  N        -19.5740    6.7870  -36.6570 N.am  130  HIS130     -0.1973
     93  CA       -20.4850    7.7360  -36.0350 C.3   130  HIS130      0.1656
     94  C        -21.5310    8.1660  -37.0590 C.2   130  HIS130      0.2291
     95  O        -21.3790    9.2010  -37.7060 O.2   130  HIS130     -0.2864
     96  CB       -19.7230    8.9540  -35.5010 C.3   130  HIS130      0.0771
     97  CG       -18.7330    8.6240  -34.4270 C.ar  130  HIS130      0.0820
     98  ND1      -17.4740    8.1320  -34.7000 N.ar  130  HIS130     -0.2267
     99  CD2      -18.8220    8.7060  -33.0780 C.ar  130  HIS130      0.1154
    100  CE1      -16.8280    7.9300  -33.5640 C.ar  130  HIS130      0.1986
    101  NE2      -17.6230    8.2710  -32.5660 N.ar  130  HIS130     -0.2212
    102  N        -22.7820   11.6240  -38.4570 N.3   133  MET133     -0.1245
    103  CA       -21.9740   12.3980  -39.3990 C.3   133  MET133      0.1570
    104  C        -22.6000   12.4320  -40.7860 C.2   133  MET133      0.2261
    105  O        -22.4090   13.3830  -41.5430 O.2   133  MET133     -0.2867
    106  CB       -20.5560   11.8270  -39.4830 C.3   133  MET133      0.0387
    107  CG       -19.7220   12.0810  -38.2480 C.3   133  MET133      0.0595
    108  SD       -18.0870   11.3390  -38.3640 S.3   133  MET133     -0.1393
    109  CE       -17.5600   11.9630  -39.9590 C.3   133  MET133      0.0692
    110  N        -14.3220   15.1890  -38.1100 N.3   144  SER144     -0.1217
    111  CA       -13.4660   14.0250  -38.3170 C.3   144  SER144      0.1889
    112  C        -12.4020   14.2340  -39.3900 C.2   144  SER144      0.2288
    113  O        -12.6600   14.8300  -40.4350 O.2   144  SER144     -0.2866
    114  CB       -14.3110   12.8030  -38.6800 C.3   144  SER144      0.2089
    115  OG       -13.4970   11.6410  -38.7660 O.3   144  SER144     -0.2183
    116  N         -9.2150   11.9220  -41.3800 N.3   146  SER146     -0.1217
    117  CA        -8.5600   10.6370  -41.5890 C.3   146  SER146      0.1889
    118  C         -7.0750   10.8240  -41.8670 C.2   146  SER146      0.2288
    119  O         -6.6910   11.5690  -42.7700 O.2   146  SER146     -0.2866
    120  CB        -9.2210    9.8780  -42.7420 C.3   146  SER146      0.2089
    121  OG       -10.6160    9.7470  -42.5290 O.3   146  SER146     -0.2183
    122  N         -7.9330    7.9350  -36.8800 N.3   219  TYR219     -0.1241
    123  CA        -9.0340    8.8750  -37.0160 C.3   219  TYR219      0.1605
    124  C         -9.0190    9.8730  -35.8740 C.2   219  TYR219      0.2264
    125  O         -9.1550    9.5010  -34.7100 O.2   219  TYR219     -0.2867
    126  CB       -10.3720    8.1370  -37.0660 C.3   219  TYR219      0.0534
    127  CG       -10.4870    7.1860  -38.2340 C.ar  219  TYR219     -0.0201
    128  CD1      -10.7950    7.6520  -39.5050 C.ar  219  TYR219     -0.0009
    129  CD2      -10.2790    5.8240  -38.0690 C.ar  219  TYR219     -0.0009
    130  CE1      -10.8970    6.7840  -40.5790 C.ar  219  TYR219      0.0417
    131  CE2      -10.3810    4.9490  -39.1350 C.ar  219  TYR219      0.0417
    132  CZ       -10.6890    5.4340  -40.3870 C.ar  219  TYR219      0.1957
    133  OH       -10.7860    4.5650  -41.4490 O.3   219  TYR219     -0.2866
    134  N        -11.0000   12.8260  -34.1900 N.3   221  ASN221     -0.1240
    135  CA       -12.3610   13.3440  -34.1290 C.3   221  ASN221      0.1653
    136  C        -12.5020   14.4900  -33.1580 C.2   221  ASN221      0.2266
    137  O        -11.7440   14.5880  -32.1990 O.2   221  ASN221     -0.2867
    138  CB       -13.3420   12.2620  -33.6950 C.3   221  ASN221      0.1155
    139  CG       -13.6590   11.2820  -34.7830 C.2   221  ASN221      0.2627
    140  OD1      -14.4610   10.3800  -34.5780 O.2   221  ASN221     -0.2716
    141  ND2      -13.0390   11.4430  -35.9430 N.am  221  ASN221     -0.0877
    142  N        -14.0220    5.4140  -30.5920 N.3   228  PHE228     -0.1241
    143  CA       -14.2540    4.0100  -30.9050 C.3   228  PHE228      0.1605
    144  C        -13.4460    3.1310  -29.9560 C.2   228  PHE228      0.2264
    145  O        -13.9900    2.2510  -29.2870 O.2   228  PHE228     -0.2867
    146  CB       -13.8780    3.7540  -32.3650 C.3   228  PHE228      0.0534
    147  CG       -14.0160    2.3220  -32.8150 C.ar  228  PHE228     -0.0203
    148  CD1      -15.2620    1.7730  -33.0640 C.ar  228  PHE228     -0.0042
    149  CD2      -12.8900    1.5460  -33.0510 C.ar  228  PHE228     -0.0042
    150  CE1      -15.3880    0.4590  -33.5010 C.ar  228  PHE228     -0.0003
    151  CE2      -13.0060    0.2310  -33.4920 C.ar  228  PHE228     -0.0003
    152  CZ       -14.2580   -0.3120  -33.7120 C.ar  228  PHE228     -0.0000
@<TRIPOS>BOND
     1    43    44    1
     2    63    61    1
     3    61    62    1
     4    61    60    2
     5    44    45    1
     6    44    47    1
     7    46    45    2
     8    60    59    1
     9    45    53   am
    10    49    48   ar
    11    49    51   ar
    12    47    48    1
    13    59    58    1
    14    58    57    1
    15    48    50   ar
    16    51    52   ar
    17    53    54    1
    18    54    57    1
    19    54    55    1
    20    50    52   ar
    21    55    56    2
    22    55    64   am
    23    64    65    1
    24    79    77   ar
    25    70    69   ar
    26    78    77   ar
    27    77    76    1
    28    69    71   ar
    29    69    68    1
    30    65    68    1
    31    65    66    1
    32    15    17   ar
    33    15    14   ar
    34    17    19   ar
    35   119   118    2
    36   120   121    1
    37   120   117    1
    38    76    73    1
    39    72    66   am
    40    72    73    1
    41    66    67    2
    42    13    14    1
    43    13    10    1
    44    14    16   ar
    45    11    10    1
    46    11    12    2
    47   118   117    1
    48    73    74    1
    49    19    20    1
    50    19    18   ar
    51    10     9    1
    52   117   116    1
    53   105   104    2
    54   133   132    1
    55    84    81    1
    56    74    80   am
    57    74    75    2
    58    80    81    1
    59   104   103    1
    60    16    18   ar
    61   130   132   ar
    62   130   128   ar
    63    81    82    1
    64   113   112    2
    65   132   131   ar
    66   109   108    1
    67   128   127   ar
    68   106   103    1
    69   106   107    1
    70   103   102    1
    71   112   111    1
    72   131   129   ar
    73    41    42   ar
    74    41    39   ar
    75    82    85   am
    76    82    83    2
    77    42    40   ar
    78   115   114    1
    79   114   111    1
    80    85    86    1
    81   108   107    1
    82   111   110    1
    83   127   129   ar
    84   127   126    1
    85    35    34    2
    86    39    37   ar
    87     8     6    1
    88    95    94    2
    89    40    38   ar
    90    90    89    1
    91     4     3    2
    92    34    33    1
    93    86    89    1
    94    86    87    1
    95   126   123    1
    96    94    93    1
    97   123   122    1
    98   123   124    1
    99     6     7    1
   100     6     5    1
   101    37    38   ar
   102    37    36    1
   103    89    91    1
   104    92    87   am
   105    92    93    1
   106     3     2    1
   107    87    88    2
   108    93    96    1
   109   141   139   am
   110    33    36    1
   111    33    32    1
   112   124   125    2
   113     5     2    1
   114     2     1    1
   115    96    97    1
   116    30    29    2
   117   139   140    2
   118   139   138    1
   119    98    97   ar
   120    98   100   ar
   121    97    99   ar
   122   134   135    1
   123   135   138    1
   124   135   136    1
   125    29    28    1
   126    31    28    1
   127   152   150   ar
   128   152   151   ar
   129   100   101   ar
   130   150   148   ar
   131   151   149   ar
   132    28    27    1
   133   136   137    2
   134    99   101   ar
   135   148   147   ar
   136   149   147   ar
   137    27    23   am
   138    25    26    1
   139    25    22    1
   140   147   146    1
   141   146   143    1
   142    23    22    1
   143    23    24    2
   144    21    22    1
   145   143   142    1
   146   143   144    1
   147   144   145    2
