@<TRIPOS>MOLECULE
tmp/4zowA00.pdb
 183 171 0 0 0
SMALL
GASTEIGER

@<TRIPOS>ATOM
      1  N        -20.5410    8.9420   16.3990 N.3    20  THR20      -0.1203
      2  CA       -20.4930    8.2550   17.6860 C.3    20  THR20       0.1994
      3  C        -20.5650    9.2350   18.8590 C.2    20  THR20       0.2617
      4  O        -21.0280    8.8830   19.9440 O.2    20  THR20      -0.2717
      5  CB       -19.2220    7.3930   17.8340 C.3    20  THR20       0.1784
      6  OG1      -18.0590    8.2260   17.7470 O.3    20  THR20      -0.2211
      7  CG2      -19.1670    6.3220   16.7520 C.3    20  THR20       0.0376
      8  N        -20.1060   10.4630   18.6410 N.am   21  TYR21      -0.1975
      9  CA       -20.1420   11.4790   19.6900 C.3    21  TYR21       0.1639
     10  C        -21.5370   12.0690   19.8790 C.2    21  TYR21       0.2290
     11  O        -22.0050   12.2140   21.0070 O.2    21  TYR21      -0.2864
     12  CB       -19.1110   12.5780   19.4300 C.3    21  TYR21       0.0560
     13  CG       -17.6950   12.1690   19.7740 C.ar   21  TYR21      -0.0198
     14  CD1      -17.4020   10.8670   20.1590 C.ar   21  TYR21      -0.0009
     15  CD2      -16.6550   13.0870   19.7270 C.ar   21  TYR21      -0.0009
     16  CE1      -16.1170   10.4880   20.4780 C.ar   21  TYR21       0.0417
     17  CE2      -15.3610   12.7150   20.0460 C.ar   21  TYR21       0.0417
     18  CZ       -15.0990   11.4160   20.4210 C.ar   21  TYR21       0.1957
     19  OH       -13.8160   11.0420   20.7390 O.3    21  TYR21      -0.2866
     20  N        -23.9050    9.9220   21.7090 N.3    24  ASN24      -0.1225
     21  CA       -24.2140   10.3240   23.0770 C.3    24  ASN24       0.1785
     22  C        -24.9460   11.6610   23.2230 C.2    24  ASN24       0.2597
     23  O        -25.9120   11.7730   23.9770 O.2    24  ASN24      -0.2718
     24  CB       -22.9610   10.3240   23.9510 C.3    24  ASN24       0.1169
     25  CG       -23.2940   10.4490   25.4240 C.2    24  ASN24       0.2627
     26  OD1      -23.7200    9.4810   26.0530 O.2    24  ASN24      -0.2716
     27  ND2      -23.1230   11.6450   25.9770 N.am   24  ASN24      -0.0877
     28  N        -24.4920   12.6650   22.4790 N.am   25  ASP25      -0.1974
     29  CA       -24.8910   14.0530   22.7230 C.3    25  ASP25       0.1709
     30  C        -26.3060   14.3960   22.2680 C.2    25  ASP25       0.2293
     31  O        -26.9870   15.2090   22.8920 O.2    25  ASP25      -0.2864
     32  CB       -23.8950   15.0130   22.0660 C.3    25  ASP25       0.1436
     33  CG       -22.5390   14.9950   22.7410 C.2    25  ASP25       0.3671
     34  OD1      -22.4990   14.9250   23.9870 O.co2  25  ASP25      -0.2456
     35  OD2      -21.5140   15.0470   22.0260 O.co2  25  ASP25      -0.2456
     36  N        -25.9260    7.3640   29.3190 N.3    49  MET49      -0.1245
     37  CA       -24.5720    7.8100   29.0280 C.3    49  MET49       0.1570
     38  C        -23.5350    6.9340   29.7310 C.2    49  MET49       0.2261
     39  O        -22.4510    6.6840   29.1980 O.2    49  MET49      -0.2867
     40  CB       -24.4040    9.2740   29.4290 C.3    49  MET49       0.0387
     41  CG       -23.0540    9.8690   29.0850 C.3    49  MET49       0.0595
     42  SD       -23.0790   11.6610   29.2380 S.3    49  MET49      -0.1393
     43  CE       -21.3550   12.0580   28.9970 C.3    49  MET49       0.0692
     44  N        -23.1270    3.7430   27.7730 N.3    52  TYR52      -0.1227
     45  CA       -22.4520    4.0970   26.5320 C.3    52  TYR52       0.1736
     46  C        -20.9420    4.2260   26.7400 C.2    52  TYR52       0.2595
     47  O        -20.1490    3.6880   25.9690 O.2    52  TYR52      -0.2718
     48  CB       -23.0320    5.4040   25.9910 C.3    52  TYR52       0.0548
     49  CG       -22.7500    5.6740   24.5300 C.ar   52  TYR52      -0.0200
     50  CD1      -23.3540    4.9180   23.5340 C.ar   52  TYR52      -0.0009
     51  CD2      -21.9030    6.7080   24.1450 C.ar   52  TYR52      -0.0009
     52  CE1      -23.1080    5.1700   22.1930 C.ar   52  TYR52       0.0417
     53  CE2      -21.6530    6.9690   22.8100 C.ar   52  TYR52       0.0417
     54  CZ       -22.2580    6.1970   21.8380 C.ar   52  TYR52       0.1957
     55  OH       -22.0110    6.4560   20.5080 O.3    52  TYR52      -0.2866
     56  N        -20.5500    4.9340   27.7940 N.am   53  LEU53      -0.1980
     57  CA       -19.1380    5.1180   28.1040 C.3    53  LEU53       0.1596
     58  C        -18.5060    3.8400   28.6510 C.2    53  LEU53       0.2287
     59  O        -17.3320    3.5650   28.4010 O.2    53  LEU53      -0.2864
     60  CB       -18.9530    6.2710   29.0900 C.3    53  LEU53       0.0297
     61  CG       -19.4290    7.6210   28.5520 C.3    53  LEU53       0.0022
     62  CD1      -19.1920    8.7350   29.5610 C.3    53  LEU53       0.0001
     63  CD2      -18.7480    7.9270   27.2240 C.3    53  LEU53       0.0001
     64  N        -16.8710    3.0910   20.2390 N.3   110  LEU110     -0.1245
     65  CA       -15.9750    4.1730   20.6290 C.3   110  LEU110      0.1561
     66  C        -14.5170    3.7230   20.6690 C.2   110  LEU110      0.2260
     67  O        -13.6160    4.5030   20.3700 O.2   110  LEU110     -0.2867
     68  CB       -16.3750    4.7160   22.0010 C.3   110  LEU110      0.0270
     69  CG       -16.8870    6.1510   22.1210 C.3   110  LEU110      0.0019
     70  CD1      -17.9380    6.4430   21.0730 C.3   110  LEU110      0.0001
     71  CD2      -17.4520    6.3740   23.5190 C.3   110  LEU110      0.0001
     72  N        -14.8790   17.0760   17.9130 N.3   141  ALA141     -0.1231
     73  CA       -15.2360   16.6400   19.2580 C.3   141  ALA141      0.1694
     74  C        -15.7330   17.7990   20.1250 C.2   141  ALA141      0.2591
     75  O        -16.4460   17.5860   21.1030 O.2   141  ALA141     -0.2718
     76  CB       -14.0570   15.9480   19.9200 C.3   141  ALA141      0.0304
     77  N        -15.3350   19.0190   19.7750 N.am  142  LEU142     -0.1980
     78  CA       -15.8160   20.2150   20.4610 C.3   142  LEU142      0.1596
     79  C        -17.2090   20.6190   19.9780 C.2   142  LEU142      0.2287
     80  O        -18.0140   21.1500   20.7430 O.2   142  LEU142     -0.2864
     81  CB       -14.8300   21.3700   20.2770 C.3   142  LEU142      0.0297
     82  CG       -13.9080   21.7150   21.4500 C.3   142  LEU142      0.0022
     83  CD1      -13.6810   20.5130   22.3530 C.3   142  LEU142      0.0001
     84  CD2      -12.5820   22.2540   20.9350 C.3   142  LEU142      0.0001
     85  N        -20.7460   18.1960   21.5460 N.3   145  PRO145     -0.2116
     86  CA       -21.5220   18.5030   22.7520 C.3   145  PRO145      0.1372
     87  C        -22.2120   19.8610   22.6790 C.2   145  PRO145      0.2244
     88  O        -23.1200   20.1160   23.4620 O.2   145  PRO145     -0.2868
     89  CB       -20.4610   18.5110   23.8520 C.3   145  PRO145      0.0268
     90  CG       -19.2270   18.9390   23.1600 C.3   145  PRO145      0.0207
     91  CD       -19.2980   18.3140   21.7970 C.3   145  PRO145      0.0892
     92  N        -12.6870   16.3010   34.1750 N.3   223  SER223     -0.1217
     93  CA       -13.6800   16.3390   33.1030 C.3   223  SER223      0.1889
     94  C        -15.0320   15.7740   33.5350 C.2   223  SER223      0.2288
     95  O        -16.0270   15.9260   32.8290 O.2   223  SER223     -0.2866
     96  CB       -13.1690   15.5870   31.8690 C.3   223  SER223      0.2089
     97  OG       -11.9650   16.1600   31.3890 O.3   223  SER223     -0.2183
     98  N        -18.1530   18.1540   33.7500 N.3   226  LEU226     -0.1231
     99  CA       -18.6460   18.4350   32.4090 C.3   226  LEU226      0.1693
    100  C        -19.5000   17.2910   31.8640 C.2   226  LEU226      0.2591
    101  O        -20.5830   17.5200   31.3220 O.2   226  LEU226     -0.2718
    102  CB       -17.4850   18.7270   31.4560 C.3   226  LEU226      0.0284
    103  CG       -17.8920   19.0750   30.0230 C.3   226  LEU226      0.0019
    104  CD1      -18.8730   20.2400   30.0220 C.3   226  LEU226      0.0001
    105  CD2      -16.6650   19.4010   29.1780 C.3   226  LEU226      0.0001
    106  N        -19.0180   16.0620   32.0080 N.am  227  LEU227     -0.1980
    107  CA       -19.7730   14.9090   31.5220 C.3   227  LEU227      0.1596
    108  C        -21.0150   14.6400   32.3740 C.2   227  LEU227      0.2287
    109  O        -22.0380   14.1830   31.8620 O.2   227  LEU227     -0.2864
    110  CB       -18.8910   13.6600   31.4390 C.3   227  LEU227      0.0297
    111  CG       -17.7330   13.7160   30.4370 C.3   227  LEU227      0.0022
    112  CD1      -17.2260   12.3180   30.1140 C.3   227  LEU227      0.0001
    113  CD2      -18.1390   14.4450   29.1700 C.3   227  LEU227      0.0001
    114  N        -23.5870   16.9680   31.0750 N.3   230  ILE230     -0.1245
    115  CA       -24.1410   16.3770   29.8620 C.3   230  ILE230      0.1561
    116  C        -25.1320   15.2570   30.1750 C.2   230  ILE230      0.2260
    117  O        -26.2360   15.2250   29.6310 O.2   230  ILE230     -0.2867
    118  CB       -23.0270   15.8490   28.9400 C.3   230  ILE230      0.0252
    119  CG1      -22.1560   17.0120   28.4630 C.3   230  ILE230      0.0019
    120  CG2      -23.6240   15.1030   27.7560 C.3   230  ILE230      0.0019
    121  CD1      -20.8680   16.5880   27.7930 C.3   230  ILE230      0.0001
    122  N        -20.5510   25.2480   26.6250 N.3   256  PHE256     -0.1241
    123  CA       -19.7030   24.6520   25.5980 C.3   256  PHE256      0.1605
    124  C        -19.0990   25.6940   24.6630 C.2   256  PHE256      0.2264
    125  O        -18.1620   25.4030   23.9220 O.2   256  PHE256     -0.2867
    126  CB       -20.4600   23.5680   24.8330 C.3   256  PHE256      0.0534
    127  CG       -20.8370   22.3980   25.6890 C.ar  256  PHE256     -0.0203
    128  CD1      -19.9060   21.4130   25.9830 C.ar  256  PHE256     -0.0042
    129  CD2      -22.1080   22.2980   26.2320 C.ar  256  PHE256     -0.0042
    130  CE1      -20.2410   20.3420   26.7880 C.ar  256  PHE256     -0.0003
    131  CE2      -22.4500   21.2290   27.0350 C.ar  256  PHE256     -0.0003
    132  CZ       -21.5160   20.2490   27.3150 C.ar  256  PHE256     -0.0000
    133  N        -16.0150   26.2790   26.6760 N.3   259  LEU259     -0.1245
    134  CA       -15.1230   25.1540   26.4230 C.3   259  LEU259      0.1561
    135  C        -14.3280   25.4310   25.1570 C.2   259  LEU259      0.2260
    136  O        -13.1010   25.3240   25.1410 O.2   259  LEU259     -0.2867
    137  CB       -15.9280   23.8670   26.2400 C.3   259  LEU259      0.0270
    138  CG       -15.3430   22.5210   26.6830 C.3   259  LEU259      0.0019
    139  CD1      -15.6670   21.4330   25.6660 C.3   259  LEU259      0.0001
    140  CD2      -13.8490   22.5870   26.9500 C.3   259  LEU259      0.0001
    141  N        -10.2080   26.3470   24.3630 N.3   263  ASN263     -0.1240
    142  CA        -9.3220   25.7000   23.4020 C.3   263  ASN263      0.1653
    143  C         -8.7410   26.6880   22.3980 C.2   263  ASN263      0.2266
    144  O         -7.5820   26.5690   22.0020 O.2   263  ASN263     -0.2867
    145  CB       -10.0480   24.5750   22.6600 C.3   263  ASN263      0.1155
    146  CG       -10.1790   23.3190   23.4950 C.2   263  ASN263      0.2627
    147  OD1       -9.2960   22.4600   23.4840 O.2   263  ASN263     -0.2716
    148  ND2      -11.2860   23.2020   24.2240 N.am  263  ASN263     -0.0877
    149  N        -11.0780   24.1290   31.5450 N.3   318  ILE318     -0.1245
    150  CA       -10.9360   22.8070   30.9500 C.3   318  ILE318      0.1561
    151  C        -10.3700   22.9000   29.5390 C.2   318  ILE318      0.2260
    152  O         -9.4620   22.1520   29.1750 O.2   318  ILE318     -0.2867
    153  CB       -12.2950   22.0750   30.9060 C.3   318  ILE318      0.0252
    154  CG1      -12.7700   21.7720   32.3220 C.3   318  ILE318      0.0019
    155  CG2      -12.1980   20.7960   30.0990 C.3   318  ILE318      0.0019
    156  CD1      -11.7510   21.0250   33.1510 C.3   318  ILE318      0.0001
    157  N         -6.6990   21.0590   29.5960 N.3   322  ASN322     -0.1240
    158  CA        -6.8370   19.6220   29.3350 C.3   322  ASN322      0.1653
    159  C         -5.9300   19.0170   28.2650 C.2   322  ASN322      0.2266
    160  O         -5.3390   17.9570   28.4830 O.2   322  ASN322     -0.2867
    161  CB        -8.2960   19.2490   29.0530 C.3   322  ASN322      0.1155
    162  CG        -9.0100   18.7280   30.2870 C.2   322  ASN322      0.2627
    163  OD1       -8.4810   18.7960   31.3960 O.2   322  ASN322     -0.2716
    164  ND2      -10.2160   18.2030   30.1000 N.am  322  ASN322     -0.0877
    165  N        -12.5420    6.6230   31.6050 N.3   349  MET349     -0.1245
    166  CA       -13.8670    6.0380   31.4490 C.3   349  MET349      0.1570
    167  C        -14.3910    5.4840   32.7690 C.2   349  MET349      0.2261
    168  O        -15.5760    5.6050   33.0720 O.2   349  MET349     -0.2867
    169  CB       -13.8460    4.9260   30.4010 C.3   349  MET349      0.0387
    170  CG       -13.6580    5.3870   28.9650 C.3   349  MET349      0.0595
    171  SD       -14.9800    6.4550   28.3720 S.3   349  MET349     -0.1393
    172  CE       -14.9700    6.0630   26.6230 C.3   349  MET349      0.0692
    173  N        -15.5350    8.3690   34.7370 N.3   352  PHE352     -0.1241
    174  CA       -16.7610    8.8810   34.1380 C.3   352  PHE352      0.1605
    175  C        -17.9470    7.9790   34.4550 C.2   352  PHE352      0.2264
    176  O        -19.0220    8.4530   34.8180 O.2   352  PHE352     -0.2867
    177  CB       -16.6060    9.0070   32.6200 C.3   352  PHE352      0.0534
    178  CG       -15.5650   10.0030   32.1950 C.ar  352  PHE352     -0.0203
    179  CD1      -15.2220   11.0640   33.0200 C.ar  352  PHE352     -0.0042
    180  CD2      -14.9220    9.8730   30.9730 C.ar  352  PHE352     -0.0042
    181  CE1      -14.2640   11.9820   32.6340 C.ar  352  PHE352     -0.0003
    182  CE2      -13.9600   10.7890   30.5780 C.ar  352  PHE352     -0.0003
    183  CZ       -13.6310   11.8450   31.4080 C.ar  352  PHE352     -0.0000
@<TRIPOS>BOND
     1     1     2    1
     2     7     5    1
     3     2     5    1
     4     2     3    1
     5     6     5    1
     6    72    73    1
     7     8     3   am
     8     8     9    1
     9     3     4    2
    10    73    76    1
    11    73    74    1
    12    12     9    1
    13    12    13    1
    14     9    10    1
    15    15    13   ar
    16    15    17   ar
    17    13    14   ar
    18    77    74   am
    19    77    78    1
    20    10    11    2
    21    79    78    1
    22    79    80    2
    23    17    18   ar
    24    74    75    2
    25    14    16   ar
    26    64    65    1
    27    81    78    1
    28    81    82    1
    29    67    66    2
    30    18    16   ar
    31    18    19    1
    32    55    54    1
    33    65    66    1
    34    65    68    1
    35    84    82    1
    36    70    69    1
    37    82    83    1
    38    85    91    1
    39    85    86    1
    40    20    21    1
    41    91    90    1
    42    54    52   ar
    43    54    53   ar
    44    68    69    1
    45   144   143    2
    46    35    33   ar
    47    32    29    1
    48    32    33    1
    49    69    71    1
    50    52    50   ar
    51    30    29    1
    52    30    31    2
    53   143   142    1
    54    28    29    1
    55    28    22   am
    56   145   142    1
    57   145   146    1
    58    87    86    1
    59    87    88    2
    60    33    34   ar
    61    86    89    1
    62    53    51   ar
    63    21    22    1
    64    21    24    1
    65    90    89    1
    66    22    23    2
    67   142   141    1
    68   147   146    2
    69   146   148   am
    70    50    49   ar
    71   125   124    2
    72    24    25    1
    73    51    49   ar
    74    49    48    1
    75   124   123    1
    76   126   123    1
    77   126   127    1
    78   136   135    2
    79   135   134    1
    80    25    27   am
    81    25    26    2
    82   123   122    1
    83   139   138    1
    84   127   128   ar
    85   127   129   ar
    86    47    46    2
    87   128   130   ar
    88    48    45    1
    89   129   131   ar
    90   137   134    1
    91   137   138    1
    92   134   133    1
    93    45    46    1
    94    45    44    1
    95   172   171    1
    96   138   140    1
    97    46    56   am
    98   130   132   ar
    99   131   132   ar
   100    63    61    1
   101   120   118    1
   102   121   119    1
   103    56    57    1
   104    57    58    1
   105    57    60    1
   106   159   160    2
   107   159   158    1
   108   171   170    1
   109    59    58    2
   110   119   118    1
   111    61    60    1
   112    61    62    1
   113   118   115    1
   114   170   169    1
   115    43    42    1
   116    37    36    1
   117    37    40    1
   118    37    38    1
   119   161   158    1
   120   161   162    1
   121    41    42    1
   122    41    40    1
   123   113   111    1
   124   152   151    2
   125   105   103    1
   126    39    38    2
   127   158   157    1
   128   151   150    1
   129   117   116    2
   130   115   116    1
   131   115   114    1
   132   104   103    1
   133   103   102    1
   134   155   153    1
   135   164   162   am
   136   112   111    1
   137   162   163    2
   138   169   166    1
   139   111   110    1
   140   182   180   ar
   141   182   183   ar
   142   153   150    1
   143   153   154    1
   144   150   149    1
   145   180   178   ar
   146   101   100    2
   147    97    96    1
   148   183   181   ar
   149   110   107    1
   150   166   165    1
   151   166   167    1
   152   102    99    1
   153   107   106    1
   154   107   108    1
   155   109   108    2
   156   100   106   am
   157   100    99    1
   158    96    93    1
   159   178   177    1
   160   178   179   ar
   161   154   156    1
   162    99    98    1
   163   177   174    1
   164   181   179   ar
   165   167   168    2
   166    95    94    2
   167    93    94    1
   168    93    92    1
   169   174   175    1
   170   174   173    1
   171   175   176    2
