@<TRIPOS>MOLECULE
tmp/4zp0A00.pdb
 180 168 0 0 0
SMALL
GASTEIGER

@<TRIPOS>ATOM
      1  N        -24.0260   10.3840   18.0610 N.3    22  TYR22      -0.1241
      2  CA       -24.0490   11.4130   19.0940 C.3    22  TYR22       0.1605
      3  C        -25.4630   11.9540   19.3130 C.2    22  TYR22       0.2264
      4  O        -25.9010   12.0910   20.4520 O.2    22  TYR22      -0.2867
      5  CB       -23.0470   12.5380   18.7990 C.3    22  TYR22       0.0534
      6  CG       -21.6200   12.2070   19.2150 C.ar   22  TYR22      -0.0201
      7  CD1      -21.0460   10.9820   18.8900 C.ar   22  TYR22      -0.0009
      8  CD2      -20.8490   13.1190   19.9280 C.ar   22  TYR22      -0.0009
      9  CE1      -19.7430   10.6710   19.2610 C.ar   22  TYR22       0.0417
     10  CE2      -19.5400   12.8140   20.3080 C.ar   22  TYR22       0.0417
     11  CZ       -18.9970   11.5920   19.9680 C.ar   22  TYR22       0.1957
     12  OH       -17.7040   11.2870   20.3370 O.3    22  TYR22      -0.2866
     13  N        -27.7910    9.7990   21.2180 N.3    25  ASN25      -0.1225
     14  CA       -28.0190   10.2360   22.5950 C.3    25  ASN25       0.1785
     15  C        -28.7520   11.5730   22.7710 C.2    25  ASN25       0.2597
     16  O        -29.7280   11.6790   23.5240 O.2    25  ASN25      -0.2718
     17  CB       -26.7090   10.2770   23.3760 C.3    25  ASN25       0.1169
     18  CG       -26.9380   10.4590   24.8510 C.2    25  ASN25       0.2627
     19  OD1      -27.3110    9.5180   25.5430 O.2    25  ASN25      -0.2716
     20  ND2      -26.7470   11.6810   25.3400 N.am   25  ASN25      -0.0877
     21  N        -28.2750   12.5940   22.0630 N.am   26  ASP26      -0.1974
     22  CA       -28.6400   13.9760   22.3830 C.3    26  ASP26       0.1709
     23  C        -30.0280   14.3890   21.8940 C.2    26  ASP26       0.2293
     24  O        -30.6510   15.2710   22.4820 O.2    26  ASP26      -0.2864
     25  CB       -27.5810   14.9610   21.8750 C.3    26  ASP26       0.1436
     26  CG       -26.2310   14.7770   22.5540 C.2    26  ASP26       0.3671
     27  OD1      -26.1660   14.1130   23.6140 O.co2  26  ASP26      -0.2456
     28  OD2      -25.2390   15.3210   22.0340 O.co2  26  ASP26      -0.2456
     29  N        -29.7720    7.2490   28.9800 N.3    50  MET50      -0.1245
     30  CA       -28.4060    7.6760   28.6840 C.3    50  MET50       0.1570
     31  C        -27.3680    6.7860   29.3720 C.2    50  MET50       0.2261
     32  O        -26.3290    6.4710   28.7960 O.2    50  MET50      -0.2867
     33  CB       -28.2090    9.1240   29.1060 C.3    50  MET50       0.0387
     34  CG       -26.8310    9.6830   28.7760 C.3    50  MET50       0.0595
     35  SD       -26.8870   11.4780   28.9180 S.3    50  MET50      -0.1393
     36  CE       -25.1470   11.9230   28.7900 C.3    50  MET50       0.0692
     37  N        -27.0060    3.6870   27.2710 N.3    53  TYR53      -0.1227
     38  CA       -26.3280    3.9910   26.0170 C.3    53  TYR53       0.1736
     39  C        -24.8260    4.0510   26.2590 C.2    53  TYR53       0.2595
     40  O        -24.0440    3.4330   25.5350 O.2    53  TYR53      -0.2718
     41  CB       -26.8140    5.3390   25.4910 C.3    53  TYR53       0.0548
     42  CG       -26.5930    5.5890   24.0150 C.ar   53  TYR53      -0.0200
     43  CD1      -27.1080    4.7290   23.0520 C.ar   53  TYR53      -0.0009
     44  CD2      -25.9120    6.7190   23.5840 C.ar   53  TYR53      -0.0009
     45  CE1      -26.9240    4.9770   21.6940 C.ar   53  TYR53       0.0417
     46  CE2      -25.7250    6.9760   22.2350 C.ar   53  TYR53       0.0417
     47  CZ       -26.2340    6.1060   21.2950 C.ar   53  TYR53       0.1957
     48  OH       -26.0480    6.3760   19.9550 O.3    53  TYR53      -0.2866
     49  N        -24.4400    4.7930   27.2950 N.am   54  LEU54      -0.1980
     50  CA       -23.0330    4.9420   27.6790 C.3    54  LEU54       0.1596
     51  C        -22.3910    3.6200   28.0910 C.2    54  LEU54       0.2287
     52  O        -21.2570    3.3190   27.6970 O.2    54  LEU54      -0.2864
     53  CB       -22.9180    5.9400   28.8310 C.3    54  LEU54       0.0297
     54  CG       -22.7900    7.4120   28.4560 C.3    54  LEU54       0.0022
     55  CD1      -22.9400    8.2780   29.6940 C.3    54  LEU54       0.0001
     56  CD2      -21.4350    7.6400   27.8110 C.3    54  LEU54       0.0001
     57  N        -15.1270   -1.7620   24.0170 N.3    61  GLN61      -0.1245
     58  CA       -14.1090   -0.7180   23.9130 C.3    61  GLN61       0.1566
     59  C        -12.6660   -1.2390   23.9560 C.2    61  GLN61       0.2260
     60  O        -11.8190   -0.8380   23.1580 O.2    61  GLN61      -0.2867
     61  CB       -14.3130    0.2960   25.0410 C.3    61  GLN61       0.0367
     62  CG       -14.5590    1.7130   24.5770 C.3    61  GLN61       0.0905
     63  CD       -13.2990    2.4190   24.1410 C.2    61  GLN61       0.2608
     64  OE1      -12.5420    1.9140   23.3130 O.2    61  GLN61      -0.2717
     65  NE2      -13.0640    3.6010   24.6980 N.am   61  GLN61      -0.0878
     66  N        -20.8960    2.8830   19.8210 N.3   111  LEU111     -0.1231
     67  CA       -20.1140    4.0760   20.1610 C.3   111  LEU111      0.1693
     68  C        -18.6060    3.8890   20.0310 C.2   111  LEU111      0.2592
     69  O        -17.9050    4.7880   19.5780 O.2   111  LEU111     -0.2718
     70  CB       -20.4120    4.5460   21.5890 C.3   111  LEU111      0.0284
     71  CG       -21.4360    5.6550   21.8520 C.3   111  LEU111      0.0019
     72  CD1      -22.0940    6.1380   20.5730 C.3   111  LEU111      0.0001
     73  CD2      -22.4740    5.1850   22.8510 C.3   111  LEU111      0.0001
     74  N        -18.1020    2.7370   20.4540 N.am  112  CYS112     -0.1970
     75  CA       -16.6520    2.5590   20.5310 C.3   112  CYS112      0.1712
     76  C        -15.9810    2.2500   19.1980 C.2   112  CYS112      0.2296
     77  O        -14.7560    2.2580   19.1050 O.2   112  CYS112     -0.2864
     78  CB       -16.2770    1.5040   21.5720 C.3   112  CYS112      0.0983
     79  SG       -17.3410    0.0620   21.5930 S.3   112  CYS112     -0.0798
     80  N        -16.0480    4.1740   16.7490 N.3   114  ILE114     -0.1231
     81  CA       -15.5600    5.4550   16.2590 C.3   114  ILE114      0.1692
     82  C        -14.0840    5.6610   16.5780 C.2   114  ILE114      0.2592
     83  O        -13.2580    5.8010   15.6770 O.2   114  ILE114     -0.2718
     84  CB       -16.3860    6.6270   16.8530 C.3   114  ILE114      0.0266
     85  CG1      -17.8890    6.3660   16.6760 C.3   114  ILE114      0.0019
     86  CG2      -15.9670    7.9490   16.2150 C.3   114  ILE114      0.0020
     87  CD1      -18.8060    7.2600   17.5250 C.3   114  ILE114      0.0001
     88  N        -13.7540    5.6450   17.8630 N.am  115  GLY115     -0.1957
     89  CA       -12.3910    5.8830   18.2970 C.3   115  GLY115      0.1869
     90  C        -11.4480    4.7120   18.0860 C.2   115  GLY115      0.2309
     91  O        -10.3020    4.9010   17.6820 O.2   115  GLY115     -0.2863
     92  N        -18.6150   16.7910   17.7510 N.3   142  ALA142     -0.1245
     93  CA       -18.8810   16.4440   19.1440 C.3   142  ALA142      0.1562
     94  C        -19.3060   17.6620   19.9570 C.2   142  ALA142      0.2260
     95  O        -19.9690   17.5320   20.9860 O.2   142  ALA142     -0.2867
     96  CB       -17.6590   15.7820   19.7730 C.3   142  ALA142      0.0290
     97  N        -24.3810   18.1980   21.3700 N.3   146  PRO146     -0.2116
     98  CA       -25.1760   18.4650   22.5760 C.3   146  PRO146      0.1372
     99  C        -25.9020   19.8060   22.5430 C.2   146  PRO146      0.2244
    100  O        -26.7560   20.0390   23.3960 O.2   146  PRO146     -0.2868
    101  CB       -24.1320   18.4410   23.6990 C.3   146  PRO146      0.0268
    102  CG       -22.8600   18.8360   23.0300 C.3   146  PRO146      0.0207
    103  CD       -22.9320   18.2340   21.6550 C.3   146  PRO146      0.0892
    104  N        -21.7190   17.9590   33.4190 N.3   227  LEU227     -0.1231
    105  CA       -22.2410   18.2630   32.0910 C.3   227  LEU227      0.1693
    106  C        -23.1190   17.1310   31.5600 C.2   227  LEU227      0.2591
    107  O        -24.1980   17.3690   31.0190 O.2   227  LEU227     -0.2718
    108  CB       -21.1000   18.5350   31.1080 C.3   227  LEU227      0.0284
    109  CG       -21.5310   19.0830   29.7400 C.3   227  LEU227      0.0019
    110  CD1      -22.0070   20.5350   29.8430 C.3   227  LEU227      0.0001
    111  CD2      -20.3980   18.9600   28.7260 C.3   227  LEU227      0.0001
    112  N        -22.6580   15.8950   31.7080 N.am  228  LEU228     -0.1980
    113  CA       -23.4270   14.7650   31.1910 C.3   228  LEU228      0.1596
    114  C        -24.6610   14.5210   32.0580 C.2   228  LEU228      0.2287
    115  O        -25.7030   14.0890   31.5650 O.2   228  LEU228     -0.2864
    116  CB       -22.5670   13.4910   31.0980 C.3   228  LEU228      0.0297
    117  CG       -21.2480   13.4940   30.3140 C.3   228  LEU228      0.0022
    118  CD1      -21.0030   12.1260   29.6840 C.3   228  LEU228      0.0001
    119  CD2      -21.1360   14.6060   29.2670 C.3   228  LEU228      0.0001
    120  N        -27.1630   16.7860   30.7320 N.3   231  ILE231     -0.1245
    121  CA       -27.7300   16.2040   29.5120 C.3   231  ILE231      0.1561
    122  C        -28.7450   15.1120   29.8560 C.2   231  ILE231      0.2260
    123  O        -29.8530   15.0830   29.3120 O.2   231  ILE231     -0.2867
    124  CB       -26.6400   15.6270   28.6000 C.3   231  ILE231      0.0252
    125  CG1      -25.7070   16.7400   28.1210 C.3   231  ILE231      0.0019
    126  CG2      -27.2550   14.8930   27.4010 C.3   231  ILE231      0.0019
    127  CD1      -24.5540   16.2380   27.2780 C.3   231  ILE231      0.0001
    128  N         -6.7900   15.7790   28.3000 N.3   327  VAL327     -0.1245
    129  CA        -6.8160   14.5840   27.4550 C.3   327  VAL327      0.1561
    130  C         -5.4100   14.3000   26.9260 C.2   327  VAL327      0.2260
    131  O         -4.9240   13.1700   26.9990 O.2   327  VAL327     -0.2867
    132  CB        -7.8170   14.7180   26.2820 C.3   327  VAL327      0.0252
    133  CG1       -7.6500   13.5640   25.2970 C.3   327  VAL327      0.0019
    134  CG2       -9.2580   14.7810   26.8060 C.3   327  VAL327      0.0019
    135  N         -5.6480    4.8570   25.0520 N.3   342  SER342     -0.1217
    136  CA        -6.9090    5.4880   24.6550 C.3   342  SER342      0.1889
    137  C         -8.1210    4.7200   25.1570 C.2   342  SER342      0.2288
    138  O         -9.0460    5.3030   25.7320 O.2   342  SER342     -0.2866
    139  CB        -7.0070    5.5950   23.1310 C.3   342  SER342      0.2089
    140  OG        -5.9660    6.3920   22.6070 O.3   342  SER342     -0.2183
    141  N         -8.4980    4.9610   28.9570 N.3   345  MET345     -0.1230
    142  CA        -9.0340    6.2090   29.4760 C.3   345  MET345      0.1702
    143  C        -10.5010    6.3910   29.0670 C.2   345  MET345      0.2592
    144  O        -11.2870    6.9470   29.8210 O.2   345  MET345     -0.2718
    145  CB        -8.1540    7.4200   29.1310 C.3   345  MET345      0.0401
    146  CG        -7.7200    7.5460   27.6930 C.3   345  MET345      0.0596
    147  SD        -6.4280    8.8140   27.5340 S.3   345  MET345     -0.1393
    148  CE        -7.3670   10.2860   27.9540 C.3   345  MET345      0.0692
    149  N        -10.8630    5.8840   27.8910 N.am  346  GLY346     -0.1957
    150  CA       -12.2460    5.8650   27.4580 C.3   346  GLY346      0.1869
    151  C        -13.1250    5.0780   28.4140 C.2   346  GLY346      0.2309
    152  O        -14.1890    5.5440   28.8180 O.2   346  GLY346     -0.2863
    153  N        -13.5780    6.7350   31.9270 N.3   349  GLN349     -0.1231
    154  CA       -14.5200    7.8490   31.8530 C.3   349  GLN349      0.1698
    155  C        -15.9600    7.3460   31.8280 C.2   349  GLN349      0.2592
    156  O        -16.8290    7.8470   32.5530 O.2   349  GLN349     -0.2718
    157  CB       -14.2420    8.7080   30.6170 C.3   349  GLN349      0.0381
    158  CG       -12.9940    9.5730   30.7330 C.3   349  GLN349      0.0905
    159  CD       -12.6530   10.2840   29.4340 C.2   349  GLN349      0.2608
    160  OE1      -13.5130   10.8940   28.8000 O.2   349  GLN349     -0.2717
    161  NE2      -11.3960   10.1960   29.0270 N.am  349  GLN349     -0.0878
    162  N        -16.2090    6.3500   30.9860 N.am  350  MET350     -0.1979
    163  CA       -17.5480    5.7950   30.8600 C.3   350  MET350      0.1605
    164  C        -18.0330    5.1420   32.1490 C.2   350  MET350      0.2287
    165  O        -19.2160    5.2320   32.4860 O.2   350  MET350     -0.2864
    166  CB       -17.6170    4.8200   29.6880 C.3   350  MET350      0.0413
    167  CG       -17.6230    5.5340   28.3520 C.3   350  MET350      0.0598
    168  SD       -17.6690    4.4410   26.9260 S.3   350  MET350     -0.1393
    169  CE       -15.9840    3.8430   26.9050 C.3   350  MET350      0.0692
    170  N        -19.1550    8.0030   34.2480 N.3   353  PHE353     -0.1241
    171  CA       -20.3630    8.6170   33.6940 C.3   353  PHE353      0.1605
    172  C        -21.5880    7.7670   33.9960 C.2   353  PHE353      0.2264
    173  O        -22.6280    8.2790   34.4040 O.2   353  PHE353     -0.2867
    174  CB       -20.2470    8.7870   32.1730 C.3   353  PHE353      0.0534
    175  CG       -19.1660    9.7460   31.7370 C.ar  353  PHE353     -0.0203
    176  CD1      -18.6350   10.6700   32.6190 C.ar  353  PHE353     -0.0042
    177  CD2      -18.6890    9.7200   30.4310 C.ar  353  PHE353     -0.0042
    178  CE1      -17.6360   11.5460   32.2130 C.ar  353  PHE353     -0.0003
    179  CE2      -17.6910   10.5940   30.0180 C.ar  353  PHE353     -0.0003
    180  CZ       -17.1640   11.5100   30.9120 C.ar  353  PHE353     -0.0000
@<TRIPOS>BOND
     1    83    82    2
     2    86    84    1
     3    81    82    1
     4    81    80    1
     5    81    84    1
     6    82    88   am
     7    85    84    1
     8    85    87    1
     9    91    90    2
    10    92    93    1
    11    88    89    1
    12     1     2    1
    13    90    89    1
    14     5     2    1
    15     5     6    1
    16     7     6   ar
    17     7     9   ar
    18     2     3    1
    19    77    76    2
    20    93    96    1
    21    93    94    1
    22    76    75    1
    23     6     8   ar
    24     9    11   ar
    25     3     4    2
    26    69    68    2
    27    66    67    1
    28     8    10   ar
    29    48    47    1
    30    94    95    2
    31    11    10   ar
    32    11    12    1
    33    68    67    1
    34    68    74   am
    35    67    70    1
    36    74    75    1
    37    75    78    1
    38    72    71    1
    39    13    14    1
    40    47    45   ar
    41    47    46   ar
    42    97   103    1
    43    97    98    1
    44    78    79    1
    45    70    71    1
    46   103   102    1
    47    45    43   ar
    48    71    73    1
    49    25    22    1
    50    25    26    1
    51    23    22    1
    52    23    24    2
    53    28    26   ar
    54    21    22    1
    55    21    15   am
    56    46    44   ar
    57    99    98    1
    58    99   100    2
    59    26    27   ar
    60    98   101    1
    61    14    15    1
    62    14    17    1
    63   140   139    1
    64    15    16    2
    65   102   101    1
    66    43    42   ar
    67   139   136    1
    68    60    59    2
    69    64    63    2
    70    17    18    1
    71    44    42   ar
    72    58    59    1
    73    58    57    1
    74    58    61    1
    75    42    41    1
    76    63    62    1
    77    63    65   am
    78    62    61    1
    79   136   135    1
    80   136   137    1
    81    18    20   am
    82    18    19    2
    83   137   138    2
    84   133   132    1
    85    41    38    1
    86    40    39    2
    87    38    39    1
    88    38    37    1
    89    39    49   am
    90   132   134    1
    91   132   129    1
    92   169   168    1
    93   168   167    1
    94   130   131    2
    95   130   129    1
    96   127   125    1
    97    49    50    1
    98   126   124    1
    99   129   128    1
   100   150   149    1
   101   150   151    1
   102   147   146    1
   103   147   148    1
   104    50    51    1
   105    50    53    1
   106   146   145    1
   107    52    51    2
   108    56    54    1
   109   149   143   am
   110   125   124    1
   111   167   166    1
   112   151   152    2
   113    54    53    1
   114    54    55    1
   115   124   121    1
   116    30    29    1
   117    30    33    1
   118    30    31    1
   119   111   109    1
   120    34    35    1
   121    34    33    1
   122    36    35    1
   123    32    31    2
   124   160   159    2
   125   141   142    1
   126   161   159   am
   127   143   142    1
   128   143   144    2
   129   145   142    1
   130   119   117    1
   131   123   122    2
   132   159   158    1
   133   121   122    1
   134   121   120    1
   135   118   117    1
   136   166   163    1
   137   109   110    1
   138   109   108    1
   139   179   177   ar
   140   179   180   ar
   141   117   116    1
   142   177   175   ar
   143   157   158    1
   144   157   154    1
   145   163   162    1
   146   163   164    1
   147   180   178   ar
   148   162   155   am
   149   107   106    2
   150   116   113    1
   151   108   105    1
   152   113   112    1
   153   113   114    1
   154   106   112   am
   155   106   105    1
   156   115   114    2
   157   175   174    1
   158   175   176   ar
   159   155   154    1
   160   155   156    2
   161   154   153    1
   162   105   104    1
   163   164   165    2
   164   174   171    1
   165   178   176   ar
   166   171   172    1
   167   171   170    1
   168   172   173    2
