@<TRIPOS>MOLECULE
tmp/4zp2A00.pdb
 166 155 0 0 0
SMALL
GASTEIGER

@<TRIPOS>ATOM
      1  N        -18.6670   11.1390   19.7720 N.3    22  TYR22      -0.1241
      2  CA       -18.7140   12.1680   20.8050 C.3    22  TYR22       0.1605
      3  C        -20.1190   12.7410   20.9900 C.2    22  TYR22       0.2264
      4  O        -20.6030   12.8490   22.1200 O.2    22  TYR22      -0.2867
      5  CB       -17.7040   13.2880   20.5290 C.3    22  TYR22       0.0534
      6  CG       -16.2690   12.9240   20.8590 C.ar   22  TYR22      -0.0201
      7  CD1      -15.8810   11.5960   21.0200 C.ar   22  TYR22      -0.0009
      8  CD2      -15.3040   13.9110   21.0240 C.ar   22  TYR22      -0.0009
      9  CE1      -14.5770   11.2640   21.3240 C.ar   22  TYR22       0.0417
     10  CE2      -13.9940   13.5860   21.3290 C.ar   22  TYR22       0.0417
     11  CZ       -13.6370   12.2630   21.4760 C.ar   22  TYR22       0.1957
     12  OH       -12.3380   11.9360   21.7770 O.3    22  TYR22      -0.2866
     13  N        -22.4120   10.5890   22.7830 N.3    25  ASN25      -0.1225
     14  CA       -22.6740   11.0470   24.1440 C.3    25  ASN25       0.1785
     15  C        -23.4320   12.3830   24.2830 C.2    25  ASN25       0.2597
     16  O        -24.4380   12.4660   24.9860 O.2    25  ASN25      -0.2718
     17  CB       -21.3730   11.1230   24.9450 C.3    25  ASN25       0.1169
     18  CG       -21.6220   11.3180   26.4210 C.2    25  ASN25       0.2627
     19  OD1      -22.0230   10.3860   27.1190 O.2    25  ASN25      -0.2716
     20  ND2      -21.4100   12.5380   26.9040 N.am   25  ASN25      -0.0877
     21  N        -22.9710   13.4110   23.5730 N.am   26  ASP26      -0.1974
     22  CA       -23.3490   14.7890   23.9040 C.3    26  ASP26       0.1709
     23  C        -24.7650   15.1990   23.4850 C.2    26  ASP26       0.2293
     24  O        -25.4010   16.0130   24.1650 O.2    26  ASP26      -0.2864
     25  CB       -22.3320   15.7910   23.3590 C.3    26  ASP26       0.1436
     26  CG       -20.9430   15.6010   23.9470 C.2    26  ASP26       0.3671
     27  OD1      -20.8120   15.0180   25.0470 O.co2  26  ASP26      -0.2456
     28  OD2      -19.9740   16.0440   23.3000 O.co2  26  ASP26      -0.2456
     29  N        -24.5220    8.0630   30.5220 N.3    50  MET50      -0.1245
     30  CA       -23.1750    8.5260   30.2200 C.3    50  MET50       0.1570
     31  C        -22.1070    7.6900   30.9380 C.2    50  MET50       0.2261
     32  O        -21.0300    7.4430   30.3970 O.2    50  MET50      -0.2867
     33  CB       -23.0450    9.9970   30.6020 C.3    50  MET50       0.0387
     34  CG       -21.6720   10.5840   30.3370 C.3    50  MET50       0.0595
     35  SD       -21.7580   12.3710   30.4160 S.3    50  MET50      -0.1393
     36  CE       -20.0410   12.8500   30.2310 C.3    50  MET50       0.0692
     37  N        -21.7310    4.5150   28.9190 N.3    53  TYR53      -0.1227
     38  CA       -21.0300    4.8790   27.6980 C.3    53  TYR53       0.1736
     39  C        -19.5200    4.9870   27.9310 C.2    53  TYR53       0.2595
     40  O        -18.7260    4.4040   27.1900 O.2    53  TYR53      -0.2718
     41  CB       -21.5770    6.2090   27.1810 C.3    53  TYR53       0.0548
     42  CG       -21.3300    6.4650   25.7190 C.ar   53  TYR53      -0.0200
     43  CD1      -21.9210    5.6670   24.7430 C.ar   53  TYR53      -0.0009
     44  CD2      -20.5360    7.5320   25.3060 C.ar   53  TYR53      -0.0009
     45  CE1      -21.7000    5.9080   23.3910 C.ar   53  TYR53       0.0417
     46  CE2      -20.3200    7.7840   23.9690 C.ar   53  TYR53       0.0417
     47  CZ       -20.9000    6.9700   23.0130 C.ar   53  TYR53       0.1957
     48  OH       -20.6780    7.2300   21.6800 O.3    53  TYR53      -0.2866
     49  N        -19.1300    5.7220   28.9680 N.am   54  LEU54      -0.1980
     50  CA       -17.7090    5.9190   29.2730 C.3    54  LEU54       0.1596
     51  C        -17.0470    4.6680   29.8570 C.2    54  LEU54       0.2287
     52  O        -15.8390    4.4630   29.6920 O.2    54  LEU54      -0.2864
     53  CB       -17.5240    7.1010   30.2260 C.3    54  LEU54       0.0297
     54  CG       -18.0410    8.4510   29.7250 C.3    54  LEU54       0.0022
     55  CD1      -17.8940    9.5070   30.8100 C.3    54  LEU54       0.0001
     56  CD2      -17.3120    8.8620   28.4490 C.3    54  LEU54       0.0001
     57  N        -15.5030    3.8410   21.4160 N.3   111  LEU111     -0.1245
     58  CA       -14.6050    4.9320   21.7900 C.3   111  LEU111      0.1561
     59  C        -13.1400    4.4910   21.8020 C.2   111  LEU111      0.2260
     60  O        -12.2490    5.2740   21.4790 O.2   111  LEU111     -0.2867
     61  CB       -14.9540    5.4640   23.1830 C.3   111  LEU111      0.0270
     62  CG       -15.8910    6.6480   23.4430 C.3   111  LEU111      0.0019
     63  CD1      -16.2780    7.3890   22.1710 C.3   111  LEU111      0.0001
     64  CD2      -17.1120    6.2030   24.2280 C.3   111  LEU111      0.0001
     65  N        -13.3290   17.7500   19.6900 N.3   142  ALA142     -0.1231
     66  CA       -13.6450   17.4790   21.0810 C.3   142  ALA142      0.1694
     67  C        -14.1580   18.7260   21.7980 C.2   142  ALA142      0.2591
     68  O        -14.7870   18.6270   22.8450 O.2   142  ALA142     -0.2718
     69  CB       -12.4180   16.9130   21.7960 C.3   142  ALA142      0.0304
     70  N        -13.8380   19.8960   21.2560 N.am  143  LEU143     -0.1980
     71  CA       -14.3270   21.1700   21.7830 C.3   143  LEU143      0.1596
     72  C        -15.7430   21.4830   21.2960 C.2   143  LEU143      0.2287
     73  O        -16.5900   21.9540   22.0540 O.2   143  LEU143     -0.2864
     74  CB       -13.3680   22.3020   21.3830 C.3   143  LEU143      0.0297
     75  CG       -12.4210   22.9250   22.4210 C.3   143  LEU143      0.0022
     76  CD1      -12.0930   21.9890   23.5770 C.3   143  LEU143      0.0001
     77  CD2      -11.1400   23.3900   21.7380 C.3   143  LEU143      0.0001
     78  N        -19.2230   18.9230   22.6820 N.3   146  PRO146     -0.2116
     79  CA       -19.9750   19.2310   23.9070 C.3   146  PRO146      0.1372
     80  C        -20.7070   20.5660   23.8460 C.2   146  PRO146      0.2244
     81  O        -21.5790   20.8050   24.6690 O.2   146  PRO146     -0.2868
     82  CB       -18.8900   19.2660   24.9920 C.3   146  PRO146      0.0268
     83  CG       -17.6280   19.5960   24.2590 C.3   146  PRO146      0.0207
     84  CD       -17.7660   18.9210   22.9230 C.3   146  PRO146      0.0892
     85  N        -11.2000   17.0560   35.3030 N.3   224  SER224     -0.1217
     86  CA       -12.2470   17.1120   34.2800 C.3   224  SER224      0.1889
     87  C        -13.5890   16.5510   34.7430 C.2   224  SER224      0.2288
     88  O        -14.5940   16.6750   34.0420 O.2   224  SER224     -0.2866
     89  CB       -11.8030   16.3790   33.0060 C.3   224  SER224      0.2089
     90  OG       -10.7360   17.0610   32.3780 O.3   224  SER224     -0.2183
     91  N        -16.6460   18.9770   34.9350 N.3   227  LEU227     -0.1231
     92  CA       -17.1430   19.2560   33.5960 C.3   227  LEU227      0.1693
     93  C        -18.0190   18.1110   33.0690 C.2   227  LEU227      0.2591
     94  O        -19.1100   18.3410   32.5480 O.2   227  LEU227     -0.2718
     95  CB       -15.9760   19.5090   32.6340 C.3   227  LEU227      0.0284
     96  CG       -16.3830   20.0410   31.2570 C.3   227  LEU227      0.0019
     97  CD1      -17.0090   21.4350   31.3770 C.3   227  LEU227      0.0001
     98  CD2      -15.1960   20.0580   30.3020 C.3   227  LEU227      0.0001
     99  N        -17.5340   16.8810   33.2000 N.am  228  LEU228     -0.1980
    100  CA       -18.2650   15.7220   32.7030 C.3   228  LEU228      0.1596
    101  C        -19.5130   15.4360   33.5290 C.2   228  LEU228      0.2287
    102  O        -20.5230   14.9730   32.9920 O.2   228  LEU228     -0.2864
    103  CB       -17.3660   14.4740   32.6500 C.3   228  LEU228      0.0297
    104  CG       -16.2240   14.4250   31.6230 C.3   228  LEU228      0.0022
    105  CD1      -15.9530   12.9900   31.1660 C.3   228  LEU228      0.0001
    106  CD2      -16.4900   15.3280   30.4330 C.3   228  LEU228      0.0001
    107  N        -22.0260   17.7160   32.2440 N.3   231  ILE231     -0.1245
    108  CA       -22.5850   17.1540   31.0160 C.3   231  ILE231      0.1561
    109  C        -23.6170   16.0590   31.3220 C.2   231  ILE231      0.2260
    110  O        -24.7150   16.0520   30.7590 O.2   231  ILE231     -0.2867
    111  CB       -21.4860   16.6260   30.0830 C.3   231  ILE231      0.0252
    112  CG1      -20.6520   17.7970   29.5530 C.3   231  ILE231      0.0019
    113  CG2      -22.0870   15.8130   28.9290 C.3   231  ILE231      0.0019
    114  CD1      -19.4220   17.3640   28.7730 C.3   231  ILE231      0.0001
    115  N        -14.5320   27.1210   27.7950 N.3   260  LEU260     -0.1245
    116  CA       -13.6100   26.0240   27.5160 C.3   260  LEU260      0.1561
    117  C        -12.8340   26.3620   26.2540 C.2   260  LEU260      0.2260
    118  O        -11.6120   26.2530   26.2170 O.2   260  LEU260     -0.2867
    119  CB       -14.3780   24.7160   27.2950 C.3   260  LEU260      0.0270
    120  CG       -13.8510   23.3640   27.7980 C.3   260  LEU260      0.0019
    121  CD1      -14.3110   22.2240   26.8830 C.3   260  LEU260      0.0001
    122  CD2      -12.3420   23.3230   27.9970 C.3   260  LEU260      0.0001
    123  N         -9.5560   24.9130   32.7120 N.3   319  ILE319     -0.1245
    124  CA        -9.4030   23.6070   32.0730 C.3   319  ILE319      0.1561
    125  C         -8.8550   23.7530   30.6680 C.2   319  ILE319      0.2260
    126  O         -7.8830   23.0940   30.3030 O.2   319  ILE319     -0.2867
    127  CB       -10.7610   22.8570   31.9830 C.3   319  ILE319      0.0252
    128  CG1      -11.2570   22.4810   33.3750 C.3   319  ILE319      0.0019
    129  CG2      -10.6420   21.6250   31.1040 C.3   319  ILE319      0.0019
    130  CD1      -10.2250   21.7600   34.2100 C.3   319  ILE319      0.0001
    131  N         -5.2460   21.9000   30.5980 N.3   323  ASN323     -0.1240
    132  CA        -5.3590   20.4670   30.3280 C.3   323  ASN323      0.1653
    133  C         -4.4200   19.8620   29.2940 C.2   323  ASN323      0.2266
    134  O         -3.8500   18.7950   29.5310 O.2   323  ASN323     -0.2867
    135  CB        -6.8040   20.0820   30.0060 C.3   323  ASN323      0.1155
    136  CG        -7.5460   19.5980   31.2270 C.2   323  ASN323      0.2627
    137  OD1       -7.1200   19.8410   32.3600 O.2   323  ASN323     -0.2716
    138  ND2       -8.6580   18.9070   31.0130 N.am  323  ASN323     -0.0877
    139  N         -8.4740    7.8070   33.6920 N.3   349  GLN349     -0.1231
    140  CA        -9.4450    8.8880   33.5630 C.3   349  GLN349      0.1698
    141  C        -10.8710    8.3600   33.5550 C.2   349  GLN349      0.2592
    142  O        -11.7140    8.8290   34.3230 O.2   349  GLN349     -0.2718
    143  CB        -9.2070    9.6770   32.2720 C.3   349  GLN349      0.0381
    144  CG        -8.0980   10.7040   32.3520 C.3   349  GLN349      0.0905
    145  CD        -7.7450   11.2770   30.9910 C.2   349  GLN349      0.2608
    146  OE1       -8.6040   11.4040   30.1150 O.2   349  GLN349     -0.2717
    147  NE2       -6.4750   11.6150   30.8040 N.am  349  GLN349     -0.0878
    148  N        -11.1330    7.3990   32.6680 N.am  350  MET350     -0.1979
    149  CA       -12.4580    6.7980   32.5400 C.3   350  MET350      0.1605
    150  C        -12.9190    6.2110   33.8640 C.2   350  MET350      0.2287
    151  O        -14.1010    6.2860   34.2040 O.2   350  MET350     -0.2864
    152  CB       -12.4680    5.6970   31.4720 C.3   350  MET350      0.0413
    153  CG       -12.2740    6.1640   30.0370 C.3   350  MET350      0.0598
    154  SD       -13.4890    7.3780   29.4920 S.3   350  MET350     -0.1393
    155  CE       -13.6760    6.8990   27.7730 C.3   350  MET350      0.0692
    156  N        -14.0890    9.1230   35.8900 N.3   353  PHE353     -0.1241
    157  CA       -15.2880    9.7070   35.2970 C.3   353  PHE353      0.1605
    158  C        -16.5230    8.8770   35.6110 C.2   353  PHE353      0.2264
    159  O        -17.5380    9.4020   36.0690 O.2   353  PHE353     -0.2867
    160  CB       -15.1440    9.8280   33.7780 C.3   353  PHE353      0.0534
    161  CG       -14.0890   10.8010   33.3420 C.ar  353  PHE353     -0.0203
    162  CD1      -13.6950   11.8380   34.1750 C.ar  353  PHE353     -0.0042
    163  CD2      -13.4920   10.6810   32.0930 C.ar  353  PHE353     -0.0042
    164  CE1      -12.7230   12.7400   33.7730 C.ar  353  PHE353     -0.0003
    165  CE2      -12.5200   11.5760   31.6830 C.ar  353  PHE353     -0.0003
    166  CZ       -12.1310   12.6070   32.5220 C.ar  353  PHE353     -0.0000
@<TRIPOS>BOND
     1    65    66    1
     2     1     2    1
     3     5     2    1
     4     5     6    1
     5     2     3    1
     6     6     7   ar
     7     6     8   ar
     8     3     4    2
     9     7     9   ar
    10     8    10   ar
    11    66    69    1
    12    66    67    1
    13    70    71    1
    14    70    67   am
    15    72    71    1
    16    72    73    2
    17     9    11   ar
    18    10    11   ar
    19    74    71    1
    20    74    75    1
    21    57    58    1
    22    11    12    1
    23    60    59    2
    24    48    47    1
    25    77    75    1
    26    58    59    1
    27    58    61    1
    28    67    68    2
    29    63    62    1
    30    75    76    1
    31    78    84    1
    32    78    79    1
    33    13    14    1
    34    84    83    1
    35    47    45   ar
    36    47    46   ar
    37    61    62    1
    38    28    26   ar
    39    25    22    1
    40    25    26    1
    41    45    43   ar
    42    62    64    1
    43    23    22    1
    44    23    24    2
    45    21    22    1
    46    21    15   am
    47    80    79    1
    48    80    81    2
    49    79    82    1
    50    26    27   ar
    51    46    44   ar
    52    14    15    1
    53    14    17    1
    54    83    82    1
    55    15    16    2
    56    43    42   ar
    57    17    18    1
    58    44    42   ar
    59    42    41    1
    60   118   117    2
    61   117   116    1
    62    18    20   am
    63    18    19    2
    64   121   120    1
    65    41    38    1
    66    40    39    2
    67   119   116    1
    68   119   120    1
    69   116   115    1
    70    38    39    1
    71    38    37    1
    72   155   154    1
    73   120   122    1
    74    39    49   am
    75    56    54    1
    76   114   112    1
    77   113   111    1
    78    49    50    1
    79    50    51    1
    80    50    53    1
    81   133   134    2
    82   133   132    1
    83   154   153    1
    84   112   111    1
    85    52    51    2
    86    54    53    1
    87    54    55    1
    88   135   132    1
    89   135   136    1
    90   153   152    1
    91   111   108    1
    92   146   145    2
    93    30    29    1
    94    30    33    1
    95    30    31    1
    96    36    35    1
    97    98    96    1
    98   126   125    2
    99   132   131    1
   100    34    35    1
   101    34    33    1
   102    32    31    2
   103   106   104    1
   104   125   124    1
   105   110   109    2
   106   147   145   am
   107   145   144    1
   108   138   136   am
   109   108   109    1
   110   108   107    1
   111   129   127    1
   112   105   104    1
   113   136   137    2
   114    96    97    1
   115    96    95    1
   116   152   149    1
   117   104   103    1
   118   165   163   ar
   119   165   166   ar
   120   127   124    1
   121   127   128    1
   122   124   123    1
   123   163   161   ar
   124   143   144    1
   125   143   140    1
   126    90    89    1
   127   166   164   ar
   128   149   148    1
   129   149   150    1
   130    94    93    2
   131    95    92    1
   132   103   100    1
   133   148   141   am
   134   100    99    1
   135   100   101    1
   136   102   101    2
   137    89    86    1
   138    93    99   am
   139    93    92    1
   140   161   160    1
   141   161   162   ar
   142   128   130    1
   143   141   140    1
   144   141   142    2
   145   140   139    1
   146    92    91    1
   147   164   162   ar
   148   160   157    1
   149   150   151    2
   150    88    87    2
   151    86    87    1
   152    86    85    1
   153   157   158    1
   154   157   156    1
   155   158   159    2
