@<TRIPOS>MOLECULE
tmp/4zp5A00.pdb
 133 125 0 0 0
SMALL
GASTEIGER

@<TRIPOS>ATOM
      1  N         80.1270   50.6420   25.0830 N.3    18  VAL18      -0.1231
      2  CA        78.7440   50.2870   24.7880 C.3    18  VAL18       0.1692
      3  C         78.5980   48.8070   24.3910 C.2    18  VAL18       0.2592
      4  O         79.4340   48.2530   23.6550 O.2    18  VAL18      -0.2718
      5  CB        78.0070   51.2970   23.8680 C.3    18  VAL18       0.0266
      6  CG1       78.3170   51.0690   22.3900 C.3    18  VAL18       0.0020
      7  CG2       76.5040   51.2770   24.1260 C.3    18  VAL18       0.0020
      8  N         77.5450   48.1910   24.9190 N.am   19  GLY19      -0.1957
      9  CA        77.2560   46.7790   24.7310 C.3    19  GLY19       0.1869
     10  C         78.0770   45.9810   25.7190 C.2    19  GLY19       0.2309
     11  O         77.7260   45.9160   26.9010 O.2    19  GLY19      -0.2863
     12  N         81.0020   45.6000   19.2490 N.3    23  TYR23      -0.1241
     13  CA        81.3980   46.6580   18.3250 C.3    23  TYR23       0.1605
     14  C         82.8760   47.0230   18.4910 C.2    23  TYR23       0.2264
     15  O         83.4470   47.6950   17.6300 O.2    23  TYR23      -0.2867
     16  CB        80.4900   47.8830   18.5360 C.3    23  TYR23       0.0534
     17  CG        79.0280   47.5340   18.7060 C.ar   23  TYR23      -0.0201
     18  CD1       78.4200   47.5790   19.9570 C.ar   23  TYR23      -0.0009
     19  CD2       78.2540   47.1400   17.6180 C.ar   23  TYR23      -0.0009
     20  CE1       77.0770   47.2390   20.1210 C.ar   23  TYR23       0.0417
     21  CE2       76.9110   46.8040   17.7680 C.ar   23  TYR23       0.0417
     22  CZ        76.3260   46.8530   19.0210 C.ar   23  TYR23       0.1957
     23  OH        75.0020   46.5170   19.1570 O.3    23  TYR23      -0.2866
     24  N         83.7630   51.0160   20.9680 N.3    26  VAL26      -0.1245
     25  CA        82.6100   51.8880   20.7620 C.3    26  VAL26       0.1561
     26  C         82.0820   52.2040   22.1500 C.2    26  VAL26       0.2260
     27  O         81.8270   51.2970   22.9520 O.2    26  VAL26      -0.2867
     28  CB        81.5380   51.3230   19.7930 C.3    26  VAL26       0.0252
     29  CG1       80.3610   52.2910   19.6570 C.3    26  VAL26       0.0019
     30  CG2       82.1460   51.0500   18.4190 C.3    26  VAL26       0.0019
     31  N         77.1040   57.6410   20.5120 N.3    39  ALA39      -0.1245
     32  CA        77.8990   56.4320   20.4240 C.3    39  ALA39       0.1562
     33  C         79.2290   56.9000   19.8340 C.2    39  ALA39       0.2260
     34  O         79.2530   57.4980   18.7540 O.2    39  ALA39      -0.2867
     35  CB        77.2250   55.4170   19.5110 C.3    39  ALA39       0.0290
     36  N         82.8530   55.9020   18.4390 N.3    41  LYS41      -0.1245
     37  CA        83.7530   54.8960   17.8920 C.3    41  LYS41       0.1561
     38  C         85.1690   55.4680   17.9910 C.2    41  LYS41       0.2260
     39  O         85.4670   56.5290   17.4280 O.2    41  LYS41      -0.2867
     40  CB        83.3720   54.5280   16.4430 C.3    41  LYS41       0.0271
     41  CG        84.0480   53.2560   15.9380 C.3    41  LYS41       0.0035
     42  CD        83.6680   52.9460   14.4960 C.3    41  LYS41       0.0206
     43  CE        84.2320   51.6230   14.0370 C.3    41  LYS41       0.1093
     44  NZ        83.8390   51.3140   12.6370 N.3    41  LYS41      -0.1314
     45  N         71.8900   54.9250   11.7280 N.3    70  ALA70      -0.1245
     46  CA        72.2480   55.7750   12.8760 C.3    70  ALA70       0.1562
     47  C         73.0590   56.9720   12.3750 C.2    70  ALA70       0.2260
     48  O         74.0440   56.7880   11.6630 O.2    70  ALA70      -0.2867
     49  CB        73.0420   54.9830   13.9030 C.3    70  ALA70       0.0290
     50  N         78.4650   59.2720   16.7120 N.3    92  MET92      -0.1230
     51  CA        77.2250   58.9010   16.0550 C.3    92  MET92       0.1702
     52  C         76.0820   58.8710   17.0300 C.2    92  MET92       0.2595
     53  O         76.2970   58.9790   18.2400 O.2    92  MET92      -0.2718
     54  CB        77.3690   57.5350   15.3870 C.3    92  MET92       0.0401
     55  CG        78.1030   57.5860   14.0830 C.3    92  MET92       0.0596
     56  SD        79.0120   56.0590   13.8910 S.3    92  MET92      -0.1393
     57  CE        80.4600   56.6820   13.1940 C.3    92  MET92       0.0692
     58  N         74.8620   58.7030   16.4910 N.am   93  GLU93      -0.1920
     59  CA        73.6100   58.6090   17.2080 C.3    93  GLU93       0.1949
     60  C         73.6270   57.4240   18.1750 C.2    93  GLU93       0.2659
     61  O         74.0290   56.3190   17.7950 O.2    93  GLU93      -0.2711
     62  CB        72.4800   58.4560   16.1800 C.2    93  GLU93       0.0111
     63  CG        71.0770   58.4550   16.7560 C.2    93  GLU93       0.0838
     64  CD        69.9620   58.1840   15.7660 C.2    93  GLU93       0.3877
     65  OE1       68.7950   58.1070   16.2120 O.co2  93  GLU93      -0.2406
     66  OE2       70.2350   58.0910   14.5470 O.co2  93  GLU93      -0.2406
     67  N         73.2160   57.6700   19.4270 N.am   94  PHE94      -0.1957
     68  CA        73.1130   56.6380   20.4570 C.3    94  PHE94       0.1771
     69  C         71.7120   56.0150   20.3820 C.2    94  PHE94       0.2620
     70  O         70.7070   56.7250   20.4890 O.2    94  PHE94      -0.2715
     71  CB        73.3670   57.2300   21.8610 C.3    94  PHE94       0.0574
     72  CG        73.5150   56.1980   22.9550 C.ar   94  PHE94      -0.0200
     73  CD1       74.6990   55.4880   23.1070 C.ar   94  PHE94      -0.0042
     74  CD2       72.4700   55.9340   23.8320 C.ar   94  PHE94      -0.0042
     75  CE1       74.8310   54.5230   24.1100 C.ar   94  PHE94      -0.0003
     76  CE2       72.6060   54.9720   24.8400 C.ar   94  PHE94      -0.0003
     77  CZ        73.7830   54.2680   24.9670 C.ar   94  PHE94      -0.0000
     78  N         71.6440   54.7060   20.1530 N.am   95  CYS95      -0.1954
     79  CA        70.3690   53.9920   20.0480 C.3    95  CYS95       0.1843
     80  C         70.1290   53.2510   21.3560 C.2    95  CYS95       0.2626
     81  O         70.4570   52.0720   21.4740 O.2    95  CYS95      -0.2714
     82  CB        70.3730   53.0630   18.8390 C.3    95  CYS95       0.0997
     83  SG        70.8330   53.8780   17.2820 S.3    95  CYS95      -0.0797
     84  N         69.6110   54.0020   22.3340 N.am   96  GLY96      -0.1940
     85  CA        69.3550   53.6230   23.7240 C.3    96  GLY96       0.2014
     86  C         68.6680   52.3030   24.0160 C.2    96  GLY96       0.2639
     87  O         69.0080   51.6430   25.0050 O.2    96  GLY96      -0.2714
     88  N         67.6950   51.9050   23.1720 N.am   97  ALA97      -0.1963
     89  CA        66.9630   50.6440   23.3560 C.3    97  ALA97       0.1728
     90  C         67.7830   49.4020   22.9560 C.2    97  ALA97       0.2617
     91  O         67.2970   48.2780   23.0540 O.2    97  ALA97      -0.2715
     92  CB        65.6400   50.6900   22.6180 C.3    97  ALA97       0.0334
     93  N         69.0320   49.6130   22.5460 N.am   98  GLY98      -0.1940
     94  CA        69.9440   48.5300   22.2090 C.3    98  GLY98       0.2014
     95  C         69.6280   47.7820   20.9320 C.2    98  GLY98       0.2639
     96  O         68.7950   48.2130   20.1260 O.2    98  GLY98      -0.2714
     97  N         70.3020   46.6360   20.7560 N.am   99  SER99      -0.1949
     98  CA        70.1900   45.8070   19.5640 C.3    99  SER99       0.1924
     99  C         68.9530   44.9270   19.5230 C.2    99  SER99       0.2314
    100  O         68.2660   44.7550   20.5280 O.2    99  SER99      -0.2863
    101  CB        71.4530   44.9720   19.3710 C.3    99  SER99       0.2116
    102  OG        71.5390   43.9230   20.3190 O.3    99  SER99      -0.2180
    103  N         69.4150   41.8160   21.7110 N.3   102  ASP102     -0.1239
    104  CA        69.0240   42.0800   23.0950 C.3   102  ASP102      0.1674
    105  C         67.5060   41.9880   23.2260 C.2   102  ASP102      0.2266
    106  O         67.0160   41.4570   24.2240 O.2   102  ASP102     -0.2867
    107  CB        69.5110   43.4690   23.5520 C.3   102  ASP102      0.1410
    108  CG        71.0140   43.6610   23.5860 C.2   102  ASP102      0.3668
    109  OD1       71.7290   42.6950   23.9350 O.co2 102  ASP102     -0.2456
    110  OD2       71.4760   44.8000   23.3150 O.co2 102  ASP102     -0.2456
    111  N         69.7940   48.3070   15.5380 N.3   147  LEU147     -0.1245
    112  CA        69.4560   48.8930   16.8360 C.3   147  LEU147      0.1561
    113  C         68.1360   49.6260   16.8830 C.2   147  LEU147      0.2260
    114  O         67.5910   50.0250   15.8530 O.2   147  LEU147     -0.2867
    115  CB        70.5850   49.8020   17.3770 C.3   147  LEU147      0.0270
    116  CG        72.0340   49.4800   17.0270 C.3   147  LEU147      0.0019
    117  CD1       72.9120   50.6200   17.4100 C.3   147  LEU147      0.0001
    118  CD2       72.5190   48.2490   17.7370 C.3   147  LEU147      0.0001
    119  N         73.8300   49.9310   11.8110 N.3   157  VAL157     -0.1231
    120  CA        75.1630   50.3930   12.2220 C.3   157  VAL157      0.1692
    121  C         76.2700   49.5130   11.6370 C.2   157  VAL157      0.2592
    122  O         76.0130   48.3700   11.2410 O.2   157  VAL157     -0.2718
    123  CB        75.3340   50.5490   13.7630 C.3   157  VAL157      0.0266
    124  CG1       74.4770   51.6840   14.3070 C.3   157  VAL157      0.0020
    125  CG2       75.0700   49.2370   14.5130 C.3   157  VAL157      0.0020
    126  N         77.5070   50.0590   11.6070 N.am  158  ASP158     -0.1974
    127  CA        78.7390   49.3910   11.1790 C.3   158  ASP158      0.1709
    128  C         78.7490   48.8540    9.7260 C.2   158  ASP158      0.2293
    129  O         78.9050   47.6540    9.5040 O.2   158  ASP158     -0.2864
    130  CB        79.1490   48.3260   12.2310 C.3   158  ASP158      0.1436
    131  CG        80.5660   47.8120   12.1120 C.2   158  ASP158      0.3671
    132  OD1       81.5080   48.6340   12.2100 O.co2 158  ASP158     -0.2456
    133  OD2       80.7370   46.5840   11.9400 O.co2 158  ASP158     -0.2456
@<TRIPOS>BOND
     1   129   128    2
     2   128   127    1
     3   127   126    1
     4   127   130    1
     5   122   121    2
     6   126   121   am
     7   121   120    1
     8    48    47    2
     9    45    46    1
    10   119   120    1
    11   133   131   ar
    12   131   132   ar
    13   131   130    1
    14   120   123    1
    15    47    46    1
    16    44    43    1
    17    46    49    1
    18    57    56    1
    19   123   124    1
    20   123   125    1
    21    56    55    1
    22    43    42    1
    23    55    54    1
    24    42    41    1
    25    66    64   ar
    26    54    51    1
    27   111   112    1
    28    64    65   ar
    29    64    63    1
    30   114   113    2
    31    41    40    1
    32    51    50    1
    33    51    52    1
    34    62    63    2
    35    62    59    1
    36    40    37    1
    37    58    52   am
    38    58    59    1
    39   112   113    1
    40   112   115    1
    41   116   115    1
    42   116   117    1
    43   116   118    1
    44    52    53    2
    45    59    60    1
    46    83    82    1
    47    39    38    2
    48    19    21   ar
    49    19    17   ar
    50    15    14    2
    51    21    22   ar
    52    61    60    2
    53    37    38    1
    54    37    36    1
    55    60    67   am
    56    13    14    1
    57    13    16    1
    58    13    12    1
    59    30    28    1
    60    16    17    1
    61    17    18   ar
    62    34    33    2
    63    82    79    1
    64    22    23    1
    65    22    20   ar
    66   101    98    1
    67   101   102    1
    68    67    68    1
    69    35    32    1
    70    99    98    1
    71    99   100    2
    72    98    97    1
    73    29    28    1
    74    28    25    1
    75    33    32    1
    76    18    20   ar
    77    79    78    1
    78    79    80    1
    79    96    95    2
    80    78    69   am
    81    69    68    1
    82    69    70    2
    83    32    31    1
    84    68    71    1
    85    97    95   am
    86    25    24    1
    87    25    26    1
    88    95    94    1
    89    80    81    2
    90    80    84   am
    91   103   104    1
    92    71    72    1
    93    26    27    2
    94    94    93    1
    95    84    85    1
    96     6     5    1
    97    93    90   am
    98    92    89    1
    99    72    73   ar
   100    72    74   ar
   101    90    91    2
   102    90    89    1
   103   104   105    1
   104   104   107    1
   105    73    75   ar
   106    88    89    1
   107    88    86   am
   108   105   106    2
   109   110   108   ar
   110   107   108    1
   111   108   109   ar
   112     4     3    2
   113    85    86    1
   114    74    76   ar
   115     5     7    1
   116     5     2    1
   117    86    87    2
   118    75    77   ar
   119     3     2    1
   120     3     8   am
   121     9     8    1
   122     9    10    1
   123     2     1    1
   124    76    77   ar
   125    10    11    2
