@<TRIPOS>MOLECULE
tmp/4zpeA00.pdb
 199 187 0 0 0
SMALL
GASTEIGER

@<TRIPOS>ATOM
      1  N         32.3220   51.4160    6.9890 N.3    15  GLY15      -0.1210
      2  CA        31.7580   50.6690    5.8650 C.3    15  GLY15       0.1956
      3  C         32.7690   49.8650    5.0650 C.2    15  GLY15       0.2612
      4  O         32.4680   49.4460    3.9400 O.2    15  GLY15      -0.2717
      5  N         33.9920   49.6650    5.6000 N.am   16  GLN16      -0.1965
      6  CA        35.0030   48.9250    4.8310 C.3    16  GLN16       0.1733
      7  C         35.4400   47.6220    5.4870 C.2    16  GLN16       0.2616
      8  O         36.2250   46.8920    4.8930 O.2    16  GLN16      -0.2715
      9  CB        36.1990   49.7860    4.4450 C.3    16  GLN16       0.0408
     10  CG        35.7810   50.9650    3.5350 C.3    16  GLN16       0.0908
     11  CD        36.9000   51.6150    2.7570 C.2    16  GLN16       0.2608
     12  OE1       36.7250   52.0110    1.6030 O.2    16  GLN16      -0.2717
     13  NE2       38.0560   51.7920    3.3730 N.am   16  GLN16      -0.0878
     14  N         34.8470   47.3060    6.6270 N.am   17  GLY17      -0.1955
     15  CA        35.0630   46.0350    7.3070 C.3    17  GLY17       0.1869
     16  C         35.9400   46.1590    8.5300 C.2    17  GLY17       0.2309
     17  O         36.7050   47.1200    8.6460 O.2    17  GLY17      -0.2863
     18  N         40.3670   40.6640    7.4280 N.3    34  LEU34      -0.1245
     19  CA        38.9420   40.9390    7.6380 C.3    34  LEU34       0.1561
     20  C         38.3010   39.8310    8.4720 C.2    34  LEU34       0.2260
     21  O         38.4370   38.6510    8.1290 O.2    34  LEU34      -0.2867
     22  CB        38.2540   40.9630    6.2550 C.3    34  LEU34       0.0270
     23  CG        36.7510   41.2480    6.2750 C.3    34  LEU34       0.0019
     24  CD1       36.4750   42.7340    6.6270 C.3    34  LEU34       0.0001
     25  CD2       36.1460   40.9000    4.9480 C.3    34  LEU34       0.0001
     26  N         35.2910   37.7380    9.1910 N.3    36  ASP36      -0.1239
     27  CA        34.1020   37.3980    8.4000 C.3    36  ASP36       0.1674
     28  C         33.3600   36.1950    8.9080 C.2    36  ASP36       0.2266
     29  O         33.7120   35.0540    8.5720 O.2    36  ASP36      -0.2867
     30  CB        34.5040   37.1970    6.9160 C.3    36  ASP36       0.1410
     31  CG        33.2980   37.0610    5.9960 C.2    36  ASP36       0.3668
     32  OD1       32.1650   37.3970    6.4400 O.co2  36  ASP36      -0.2456
     33  OD2       33.4790   36.6140    4.8480 O.co2  36  ASP36      -0.2456
     34  N         30.5910   35.3180    7.7840 N.3    38  GLY38      -0.1225
     35  CA        29.7480   34.8540    6.6810 C.3    38  GLY38       0.1811
     36  C         30.4400   33.9690    5.6640 C.2    38  GLY38       0.2280
     37  O         29.8640   33.6840    4.6160 O.2    38  GLY38      -0.2866
     38  N         31.4530   35.3830   -5.4240 N.3    75  TYR75      -0.1227
     39  CA        30.2480   35.9920   -4.8240 C.3    75  TYR75       0.1736
     40  C         29.6230   36.8980   -5.8410 C.2    75  TYR75       0.2596
     41  O         30.2210   37.1330   -6.9000 O.2    75  TYR75      -0.2718
     42  CB        30.5680   36.8150   -3.5530 C.3    75  TYR75       0.0548
     43  CG        31.3670   36.0760   -2.4980 C.ar   75  TYR75      -0.0200
     44  CD1       30.7750   35.0900   -1.7110 C.ar   75  TYR75      -0.0009
     45  CD2       32.6480   36.4950   -2.1520 C.ar   75  TYR75      -0.0009
     46  CE1       31.4890   34.4510   -0.6910 C.ar   75  TYR75       0.0417
     47  CE2       33.3830   35.8460   -1.1600 C.ar   75  TYR75       0.0417
     48  CZ        32.7910   34.8420   -0.4150 C.ar   75  TYR75       0.1957
     49  OH        33.5150   34.2260    0.5780 O.3    75  TYR75      -0.2866
     50  N         28.4230   37.4320   -5.5180 N.am   76  THR76      -0.1939
     51  CA        27.7320   38.3740   -6.3840 C.3    76  THR76       0.2028
     52  C         28.5880   39.6210   -6.6090 C.2    76  THR76       0.2642
     53  O         28.6720   40.1090   -7.7400 O.2    76  THR76      -0.2714
     54  CB        26.3760   38.7500   -5.7620 C.3    76  THR76       0.1808
     55  OG1       25.6960   37.5440   -5.4030 O.3    76  THR76      -0.2208
     56  CG2       25.5110   39.5760   -6.7110 C.3    76  THR76       0.0379
     57  N         29.2380   40.1380   -5.5420 N.am   77  GLN77      -0.1963
     58  CA        29.9820   41.3890   -5.6960 C.3    77  GLN77       0.1733
     59  C         31.4930   41.2870   -5.9470 C.2    77  GLN77       0.2616
     60  O         32.0980   42.3260   -6.2360 O.2    77  GLN77      -0.2715
     61  CB        29.7470   42.3080   -4.4950 C.3    77  GLN77       0.0408
     62  CG        28.3160   42.7830   -4.3080 C.3    77  GLN77       0.0908
     63  CD        28.2490   43.6480   -3.0820 C.2    77  GLN77       0.2608
     64  OE1       28.9910   44.6360   -2.9400 O.2    77  GLN77      -0.2717
     65  NE2       27.3820   43.2730   -2.1510 N.am   77  GLN77      -0.0878
     66  N         32.0920   40.1000   -5.7590 N.am   78  GLY78      -0.1955
     67  CA        33.5300   39.9090   -5.9510 C.3    78  GLY78       0.1869
     68  C         33.9820   38.4680   -5.8610 C.2    78  GLY78       0.2309
     69  O         33.2150   37.6010   -5.4370 O.2    78  GLY78      -0.2863
     70  N         37.2270   42.6200   -7.8500 N.3   111  LYS111     -0.1231
     71  CA        36.3680   43.4500   -6.9950 C.3   111  LYS111      0.1693
     72  C         36.2460   42.8800   -5.5660 C.2   111  LYS111      0.2592
     73  O         35.2000   42.9900   -4.9240 O.2   111  LYS111     -0.2718
     74  CB        34.9720   43.6270   -7.6500 C.3   111  LYS111      0.0285
     75  CG        35.0370   44.3630   -8.9850 C.3   111  LYS111      0.0035
     76  CD        36.0080   45.5260   -9.0670 C.3   111  LYS111      0.0206
     77  CE        35.6460   46.6600   -8.1170 C.3   111  LYS111      0.1093
     78  NZ        36.7120   47.7060   -8.1530 N.3   111  LYS111     -0.1314
     79  N         37.3300   42.2540   -5.0930 N.am  112  PHE112     -0.1976
     80  CA        37.3410   41.6480   -3.7680 C.3   112  PHE112      0.1639
     81  C         37.9730   42.6020   -2.7650 C.2   112  PHE112      0.2290
     82  O         37.2860   43.0530   -1.8330 O.2   112  PHE112     -0.2864
     83  CB        38.0210   40.2780   -3.8030 C.3   112  PHE112      0.0560
     84  CG        38.0350   39.5980   -2.4460 C.ar  112  PHE112     -0.0200
     85  CD1       36.8680   39.0590   -1.9070 C.ar  112  PHE112     -0.0042
     86  CD2       39.2120   39.5070   -1.7090 C.ar  112  PHE112     -0.0042
     87  CE1       36.8850   38.4170   -0.6560 C.ar  112  PHE112     -0.0003
     88  CE2       39.2220   38.8720   -0.4530 C.ar  112  PHE112     -0.0003
     89  CZ        38.0560   38.3360    0.0530 C.ar  112  PHE112     -0.0000
     90  N         39.3110   46.1090   -1.2630 N.3   114  ILE114     -0.1245
     91  CA        38.7490   47.4570   -1.2560 C.3   114  ILE114      0.1561
     92  C         39.8590   48.4880   -1.1620 C.2   114  ILE114      0.2260
     93  O         40.6880   48.4300   -0.2480 O.2   114  ILE114     -0.2867
     94  CB        37.7160   47.6270   -0.1050 C.3   114  ILE114      0.0252
     95  CG1       36.6300   46.5340   -0.1380 C.3   114  ILE114      0.0019
     96  CG2       37.1140   49.0380   -0.1090 C.3   114  ILE114      0.0019
     97  CD1       35.7730   46.5040    1.1180 C.3   114  ILE114      0.0001
     98  N         42.9520   46.2240    4.8790 N.3   119  TRP119     -0.1241
     99  CA        43.0230   44.7610    5.0900 C.3   119  TRP119      0.1605
    100  C         43.4940   44.0580    3.8270 C.2   119  TRP119      0.2264
    101  O         43.2680   44.5560    2.7070 O.2   119  TRP119     -0.2867
    102  CB        41.7510   44.1370    5.6820 C.3   119  TRP119      0.0550
    103  CG        40.4770   44.4410    4.9570 C.ar  119  TRP119      0.0003
    104  CD1       39.5480   45.3790    5.3140 C.ar  119  TRP119      0.0946
    105  CD2       39.9050   43.6970    3.8780 C.ar  119  TRP119      0.0152
    106  NE1       38.4520   45.2920    4.4900 N.ar  119  TRP119     -0.2442
    107  CE2       38.6310   44.2530    3.6130 C.ar  119  TRP119      0.0810
    108  CE3       40.3330   42.5910    3.1120 C.ar  119  TRP119      0.0012
    109  CZ2       37.8270   43.8150    2.5430 C.ar  119  TRP119      0.0191
    110  CZ3       39.5090   42.1160    2.0950 C.ar  119  TRP119      0.0001
    111  CH2       38.2690   42.7260    1.8160 C.ar  119  TRP119      0.0015
    112  N         41.2060   37.5880    4.4800 N.3   122  ILE122     -0.1245
    113  CA        39.9140   37.3200    5.1180 C.3   122  ILE122      0.1561
    114  C         40.0020   36.1150    6.0440 C.2   122  ILE122      0.2260
    115  O         40.6080   35.1060    5.6860 O.2   122  ILE122     -0.2867
    116  CB        38.8400   37.0780    4.0050 C.3   122  ILE122      0.0252
    117  CG1       37.4350   36.8990    4.6110 C.3   122  ILE122      0.0019
    118  CG2       39.2080   35.9360    3.0280 C.3   122  ILE122      0.0019
    119  CD1       36.3020   37.1820    3.5460 C.3   122  ILE122      0.0001
    120  N         26.4310   28.6180    7.6060 N.3   189  TYR189     -0.1241
    121  CA        26.5600   30.0040    8.0270 C.3   189  TYR189      0.1605
    122  C         26.1210   29.9650    9.5000 C.2   189  TYR189      0.2264
    123  O         25.6890   28.9020    9.9860 O.2   189  TYR189     -0.2867
    124  CB        25.5210   30.8880    7.3100 C.3   189  TYR189      0.0534
    125  CG        25.7570   30.9380    5.8250 C.ar  189  TYR189     -0.0201
    126  CD1       26.6680   31.8410    5.2740 C.ar  189  TYR189     -0.0009
    127  CD2       25.0870   30.0700    4.9660 C.ar  189  TYR189     -0.0009
    128  CE1       26.9220   31.8580    3.9030 C.ar  189  TYR189      0.0417
    129  CE2       25.3240   30.0840    3.5950 C.ar  189  TYR189      0.0417
    130  CZ        26.2300   30.9930    3.0690 C.ar  189  TYR189      0.1957
    131  OH        26.4520   31.0160    1.7190 O.3   189  TYR189     -0.2866
    132  N         16.9810   31.8350    4.3300 N.3   215  LYS215     -0.1245
    133  CA        17.7830   31.6980    5.5540 C.3   215  LYS215      0.1561
    134  C         17.9510   33.0680    6.1840 C.2   215  LYS215      0.2260
    135  O         17.7650   34.0750    5.4980 O.2   215  LYS215     -0.2867
    136  CB        19.1740   31.0850    5.2650 C.3   215  LYS215      0.0271
    137  CG        20.0420   31.9120    4.2980 C.3   215  LYS215      0.0035
    138  CD        21.3130   31.1690    3.9500 C.3   215  LYS215      0.0206
    139  CE        22.0780   31.9130    2.8830 C.3   215  LYS215      0.1093
    140  NZ        21.3720   31.8900    1.5710 N.3   215  LYS215     -0.1314
    141  N         21.0580   34.9140    8.4970 N.3   217  ILE217     -0.1245
    142  CA        22.4370   34.6780    8.9770 C.3   217  ILE217      0.1561
    143  C         22.9880   35.8840    9.6750 C.2   217  ILE217      0.2260
    144  O         22.5520   37.0200    9.4140 O.2   217  ILE217     -0.2867
    145  CB        23.3630   34.2150    7.8070 C.3   217  ILE217      0.0252
    146  CG1       23.6960   35.3650    6.8150 C.3   217  ILE217      0.0019
    147  CG2       22.7980   32.9860    7.0770 C.3   217  ILE217      0.0019
    148  CD1       24.8100   34.9820    5.7640 C.3   217  ILE217      0.0001
    149  N         26.3180   37.9810    9.9230 N.3   219  ASP219     -0.1239
    150  CA        27.5100   38.1050    9.0790 C.3   219  ASP219      0.1674
    151  C         28.2720   39.4130    9.2970 C.2   219  ASP219      0.2266
    152  O         27.9150   40.4420    8.7270 O.2   219  ASP219     -0.2867
    153  CB        27.0950   37.9320    7.5980 C.3   219  ASP219      0.1410
    154  CG        28.2310   38.0450    6.5980 C.2   219  ASP219      0.3668
    155  OD1       29.4070   38.0450    7.0330 O.co2 219  ASP219     -0.2456
    156  OD2       27.9480   38.0220    5.3840 O.co2 219  ASP219     -0.2456
    157  N         30.9660   40.2480    7.9580 N.3   221  GLY221     -0.1210
    158  CA        31.5700   40.6490    6.6880 C.3   221  GLY221      0.1956
    159  C         30.6600   41.4610    5.7800 C.2   221  GLY221      0.2613
    160  O         31.1210   41.9590    4.7530 O.2   221  GLY221     -0.2717
    161  N         29.3460   41.5270    6.0880 N.am  222  THR222     -0.1938
    162  CA        28.3810   42.2670    5.2390 C.3   222  THR222      0.2028
    163  C         28.0790   43.5900    5.9720 C.2   222  THR222      0.2642
    164  O         27.8440   43.5950    7.1870 O.2   222  THR222     -0.2714
    165  CB        27.0870   41.4460    5.0320 C.3   222  THR222      0.1808
    166  OG1       27.2900   40.3170    4.1680 O.3   222  THR222     -0.2208
    167  CG2       25.9170   42.3000    4.4790 C.3   222  THR222      0.0379
    168  N         28.0790   44.7110    5.2310 N.am  223  THR223     -0.1950
    169  CA        27.8080   45.9890    5.8550 C.3   223  THR223      0.1897
    170  C         26.3540   46.1320    6.3420 C.2   223  THR223      0.2313
    171  O         26.1180   46.4700    7.4950 O.2   223  THR223     -0.2863
    172  CB        28.1770   47.1340    4.8850 C.3   223  THR223      0.1794
    173  OG1       29.5600   47.0120    4.5420 O.3   223  THR223     -0.2208
    174  CG2       27.9410   48.5190    5.4920 C.3   223  THR223      0.0378
    175  N         20.4410   43.1400    5.3490 N.3   226  ARG226     -0.1245
    176  CA        19.8380   42.7790    4.0670 C.3   226  ARG226      0.1563
    177  C         18.5700   42.0090    4.3350 C.2   226  ARG226      0.2260
    178  O         18.5500   41.1170    5.1750 O.2   226  ARG226     -0.2867
    179  CB        20.8080   42.0250    3.1320 C.3   226  ARG226      0.0307
    180  CG        22.1750   42.7380    3.0150 C.3   226  ARG226      0.0489
    181  CD        23.1770   42.0890    2.0300 C.3   226  ARG226      0.2205
    182  NE        22.6190   42.0350    0.6680 N.pl3 226  ARG226     -0.0865
    183  CZ        22.6770   40.9760   -0.1430 C.cat 226  ARG226      0.5346
    184  NH1       23.3740   39.8970    0.2050 N.pl3 226  ARG226      0.1354
    185  NH2       22.0870   41.0110   -1.3320 N.pl3 226  ARG226      0.1354
    186  N         18.7960   36.1250   -1.2770 N.3   316  THR316     -0.1218
    187  CA        19.4150   34.9490   -0.6460 C.3   316  THR316      0.1862
    188  C         19.2090   34.9670    0.8780 C.2   316  THR316      0.2287
    189  O         20.0840   34.5120    1.6340 O.2   316  THR316     -0.2866
    190  CB        20.9090   34.8670   -0.9950 C.3   316  THR316      0.1770
    191  OG1       21.5320   36.0640   -0.5410 O.3   316  THR316     -0.2211
    192  CG2       21.1590   34.6610   -2.4980 C.3   316  THR316      0.0375
    193  N         20.3410   38.9970    5.9780 N.3   319  VAL319     -0.1245
    194  CA        21.7340   39.0670    6.4130 C.3   319  VAL319      0.1561
    195  C         21.8090   40.1120    7.4960 C.2   319  VAL319      0.2260
    196  O         21.5880   41.2880    7.2220 O.2   319  VAL319     -0.2867
    197  CB        22.7620   39.3420    5.2760 C.3   319  VAL319      0.0252
    198  CG1       24.1950   39.3470    5.8400 C.3   319  VAL319      0.0019
    199  CG2       22.6180   38.3320    4.1320 C.3   319  VAL319      0.0019
@<TRIPOS>BOND
     1    76    75    1
     2    76    77    1
     3    75    74    1
     4    78    77    1
     5    70    71    1
     6    53    52    2
     7    74    71    1
     8    71    72    1
     9    41    40    2
    10    56    54    1
    11    52    51    1
    12    52    57   am
    13    51    54    1
    14    51    50    1
    15    60    59    2
    16    67    68    1
    17    67    66    1
    18    59    66   am
    19    59    58    1
    20    68    69    2
    21    40    50   am
    22    40    39    1
    23    54    55    1
    24    58    57    1
    25    58    61    1
    26    72    79   am
    27    72    73    2
    28    38    39    1
    29    79    80    1
    30    39    42    1
    31    61    62    1
    32    62    63    1
    33    83    80    1
    34    83    84    1
    35    80    81    1
    36    42    43    1
    37    63    64    2
    38    63    65   am
    39    81    82    2
    40    43    45   ar
    41    43    44   ar
    42   192   190    1
    43    84    85   ar
    44    84    86   ar
    45    45    47   ar
    46    85    87   ar
    47    44    46   ar
    48    86    88   ar
    49   185   183    1
    50   186   187    1
    51    90    91    1
    52    91    92    1
    53    91    94    1
    54    92    93    2
    55    47    48   ar
    56   190   187    1
    57   190   191    1
    58    46    48   ar
    59    87    89   ar
    60   187   188    1
    61    88    89   ar
    62    48    49    1
    63   183   184    1
    64   183   182    2
    65    95    94    1
    66    95    97    1
    67    96    94    1
    68   182   181    1
    69   188   189    2
    70   140   139    1
    71    12    11    2
    72   131   130    1
    73   111   110   ar
    74   111   109   ar
    75   181   180    1
    76   110   108   ar
    77   109   107   ar
    78   101   100    2
    79    11    13   am
    80    11    10    1
    81   139   138    1
    82   180   179    1
    83   118   116    1
    84   130   129   ar
    85   130   128   ar
    86   108   105   ar
    87   179   176    1
    88    10     9    1
    89   119   117    1
    90   129   127   ar
    91   107   105   ar
    92   107   106   ar
    93   100    99    1
    94   105   103   ar
    95   128   126   ar
    96     4     3    2
    97   138   137    1
    98   116   117    1
    99   116   113    1
   100   176   177    1
   101   176   175    1
   102   199   197    1
   103   166   165    1
   104   137   136    1
   105   132   133    1
   106   177   178    2
   107     9     6    1
   108   167   165    1
   109   112   113    1
   110   106   104   ar
   111   173   172    1
   112    37    36    2
   113   160   159    2
   114     6     7    1
   115     6     5    1
   116    33    31   ar
   117    98    99    1
   118   172   174    1
   119   172   169    1
   120     8     7    2
   121    25    23    1
   122   103   104   ar
   123   103   102    1
   124   127   125   ar
   125   165   162    1
   126     3     5   am
   127     3     2    1
   128    99   102    1
   129   113   114    1
   130   168   169    1
   131   168   163   am
   132   162   163    1
   133   162   161    1
   134   136   133    1
   135   126   125   ar
   136   197   198    1
   137   197   194    1
   138   156   154   ar
   139     7    14   am
   140   135   134    2
   141   133   134    1
   142    36    35    1
   143   115   114    2
   144   148   146    1
   145   159   161   am
   146   159   158    1
   147   125   124    1
   148   169   170    1
   149     2     1    1
   150   163   164    2
   151   193   194    1
   152    31    32   ar
   153    31    30    1
   154    22    23    1
   155    22    19    1
   156    23    24    1
   157   170   171    2
   158   194   195    1
   159   154   155   ar
   160   154   153    1
   161    14    15    1
   162    35    34    1
   163   158   157    1
   164   146   145    1
   165    30    27    1
   166   147   145    1
   167   196   195    2
   168    15    16    1
   169   124   121    1
   170    18    19    1
   171   153   150    1
   172   120   121    1
   173    19    20    1
   174   145   142    1
   175   121   122    1
   176    21    20    2
   177    27    28    1
   178    27    26    1
   179   141   142    1
   180    16    17    2
   181    29    28    2
   182   152   151    2
   183   142   143    1
   184   150   151    1
   185   150   149    1
   186   144   143    2
   187   122   123    2
