@<TRIPOS>MOLECULE
tmp/4zpgA00.pdb
 190 178 0 0 0
SMALL
GASTEIGER

@<TRIPOS>ATOM
      1  N         33.6520   49.3680    5.4660 N.3    16  GLN16      -0.1245
      2  CA        34.7230   48.6200    4.8040 C.3    16  GLN16       0.1566
      3  C         35.1860   47.3710    5.5940 C.2    16  GLN16       0.2260
      4  O         36.1150   46.6940    5.1660 O.2    16  GLN16      -0.2867
      5  CB        35.8830   49.5490    4.4410 C.3    16  GLN16       0.0367
      6  CG        35.4240   50.6280    3.4330 C.3    16  GLN16       0.0905
      7  CD        36.5190   51.4380    2.7930 C.2    16  GLN16       0.2608
      8  OE1       36.3710   51.9190    1.6700 O.2    16  GLN16      -0.2717
      9  NE2       37.6230   51.6480    3.4900 N.am   16  GLN16      -0.0878
     10  N         40.2630   40.7260    7.4710 N.3    34  LEU34      -0.1245
     11  CA        38.8200   40.9300    7.6460 C.3    34  LEU34       0.1561
     12  C         38.1880   39.8120    8.4960 C.2    34  LEU34       0.2260
     13  O         38.3270   38.6370    8.1630 O.2    34  LEU34      -0.2867
     14  CB        38.1260   40.9810    6.2560 C.3    34  LEU34       0.0270
     15  CG        36.6050   41.2280    6.3080 C.3    34  LEU34       0.0019
     16  CD1       36.3040   42.6560    6.7520 C.3    34  LEU34       0.0001
     17  CD2       35.9540   40.9550    4.9550 C.3    34  LEU34       0.0001
     18  N         35.2000   37.7970    9.3370 N.3    36  ASP36      -0.1239
     19  CA        33.9770   37.4800    8.5950 C.3    36  ASP36       0.1674
     20  C         33.2630   36.2390    9.0700 C.2    36  ASP36       0.2266
     21  O         33.6230   35.1160    8.6760 O.2    36  ASP36      -0.2867
     22  CB        34.3300   37.3320    7.1020 C.3    36  ASP36       0.1410
     23  CG        33.1360   37.2340    6.1830 C.2    36  ASP36       0.3668
     24  OD1       32.0080   37.4860    6.6490 O.co2  36  ASP36      -0.2456
     25  OD2       33.3120   36.8050    5.0430 O.co2  36  ASP36      -0.2456
     26  N         30.5050   35.4320    7.8630 N.3    38  GLY38      -0.1210
     27  CA        29.6750   35.0150    6.7220 C.3    38  GLY38       0.1956
     28  C         30.3910   34.1400    5.6980 C.2    38  GLY38       0.2612
     29  O         29.8430   33.8830    4.6300 O.2    38  GLY38      -0.2717
     30  N         31.6430   33.6990    5.9930 N.am   39  SER39      -0.1952
     31  CA        32.3880   32.8100    5.1020 C.3    39  SER39       0.1924
     32  C         33.2780   31.8750    5.9300 C.2    39  SER39       0.2314
     33  O         33.3240   32.0290    7.1490 O.2    39  SER39      -0.2863
     34  CB        33.1940   33.5860    4.0630 C.3    39  SER39       0.2116
     35  OG        34.2560   34.2410    4.7200 O.3    39  SER39      -0.2180
     36  N         31.4150   35.1640   -5.5770 N.3    75  TYR75      -0.1227
     37  CA        30.2280   35.7370   -4.9220 C.3    75  TYR75       0.1736
     38  C         29.5100   36.6100   -5.9450 C.2    75  TYR75       0.2596
     39  O         30.0430   36.8370   -7.0260 O.2    75  TYR75      -0.2718
     40  CB        30.6200   36.6080   -3.7130 C.3    75  TYR75       0.0548
     41  CG        31.3870   35.8630   -2.6470 C.ar   75  TYR75      -0.0200
     42  CD1       30.7330   35.0100   -1.7550 C.ar   75  TYR75      -0.0009
     43  CD2       32.7600   36.0320   -2.5050 C.ar   75  TYR75      -0.0009
     44  CE1       31.4360   34.3320   -0.7580 C.ar   75  TYR75       0.0417
     45  CE2       33.4640   35.3920   -1.4890 C.ar   75  TYR75       0.0417
     46  CZ        32.8000   34.5310   -0.6270 C.ar   75  TYR75       0.1957
     47  OH        33.5080   33.8800    0.3520 O.3    75  TYR75      -0.2866
     48  N         28.3270   37.1310   -5.5950 N.am   76  THR76      -0.1939
     49  CA        27.6000   38.0600   -6.4640 C.3    76  THR76       0.2028
     50  C         28.4380   39.3230   -6.7210 C.2    76  THR76       0.2642
     51  O         28.5160   39.7880   -7.8520 O.2    76  THR76      -0.2714
     52  CB        26.2680   38.4580   -5.7970 C.3    76  THR76       0.1808
     53  OG1       25.5620   37.2600   -5.5060 O.3    76  THR76      -0.2208
     54  CG2       25.4080   39.3780   -6.6830 C.3    76  THR76       0.0379
     55  N         29.0690   39.8750   -5.6830 N.am   77  GLN77      -0.1963
     56  CA        29.7530   41.1540   -5.8570 C.3    77  GLN77       0.1733
     57  C         31.2340   41.0920   -6.2140 C.2    77  GLN77       0.2616
     58  O         31.8350   42.1300   -6.4780 O.2    77  GLN77      -0.2715
     59  CB        29.5610   42.0050   -4.6060 C.3    77  GLN77       0.0408
     60  CG        28.1020   42.3630   -4.3300 C.3    77  GLN77       0.0908
     61  CD        28.0100   43.0790   -3.0120 C.2    77  GLN77       0.2608
     62  OE1       28.6850   44.0910   -2.7660 O.2    77  GLN77      -0.2717
     63  NE2       27.1790   42.5640   -2.1270 N.am   77  GLN77      -0.0878
     64  N         31.8240   39.9090   -6.1620 N.am   78  GLY78      -0.1955
     65  CA        33.2440   39.7720   -6.4340 C.3    78  GLY78       0.1869
     66  C         33.7320   38.3630   -6.2490 C.2    78  GLY78       0.2309
     67  O         32.9430   37.4860   -5.9060 O.2    78  GLY78      -0.2863
     68  N         37.0980   42.6290   -7.8200 N.3   111  LYS111     -0.1231
     69  CA        36.2110   43.3950   -6.9190 C.3   111  LYS111      0.1693
     70  C         36.1160   42.8400   -5.4710 C.2   111  LYS111      0.2592
     71  O         35.0670   42.9520   -4.8160 O.2   111  LYS111     -0.2718
     72  CB        34.7960   43.5260   -7.5500 C.3   111  LYS111      0.0285
     73  CG        34.7580   44.3520   -8.8450 C.3   111  LYS111      0.0035
     74  CD        33.3480   44.3620   -9.4390 C.3   111  LYS111      0.0206
     75  CE        33.2580   45.2450  -10.6590 C.3   111  LYS111      0.1093
     76  NZ        31.8800   45.2840  -11.2210 N.3   111  LYS111     -0.1314
     77  N         37.2080   42.2250   -4.9940 N.am  112  PHE112     -0.1976
     78  CA        37.2560   41.6340   -3.6640 C.3   112  PHE112      0.1639
     79  C         37.9240   42.5850   -2.7000 C.2   112  PHE112      0.2290
     80  O         37.2870   42.9710   -1.7140 O.2   112  PHE112     -0.2864
     81  CB        37.9410   40.2540   -3.6850 C.3   112  PHE112      0.0560
     82  CG        37.9060   39.5450   -2.3470 C.ar  112  PHE112     -0.0200
     83  CD1       36.7230   39.0000   -1.8600 C.ar  112  PHE112     -0.0042
     84  CD2       39.0560   39.4370   -1.5680 C.ar  112  PHE112     -0.0042
     85  CE1       36.6930   38.3400   -0.6170 C.ar  112  PHE112     -0.0003
     86  CE2       39.0250   38.7760   -0.3320 C.ar  112  PHE112     -0.0003
     87  CZ        37.8420   38.2390    0.1340 C.ar  112  PHE112     -0.0000
     88  N         39.1660   46.0850   -1.1870 N.3   114  ILE114     -0.1245
     89  CA        38.5850   47.4310   -1.1940 C.3   114  ILE114      0.1561
     90  C         39.6910   48.4700   -1.0650 C.2   114  ILE114      0.2260
     91  O         40.4830   48.4130   -0.1150 O.2   114  ILE114     -0.2867
     92  CB        37.5190   47.6020   -0.0680 C.3   114  ILE114      0.0252
     93  CG1       36.3950   46.5420   -0.1610 C.3   114  ILE114      0.0019
     94  CG2       36.9510   49.0360   -0.0480 C.3   114  ILE114      0.0019
     95  CD1       35.5440   46.3770    1.1440 C.3   114  ILE114      0.0001
     96  N         42.8360   46.2720    4.9110 N.3   119  TRP119     -0.1241
     97  CA        42.9360   44.8240    5.1490 C.3   119  TRP119      0.1605
     98  C         43.4320   44.1100    3.9000 C.2   119  TRP119      0.2264
     99  O         43.1590   44.5610    2.7910 O.2   119  TRP119     -0.2867
    100  CB        41.6780   44.1770    5.7460 C.3   119  TRP119      0.0550
    101  CG        40.3850   44.4150    5.0180 C.ar  119  TRP119      0.0003
    102  CD1       39.3990   45.2920    5.3810 C.ar  119  TRP119      0.0946
    103  CD2       39.8400   43.6220    3.9440 C.ar  119  TRP119      0.0152
    104  NE1       38.3100   45.1480    4.5520 N.ar  119  TRP119     -0.2442
    105  CE2       38.5440   44.1180    3.6740 C.ar  119  TRP119      0.0810
    106  CE3       40.3270   42.5460    3.1760 C.ar  119  TRP119      0.0012
    107  CZ2       37.7310   43.5850    2.6630 C.ar  119  TRP119      0.0191
    108  CZ3       39.5280   42.0270    2.1630 C.ar  119  TRP119      0.0001
    109  CH2       38.2330   42.5250    1.9340 C.ar  119  TRP119      0.0015
    110  N         41.1390   37.7250    4.6050 N.3   122  ILE122     -0.1245
    111  CA        39.8280   37.4560    5.2100 C.3   122  ILE122      0.1561
    112  C         39.9100   36.2180    6.0790 C.2   122  ILE122      0.2260
    113  O         40.5710   35.2320    5.7190 O.2   122  ILE122     -0.2867
    114  CB        38.7710   37.2820    4.0730 C.3   122  ILE122      0.0252
    115  CG1       37.3150   37.1610    4.6390 C.3   122  ILE122      0.0019
    116  CG2       39.1420   36.0760    3.1100 C.3   122  ILE122      0.0019
    117  CD1       36.1820   37.2850    3.5410 C.3   122  ILE122      0.0001
    118  N         26.3790   28.6530    7.6360 N.3   190  TYR190     -0.1241
    119  CA        26.4980   30.0660    8.0180 C.3   190  TYR190      0.1605
    120  C         26.0720   30.0300    9.5100 C.2   190  TYR190      0.2264
    121  O         25.6950   28.9580   10.0120 O.2   190  TYR190     -0.2867
    122  CB        25.4360   30.9140    7.2810 C.3   190  TYR190      0.0534
    123  CG        25.7160   31.0650    5.8030 C.ar  190  TYR190     -0.0201
    124  CD1       26.5720   32.0560    5.3340 C.ar  190  TYR190     -0.0009
    125  CD2       25.1610   30.1850    4.8750 C.ar  190  TYR190     -0.0009
    126  CE1       26.8890   32.1540    3.9820 C.ar  190  TYR190      0.0417
    127  CE2       25.4680   30.2790    3.5190 C.ar  190  TYR190      0.0417
    128  CZ        26.3230   31.2740    3.0770 C.ar  190  TYR190      0.1957
    129  OH        26.6070   31.4010    1.7450 O.3   190  TYR190     -0.2866
    130  N         16.8930   31.8290    4.3610 N.3   216  LYS216     -0.1245
    131  CA        17.6820   31.7040    5.5970 C.3   216  LYS216      0.1561
    132  C         17.8520   33.0700    6.2200 C.2   216  LYS216      0.2260
    133  O         17.6640   34.0630    5.5370 O.2   216  LYS216     -0.2867
    134  CB        19.0780   31.0780    5.3280 C.3   216  LYS216      0.0271
    135  CG        20.0040   31.9110    4.4170 C.3   216  LYS216      0.0035
    136  CD        21.2330   31.1210    4.0130 C.3   216  LYS216      0.0206
    137  CE        22.0400   31.7850    2.9150 C.3   216  LYS216      0.1093
    138  NZ        21.2870   31.9030    1.6320 N.3   216  LYS216     -0.1314
    139  N         20.9330   34.8970    8.5500 N.3   218  ILE218     -0.1245
    140  CA        22.3150   34.6550    8.9900 C.3   218  ILE218      0.1561
    141  C         22.8700   35.8480    9.7490 C.2   218  ILE218      0.2260
    142  O         22.4430   36.9800    9.5170 O.2   218  ILE218     -0.2867
    143  CB        23.2510   34.2320    7.7880 C.3   218  ILE218      0.0252
    144  CG1       23.5560   35.4300    6.8290 C.3   218  ILE218      0.0019
    145  CG2       22.7000   32.9960    7.0350 C.3   218  ILE218      0.0019
    146  CD1       24.7900   35.2290    5.7550 C.3   218  ILE218      0.0001
    147  N         26.1420   37.9630   10.0260 N.3   220  ASP220     -0.1239
    148  CA        27.3300   38.1610    9.2050 C.3   220  ASP220      0.1674
    149  C         28.0740   39.4550    9.4770 C.2   220  ASP220      0.2266
    150  O         27.6920   40.5030    8.9540 O.2   220  ASP220     -0.2867
    151  CB        26.9320   38.0500    7.7130 C.3   220  ASP220      0.1410
    152  CG        28.0670   38.1130    6.7050 C.2   220  ASP220      0.3668
    153  OD1       29.2540   38.1390    7.1340 O.co2 220  ASP220     -0.2456
    154  OD2       27.7820   38.0690    5.4950 O.co2 220  ASP220     -0.2456
    155  N         30.7900   40.3220    8.1290 N.3   222  GLY222     -0.1210
    156  CA        31.4250   40.7800    6.8860 C.3   222  GLY222      0.1956
    157  C         30.5250   41.5320    5.9170 C.2   222  GLY222      0.2612
    158  O         30.9940   42.0040    4.8730 O.2   222  GLY222     -0.2717
    159  N         29.2110   41.6000    6.2200 N.am  223  THR223     -0.1952
    160  CA        28.2360   42.3280    5.3840 C.3   223  THR223      0.1897
    161  C         27.9050   43.6110    6.1400 C.2   223  THR223      0.2313
    162  O         27.6300   43.5550    7.3420 O.2   223  THR223     -0.2863
    163  CB        26.9730   41.5130    5.1620 C.3   223  THR223      0.1794
    164  OG1       27.2550   40.4030    4.3160 O.3   223  THR223     -0.2208
    165  CG2       25.8120   42.3530    4.5390 C.3   223  THR223      0.0378
    166  N         20.2650   43.0800    5.3570 N.3   227  ARG227     -0.1245
    167  CA        19.6660   42.6970    4.0750 C.3   227  ARG227      0.1563
    168  C         18.4040   41.9020    4.3420 C.2   227  ARG227      0.2260
    169  O         18.3870   41.0120    5.2040 O.2   227  ARG227     -0.2867
    170  CB        20.6600   41.9310    3.1700 C.3   227  ARG227      0.0307
    171  CG        21.9970   42.6800    3.0440 C.3   227  ARG227      0.0489
    172  CD        22.9950   41.9790    2.1430 C.3   227  ARG227      0.2205
    173  NE        22.4970   41.9370    0.7740 N.pl3 227  ARG227     -0.0865
    174  CZ        22.5960   40.8900   -0.0390 C.cat 227  ARG227      0.5346
    175  NH1       23.2620   39.8040    0.3400 N.pl3 227  ARG227      0.1354
    176  NH2       22.0740   40.9390   -1.2520 N.pl3 227  ARG227      0.1354
    177  N         18.7150   36.0490   -1.2580 N.3   316  THR316     -0.1218
    178  CA        19.3770   34.9040   -0.6220 C.3   316  THR316      0.1862
    179  C         19.1820   34.9090    0.9100 C.2   316  THR316      0.2287
    180  O         20.0750   34.4860    1.6570 O.2   316  THR316     -0.2866
    181  CB        20.8760   34.8570   -1.0280 C.3   316  THR316      0.1770
    182  OG1       21.4610   36.1240   -0.7310 O.3   316  THR316     -0.2211
    183  CG2       21.0800   34.5310   -2.5100 C.3   316  THR316      0.0375
    184  N         20.1930   38.9750    6.0080 N.3   319  VAL319     -0.1245
    185  CA        21.5830   39.0590    6.4390 C.3   319  VAL319      0.1561
    186  C         21.6280   40.1150    7.5000 C.2   319  VAL319      0.2260
    187  O         21.4130   41.3010    7.1970 O.2   319  VAL319     -0.2867
    188  CB        22.6050   39.3330    5.2980 C.3   319  VAL319      0.0252
    189  CG1       24.0330   39.3260    5.8550 C.3   319  VAL319      0.0019
    190  CG2       22.4610   38.3100    4.1590 C.3   319  VAL319      0.0019
@<TRIPOS>BOND
     1    76    75    1
     2    75    74    1
     3    74    73    1
     4    73    72    1
     5    51    50    2
     6    68    69    1
     7    72    69    1
     8    39    38    2
     9    69    70    1
    10    50    49    1
    11    50    55   am
    12    54    52    1
    13    58    57    2
    14    49    52    1
    15    49    48    1
    16    65    66    1
    17    65    64    1
    18    66    67    2
    19    57    64   am
    20    57    56    1
    21    38    48   am
    22    38    37    1
    23    56    55    1
    24    56    59    1
    25    52    53    1
    26    36    37    1
    27    70    77   am
    28    70    71    2
    29    77    78    1
    30    37    40    1
    31    59    60    1
    32    60    61    1
    33    40    41    1
    34    81    78    1
    35    81    82    1
    36    78    79    1
    37    61    62    2
    38    61    63   am
    39    79    80    2
    40    41    43   ar
    41    41    42   ar
    42   183   181    1
    43    43    45   ar
    44    82    83   ar
    45    82    84   ar
    46    83    85   ar
    47    42    44   ar
    48    84    86   ar
    49    45    46   ar
    50   177   178    1
    51   176   174    1
    52    89    88    1
    53    89    90    1
    54    89    92    1
    55    90    91    2
    56   181   182    1
    57   181   178    1
    58    44    46   ar
    59    46    47    1
    60   178   179    1
    61    85    87   ar
    62    86    87   ar
    63    93    92    1
    64    93    95    1
    65    92    94    1
    66   174   175    1
    67   174   173    2
    68   173   172    1
    69   179   180    2
    70   138   137    1
    71     8     7    2
    72   129   128    1
    73   109   108   ar
    74   109   107   ar
    75   172   171    1
    76   108   106   ar
    77   107   105   ar
    78    99    98    2
    79     7     6    1
    80     7     9   am
    81   137   136    1
    82   171   170    1
    83   128   127   ar
    84   128   126   ar
    85   116   114    1
    86   170   167    1
    87   106   103   ar
    88     6     5    1
    89   127   125   ar
    90   117   115    1
    91   105   103   ar
    92   105   104   ar
    93    98    97    1
    94   103   101   ar
    95   126   124   ar
    96   136   135    1
    97    34    35    1
    98    34    31    1
    99   114   115    1
   100   114   111    1
   101   167   168    1
   102   167   166    1
   103   190   188    1
   104   164   163    1
   105   168   169    2
   106   130   131    1
   107   135   134    1
   108     5     2    1
   109   165   163    1
   110   104   102   ar
   111   110   111    1
   112    29    28    2
   113     2     1    1
   114     2     3    1
   115   158   157    2
   116   125   123   ar
   117    96    97    1
   118    17    15    1
   119   101   102   ar
   120   101   100    1
   121    25    23   ar
   122    31    32    1
   123    31    30    1
   124    97   100    1
   125   163   160    1
   126     4     3    2
   127   111   112    1
   128   188   189    1
   129   188   185    1
   130   134   131    1
   131   124   123   ar
   132   160   161    1
   133   160   159    1
   134   154   152   ar
   135   133   132    2
   136   131   132    1
   137    28    30   am
   138    28    27    1
   139   113   112    2
   140   146   144    1
   141   123   122    1
   142   157   159   am
   143   157   156    1
   144    32    33    2
   145   184   185    1
   146   161   162    2
   147    23    24   ar
   148    23    22    1
   149    14    15    1
   150    14    11    1
   151    15    16    1
   152   185   186    1
   153   152   153   ar
   154   152   151    1
   155    27    26    1
   156   144   143    1
   157   156   155    1
   158   145   143    1
   159    22    19    1
   160   187   186    2
   161   122   119    1
   162    10    11    1
   163   118   119    1
   164    11    12    1
   165   151   148    1
   166   143   140    1
   167   119   120    1
   168    13    12    2
   169   139   140    1
   170    19    20    1
   171    19    18    1
   172    21    20    2
   173   150   149    2
   174   140   141    1
   175   148   149    1
   176   148   147    1
   177   120   121    2
   178   142   141    2
