@<TRIPOS>MOLECULE
tmp/4zpiB00.pdb
 137 129 0 0 0
SMALL
GASTEIGER

@<TRIPOS>ATOM
      1  N        -45.9040   49.8600  259.7180 N.3    78  TYR78      -0.1241
      2  CA       -45.1060   50.9780  259.2530 C.3    78  TYR78       0.1605
      3  C        -45.5970   51.5540  257.9310 C.2    78  TYR78       0.2264
      4  O        -46.4260   50.9660  257.2440 O.2    78  TYR78      -0.2867
      5  CB       -43.6460   50.5640  259.1310 C.3    78  TYR78       0.0534
      6  CG       -43.3760   49.4100  258.1930 C.ar   78  TYR78      -0.0201
      7  CD1      -43.4500   48.0930  258.6360 C.ar   78  TYR78      -0.0009
      8  CD2      -43.0030   49.6370  256.8760 C.ar   78  TYR78      -0.0009
      9  CE1      -43.1820   47.0410  257.7860 C.ar   78  TYR78       0.0417
     10  CE2      -42.7330   48.5890  256.0170 C.ar   78  TYR78       0.0417
     11  CZ       -42.8290   47.2910  256.4730 C.ar   78  TYR78       0.1957
     12  OH       -42.5600   46.2450  255.6170 O.3    78  TYR78      -0.2866
     13  N        -44.2500   53.5690  254.2300 N.3    80  LEU80      -0.1245
     14  CA       -43.0870   53.4580  253.3640 C.3    80  LEU80       0.1561
     15  C        -43.1680   54.4090  252.1690 C.2    80  LEU80       0.2260
     16  O        -44.1170   54.3800  251.3900 O.2    80  LEU80      -0.2867
     17  CB       -42.9300   52.0170  252.8870 C.3    80  LEU80       0.0270
     18  CG       -41.5030   51.5580  252.5800 C.3    80  LEU80       0.0019
     19  CD1      -40.7160   51.4110  253.8780 C.3    80  LEU80       0.0001
     20  CD2      -41.4940   50.2600  251.7770 C.3    80  LEU80       0.0001
     21  N        -41.0170   55.5140  248.8290 N.3    82  ARG82      -0.1245
     22  CA       -39.8710   55.2410  247.9740 C.3    82  ARG82       0.1563
     23  C        -39.7780   56.2510  246.8340 C.2    82  ARG82       0.2260
     24  O        -40.7540   56.5190  246.1200 O.2    82  ARG82      -0.2867
     25  CB       -39.9260   53.8110  247.4430 C.3    82  ARG82       0.0307
     26  CG       -39.5090   52.7780  248.5040 C.3    82  ARG82       0.0489
     27  CD       -39.5160   51.3730  247.9620 C.3    82  ARG82       0.2205
     28  NE       -38.6180   51.2540  246.8200 N.pl3  82  ARG82      -0.0865
     29  CZ       -38.9100   50.5870  245.7090 C.cat  82  ARG82       0.5346
     30  NH1      -40.0780   49.9710  245.5900 N.pl3  82  ARG82       0.1354
     31  NH2      -38.0320   50.5330  244.7160 N.pl3  82  ARG82       0.1354
     32  N        -34.9620   47.4230  246.7310 N.3    88  LEU88      -0.1245
     33  CA       -35.0060   46.5040  247.8650 C.3    88  LEU88       0.1561
     34  C        -34.5140   45.1340  247.4160 C.2    88  LEU88       0.2260
     35  O        -35.2200   44.4050  246.7230 O.2    88  LEU88      -0.2867
     36  CB       -36.4230   46.4150  248.4430 C.3    88  LEU88       0.0270
     37  CG       -36.6020   45.7300  249.8030 C.3    88  LEU88       0.0019
     38  CD1      -35.9170   46.5040  250.9170 C.3    88  LEU88       0.0001
     39  CD2      -38.0790   45.5320  250.1190 C.3    88  LEU88       0.0001
     40  N        -34.7970   39.2590  250.1900 N.3    91  HIS91      -0.1241
     41  CA       -34.7140   38.6390  251.5090 C.3    91  HIS91       0.1621
     42  C        -35.8900   37.6910  251.7100 C.2    91  HIS91       0.2264
     43  O        -36.8180   37.6630  250.9090 O.2    91  HIS91      -0.2867
     44  CB       -34.7030   39.6910  252.6040 C.3    91  HIS91       0.0745
     45  CG       -35.9230   40.5480  252.6130 C.ar   91  HIS91       0.0817
     46  ND1      -36.1250   41.5560  251.6960 N.ar   91  HIS91      -0.2268
     47  CD2      -37.0140   40.5400  253.4130 C.ar   91  HIS91       0.1154
     48  CE1      -37.2790   42.1490  251.9430 C.ar   91  HIS91       0.1986
     49  NE2      -37.8420   41.5490  252.9770 N.ar   91  HIS91      -0.2212
     50  N        -47.6320   39.5640  256.2640 N.3   126  LYS126     -0.1245
     51  CA       -47.8610   41.0000  256.1110 C.3   126  LYS126      0.1561
     52  C        -49.0500   41.2790  255.2170 C.2   126  LYS126      0.2260
     53  O        -49.3220   40.5300  254.2850 O.2   126  LYS126     -0.2867
     54  CB       -46.6410   41.7240  255.5320 C.3   126  LYS126      0.0271
     55  CG       -45.5420   42.0290  256.5180 C.3   126  LYS126      0.0035
     56  CD       -44.5190   42.9540  255.8810 C.3   126  LYS126      0.0206
     57  CE       -43.2450   42.9960  256.6910 C.3   126  LYS126      0.1093
     58  NZ       -42.2160   43.7970  255.9980 N.3   126  LYS126     -0.1314
     59  N        -49.6810   44.2820  252.8820 N.3   128  LEU128     -0.1245
     60  CA       -49.2430   45.5100  252.2330 C.3   128  LEU128      0.1561
     61  C        -50.4510   46.2580  251.6700 C.2   128  LEU128      0.2260
     62  O        -51.1520   45.7280  250.8010 O.2   128  LEU128     -0.2867
     63  CB       -48.2430   45.2240  251.1160 C.3   128  LEU128      0.0270
     64  CG       -46.9660   44.4460  251.4430 C.3   128  LEU128      0.0019
     65  CD1      -45.8540   44.8150  250.4630 C.3   128  LEU128      0.0001
     66  CD2      -46.4980   44.6500  252.8720 C.3   128  LEU128      0.0001
     67  N        -51.3260   49.2270  249.4140 N.3   130  TYR130     -0.1241
     68  CA       -50.7090   50.1740  248.4880 C.3   130  TYR130      0.1605
     69  C        -51.5270   51.4500  248.3780 C.2   130  TYR130      0.2264
     70  O        -52.7610   51.4220  248.3280 O.2   130  TYR130     -0.2867
     71  CB       -50.5070   49.5600  247.1050 C.3   130  TYR130      0.0534
     72  CG       -49.3620   48.5800  247.0650 C.ar  130  TYR130     -0.0201
     73  CD1      -48.0640   49.0140  246.8470 C.ar  130  TYR130     -0.0009
     74  CD2      -49.5790   47.2130  247.2650 C.ar  130  TYR130     -0.0009
     75  CE1      -47.0110   48.1230  246.8210 C.ar  130  TYR130      0.0417
     76  CE2      -48.5320   46.3150  247.2410 C.ar  130  TYR130      0.0417
     77  CZ       -47.2460   46.7690  247.0200 C.ar  130  TYR130      0.1957
     78  OH       -46.1960   45.8670  246.9910 O.3   130  TYR130     -0.2866
     79  N        -42.9630   45.1880  243.1980 N.3   142  PHE142     -0.1241
     80  CA       -42.7440   43.9840  243.9920 C.3   142  PHE142      0.1605
     81  C        -42.2180   42.8480  243.1060 C.2   142  PHE142      0.2264
     82  O        -42.7790   42.5750  242.0540 O.2   142  PHE142     -0.2867
     83  CB       -44.0560   43.5780  244.6770 C.3   142  PHE142      0.0534
     84  CG       -43.9180   42.4450  245.6680 C.ar  142  PHE142     -0.0203
     85  CD1      -44.1870   41.1260  245.2870 C.ar  142  PHE142     -0.0042
     86  CD2      -43.5440   42.6960  246.9880 C.ar  142  PHE142     -0.0042
     87  CE1      -44.0760   40.0900  246.2020 C.ar  142  PHE142     -0.0003
     88  CE2      -43.4310   41.6540  247.9100 C.ar  142  PHE142     -0.0003
     89  CZ       -43.6970   40.3540  247.5130 C.ar  142  PHE142     -0.0000
     90  N        -49.0500   38.7220  252.2810 N.3   189  LEU189     -0.1245
     91  CA       -47.7260   38.1540  252.0650 C.3   189  LEU189      0.1561
     92  C        -47.3030   37.1330  253.1160 C.2   189  LEU189      0.2260
     93  O        -47.3790   37.4070  254.3160 O.2   189  LEU189     -0.2867
     94  CB       -46.6900   39.2800  252.0210 C.3   189  LEU189      0.0270
     95  CG       -45.2020   38.9330  251.9050 C.3   189  LEU189      0.0019
     96  CD1      -44.9590   38.0670  250.6830 C.3   189  LEU189      0.0001
     97  CD2      -44.3560   40.2020  251.8290 C.3   189  LEU189      0.0001
     98  N        -38.2710   37.7210  248.4130 N.3   195  HIS195     -0.1226
     99  CA       -38.8490   38.8390  247.6890 C.3   195  HIS195      0.1752
    100  C        -38.0720   40.1220  247.9070 C.2   195  HIS195      0.2597
    101  O        -37.2860   40.2180  248.8410 O.2   195  HIS195     -0.2718
    102  CB       -40.2970   39.0470  248.1310 C.3   195  HIS195      0.0759
    103  CG       -40.4250   39.4720  249.5610 C.ar  195  HIS195      0.0818
    104  ND1      -40.2260   38.6080  250.6170 N.ar  195  HIS195     -0.2268
    105  CD2      -40.7090   40.6760  250.1120 C.ar  195  HIS195      0.1154
    106  CE1      -40.3980   39.2540  251.7540 C.ar  195  HIS195      0.1986
    107  NE2      -40.6940   40.5090  251.4760 N.ar  195  HIS195     -0.2212
    108  N        -38.3330   41.1020  247.0410 N.am  196  GLY196     -0.1942
    109  CA       -37.7540   42.4340  247.1050 C.3   196  GLY196      0.2014
    110  C        -38.5550   43.3790  246.2260 C.2   196  GLY196      0.2639
    111  O        -39.7410   43.1630  246.0050 O.2   196  GLY196     -0.2714
    112  N        -37.9270   44.4450  245.7390 N.am  197  THR197     -0.1950
    113  CA       -38.5830   45.3350  244.7730 C.3   197  THR197      0.1897
    114  C        -37.6140   45.6950  243.6770 C.2   197  THR197      0.2313
    115  O        -36.4270   45.8340  243.9350 O.2   197  THR197     -0.2863
    116  CB       -39.0960   46.6530  245.4010 C.3   197  THR197      0.1794
    117  OG1      -37.9810   47.4590  245.7880 O.3   197  THR197     -0.2208
    118  CG2      -39.9690   46.3970  246.6100 C.3   197  THR197      0.0378
    119  N        -43.7760   56.6150  245.5100 N.3   206  ARG206     -0.1245
    120  CA       -44.4880   55.3700  245.7350 C.3   206  ARG206      0.1563
    121  C        -44.7250   55.2590  247.2350 C.2   206  ARG206      0.2260
    122  O        -43.7950   55.4230  248.0300 O.2   206  ARG206     -0.2867
    123  CB       -43.6770   54.1900  245.1840 C.3   206  ARG206      0.0307
    124  CG       -43.8780   52.8470  245.8770 C.3   206  ARG206      0.0489
    125  CD       -42.7620   51.8640  245.4840 C.3   206  ARG206      0.2205
    126  NE       -43.2410   50.4840  245.3450 N.pl3 206  ARG206     -0.0865
    127  CZ       -43.1170   49.5260  246.2680 C.cat 206  ARG206      0.5346
    128  NH1      -42.5190   49.7780  247.4250 N.pl3 206  ARG206      0.1354
    129  NH2      -43.5920   48.3030  246.0290 N.pl3 206  ARG206      0.1354
    130  N        -46.9460   53.1900  250.5700 N.3   208  LEU208     -0.1245
    131  CA       -47.7560   52.0770  251.0490 C.3   208  LEU208      0.1561
    132  C        -47.6830   51.9790  252.5610 C.2   208  LEU208      0.2260
    133  O        -46.7650   52.5160  253.1750 O.2   208  LEU208     -0.2867
    134  CB       -47.2980   50.7630  250.4170 C.3   208  LEU208      0.0270
    135  CG       -45.8470   50.3600  250.6780 C.3   208  LEU208      0.0019
    136  CD1      -45.7550   49.4590  251.8910 C.3   208  LEU208      0.0001
    137  CD2      -45.2780   49.6580  249.4710 C.3   208  LEU208      0.0001
@<TRIPOS>BOND
     1    82    81    2
     2    81    80    1
     3    79    80    1
     4   114   115    2
     5   114   113    1
     6    80    83    1
     7    83    84    1
     8    31    29    1
     9   113   116    1
    10   113   112    1
    11   123   120    1
    12   123   124    1
    13    85    84   ar
    14    85    87   ar
    15   126   125    1
    16   126   127    2
    17   116   117    1
    18   116   118    1
    19   125   124    1
    20   119   120    1
    21    30    29    1
    22    84    86   ar
    23    29    28    2
    24   120   121    1
    25   112   110   am
    26   111   110    2
    27   129   127    1
    28    24    23    2
    29    87    89   ar
    30   110   109    1
    31   127   128    1
    32    35    34    2
    33    32    33    1
    34    28    27    1
    35    75    73   ar
    36    75    77   ar
    37    23    22    1
    38    73    72   ar
    39    86    88   ar
    40    78    77    1
    41    77    76   ar
    42   108   109    1
    43   108   100   am
    44    72    71    1
    45    72    74   ar
    46    71    68    1
    47   121   122    2
    48    76    74   ar
    49    34    33    1
    50    25    22    1
    51    25    26    1
    52    89    88   ar
    53    99   100    1
    54    99   102    1
    55    99    98    1
    56    33    36    1
    57   100   101    2
    58    27    26    1
    59    22    21    1
    60   102   103    1
    61    70    69    2
    62    69    68    1
    63    36    37    1
    64    68    67    1
    65   137   135    1
    66   103   105   ar
    67   103   104   ar
    68    37    39    1
    69    37    38    1
    70   105   107   ar
    71    40    41    1
    72   134   135    1
    73   134   131    1
    74    65    64    1
    75   130   131    1
    76   104   106   ar
    77   135   136    1
    78    96    95    1
    79    62    61    2
    80    43    42    2
    81   131   132    1
    82    63    64    1
    83    63    60    1
    84    16    15    2
    85    64    66    1
    86   107   106   ar
    87    41    42    1
    88    41    44    1
    89    61    60    1
    90    46    48   ar
    91    46    45   ar
    92    20    18    1
    93    97    95    1
    94    95    94    1
    95    48    49   ar
    96    94    91    1
    97    91    90    1
    98    91    92    1
    99    15    14    1
   100    60    59    1
   101   132   133    2
   102    18    17    1
   103    18    19    1
   104    44    45    1
   105    45    47   ar
   106    17    14    1
   107    49    47   ar
   108    92    93    2
   109    14    13    1
   110    53    52    2
   111    52    51    1
   112    54    51    1
   113    54    55    1
   114    12    11    1
   115    56    55    1
   116    56    57    1
   117    58    57    1
   118    10    11   ar
   119    10     8   ar
   120    51    50    1
   121    11     9   ar
   122     8     6   ar
   123     4     3    2
   124     9     7   ar
   125     3     2    1
   126     6     7   ar
   127     6     5    1
   128     5     2    1
   129     2     1    1
