@<TRIPOS>MOLECULE
tmp/4zq0B00.pdb
 141 130 0 0 0
SMALL
GASTEIGER

@<TRIPOS>ATOM
      1  N         67.3350    0.8180  -25.0660 N.3    44  SER44      -0.1202
      2  CA        66.2950    1.7900  -24.6860 C.3    44  SER44       0.2020
      3  C         65.4000    1.2690  -23.5520 C.2    44  SER44       0.2618
      4  O         65.0420    2.0350  -22.6450 O.2    44  SER44      -0.2717
      5  CB        65.4460    2.1630  -25.8960 C.3    44  SER44       0.2103
      6  OG        64.8280    1.0120  -26.4180 O.3    44  SER44      -0.2182
      7  N         65.0610   -0.0250  -23.5980 N.am   45  VAL45      -0.1979
      8  CA        64.3490   -0.6780  -22.4800 C.3    45  VAL45       0.1595
      9  C         65.1510   -0.5950  -21.1780 C.2    45  VAL45       0.2287
     10  O         64.5790   -0.3370  -20.1150 O.2    45  VAL45      -0.2864
     11  CB        63.9730   -2.1540  -22.8010 C.3    45  VAL45       0.0276
     12  CG1       63.5800   -2.9460  -21.5530 C.3    45  VAL45       0.0022
     13  CG2       62.8280   -2.1920  -23.7980 C.3    45  VAL45       0.0022
     14  N         65.4030    3.3670  -20.2050 N.3    48  LYS48      -0.1245
     15  CA        64.1150    3.9640  -19.8240 C.3    48  LYS48       0.1561
     16  C         63.6240    3.4940  -18.4550 C.2    48  LYS48       0.2260
     17  O         63.0650    4.2850  -17.6940 O.2    48  LYS48      -0.2867
     18  CB        63.0450    3.6900  -20.8760 C.3    48  LYS48       0.0271
     19  CG        61.7670    4.4950  -20.6980 C.3    48  LYS48       0.0035
     20  CD        61.9410    5.9480  -21.0970 C.3    48  LYS48       0.0206
     21  CE        60.6630    6.7340  -20.8830 C.3    48  LYS48       0.1093
     22  NZ        59.6520    6.4360  -21.9350 N.3    48  LYS48      -0.1314
     23  N         61.9210    9.8840  -12.7880 N.3    55  ARG55      -0.1245
     24  CA        60.8670   10.8160  -13.2500 C.3    55  ARG55       0.1563
     25  C         59.6220   10.7350  -12.3630 C.2    55  ARG55       0.2260
     26  O         59.0280   11.7650  -12.0340 O.2    55  ARG55      -0.2867
     27  CB        60.4200   10.5240  -14.6780 C.3    55  ARG55       0.0307
     28  CG        61.4200   10.8420  -15.7600 C.3    55  ARG55       0.0489
     29  CD        60.9140   10.3570  -17.1160 C.3    55  ARG55       0.2205
     30  NE        59.9830   11.2830  -17.7780 N.pl3  55  ARG55      -0.0865
     31  CZ        59.2410   10.9850  -18.8490 C.cat  55  ARG55       0.5346
     32  NH1       59.2630    9.7740  -19.4030 N.pl3  55  ARG55       0.1354
     33  NH2       58.4510   11.9050  -19.3710 N.pl3  55  ARG55       0.1354
     34  N         66.4310   10.0350  -32.3310 N.3   123  LYS123     -0.1245
     35  CA        65.1980   10.0370  -31.5250 C.3   123  LYS123      0.1561
     36  C         65.5260    9.9340  -30.0350 C.2   123  LYS123      0.2260
     37  O         65.1470   10.8000  -29.2350 O.2   123  LYS123     -0.2867
     38  CB        64.2710    8.8850  -31.9410 C.3   123  LYS123      0.0271
     39  CG        63.1220    8.6020  -30.9810 C.3   123  LYS123      0.0035
     40  CD        62.1170    7.6100  -31.5490 C.3   123  LYS123      0.0206
     41  CE        61.6200    6.6000  -30.5200 C.3   123  LYS123      0.1093
     42  NZ        61.4510    7.1130  -29.1310 N.3   123  LYS123     -0.1314
     43  N         64.9570   15.8750  -23.8340 N.3   130  ARG130     -0.1231
     44  CA        63.6050   16.2460  -23.3700 C.3   130  ARG130      0.1694
     45  C         63.4110   15.9310  -21.8650 C.2   130  ARG130      0.2592
     46  O         62.8900   16.7650  -21.0920 O.2   130  ARG130     -0.2718
     47  CB        62.5390   15.5700  -24.2520 C.3   130  ARG130      0.0321
     48  CG        61.0970   15.8060  -23.8460 C.3   130  ARG130      0.0489
     49  CD        60.1190   15.4700  -24.9720 C.3   130  ARG130      0.2205
     50  NE        60.2320   14.0820  -25.4280 N.pl3 130  ARG130     -0.0865
     51  CZ        59.7820   13.0140  -24.7670 C.cat 130  ARG130      0.5346
     52  NH1       59.1690   13.1360  -23.5900 N.pl3 130  ARG130      0.1354
     53  NH2       59.9550   11.8050  -25.2880 N.pl3 130  ARG130      0.1354
     54  N         63.8870   14.7620  -21.4400 N.am  131  TYR131     -0.1976
     55  CA        63.7920   14.3860  -20.0230 C.3   131  TYR131      0.1639
     56  C         64.5830   15.3320  -19.1110 C.2   131  TYR131      0.2290
     57  O         64.1070   15.6560  -18.0250 O.2   131  TYR131     -0.2864
     58  CB        64.2140   12.9270  -19.7840 C.3   131  TYR131      0.0560
     59  CG        63.5160   11.8840  -20.6550 C.ar  131  TYR131     -0.0198
     60  CD1       62.2570   12.1210  -21.2250 C.ar  131  TYR131     -0.0009
     61  CD2       64.1130   10.6430  -20.8960 C.ar  131  TYR131     -0.0009
     62  CE1       61.6370   11.1640  -22.0160 C.ar  131  TYR131      0.0417
     63  CE2       63.4920    9.6800  -21.6830 C.ar  131  TYR131      0.0417
     64  CZ        62.2560    9.9470  -22.2380 C.ar  131  TYR131      0.1957
     65  OH        61.6240    9.0120  -23.0160 O.3   131  TYR131     -0.2866
     66  N         57.0540    6.2850  -33.9570 N.3   171  GLY171     -0.1225
     67  CA        57.6810    6.4790  -32.6480 C.3   171  GLY171      0.1811
     68  C         58.3750    7.8190  -32.5030 C.2   171  GLY171      0.2280
     69  O         58.2800    8.4490  -31.4520 O.2   171  GLY171     -0.2866
     70  N         55.4420   10.9990  -32.8390 N.3   174  LEU174     -0.1231
     71  CA        54.7980   11.0780  -31.5390 C.3   174  LEU174      0.1693
     72  C         55.6250   11.8860  -30.5380 C.2   174  LEU174      0.2592
     73  O         55.1530   12.8810  -29.9830 O.2   174  LEU174     -0.2718
     74  CB        54.5720    9.6600  -30.9950 C.3   174  LEU174      0.0284
     75  CG        53.9330    9.5140  -29.6080 C.3   174  LEU174      0.0019
     76  CD1       52.5410   10.1210  -29.6140 C.3   174  LEU174      0.0001
     77  CD2       53.8930    8.0540  -29.1800 C.3   174  LEU174      0.0001
     78  N         56.8620   11.4540  -30.3230 N.am  175  ASN175     -0.1974
     79  CA        57.7200   12.0520  -29.3040 C.3   175  ASN175      0.1688
     80  C         58.1790   13.4520  -29.6670 C.2   175  ASN175      0.2292
     81  O         58.3570   14.3030  -28.7920 O.2   175  ASN175     -0.2864
     82  CB        58.9270   11.1620  -29.0300 C.3   175  ASN175      0.1181
     83  CG        58.5330    9.8440  -28.4170 C.2   175  ASN175      0.2629
     84  OD1       57.3910    9.4130  -28.5510 O.2   175  ASN175     -0.2716
     85  ND2       59.4660    9.1980  -27.7340 N.am  175  ASN175     -0.0877
     86  N         55.2550   15.4460  -28.8630 N.3   178  VAL178     -0.1245
     87  CA        55.2670   15.5650  -27.3980 C.3   178  VAL178      0.1561
     88  C         56.2490   16.6360  -26.9470 C.2   178  VAL178      0.2260
     89  O         55.9350   17.4290  -26.0730 O.2   178  VAL178     -0.2867
     90  CB        55.6050   14.2190  -26.7140 C.3   178  VAL178      0.0252
     91  CG1       55.9560   14.3950  -25.2340 C.3   178  VAL178      0.0019
     92  CG2       54.4400   13.2490  -26.8750 C.3   178  VAL178      0.0019
     93  N         54.8640   19.7580  -24.9500 N.3   182  GLU182     -0.1245
     94  CA        55.2380   19.8510  -23.5450 C.3   182  GLU182      0.1567
     95  C         56.4110   20.7920  -23.2820 C.2   182  GLU182      0.2260
     96  O         56.3370   21.5780  -22.3460 O.2   182  GLU182     -0.2867
     97  CB        55.5290   18.4550  -22.9620 C.3   182  GLU182      0.0388
     98  CG        54.3200   17.5140  -22.9520 C.3   182  GLU182      0.1160
     99  CD        54.5680   16.1730  -22.2590 C.2   182  GLU182      0.3649
    100  OE1       53.6330   15.3490  -22.2550 O.co2 182  GLU182     -0.2457
    101  OE2       55.6760   15.9230  -21.7210 O.co2 182  GLU182     -0.2457
    102  N         50.1380    0.2150  -32.1890 N.3   218  LEU218     -0.1231
    103  CA        50.1690    0.7750  -30.8340 C.3   218  LEU218      0.1693
    104  C         50.4180    2.2850  -30.8160 C.2   218  LEU218      0.2591
    105  O         49.8270    2.9950  -30.0160 O.2   218  LEU218     -0.2718
    106  CB        51.2310    0.0630  -29.9860 C.3   218  LEU218      0.0284
    107  CG        51.4770    0.5480  -28.5520 C.3   218  LEU218      0.0019
    108  CD1       50.1960    0.7200  -27.7470 C.3   218  LEU218      0.0001
    109  CD2       52.4030   -0.4320  -27.8560 C.3   218  LEU218      0.0001
    110  N         51.2900    2.7630  -31.6960 N.am  219  ILE219     -0.1980
    111  CA        51.7030    4.1680  -31.6910 C.3   219  ILE219      0.1595
    112  C         50.6480    5.0500  -32.3490 C.2   219  ILE219      0.2287
    113  O         50.3060    6.1350  -31.8240 O.2   219  ILE219     -0.2864
    114  CB        53.1040    4.3220  -32.3270 C.3   219  ILE219      0.0276
    115  CG1       54.1520    3.7390  -31.3650 C.3   219  ILE219      0.0022
    116  CG2       53.4330    5.7840  -32.6250 C.3   219  ILE219      0.0022
    117  CD1       55.4060    3.2420  -32.0350 C.3   219  ILE219      0.0001
    118  N         48.3210    6.0230  -29.8380 N.3   222  LEU222     -0.1245
    119  CA        48.8680    7.0720  -28.9620 C.3   222  LEU222      0.1561
    120  C         48.8160    8.4730  -29.6050 C.2   222  LEU222      0.2260
    121  O         48.4140    9.4700  -28.9550 O.2   222  LEU222     -0.2867
    122  CB        50.3000    6.7290  -28.5530 C.3   222  LEU222      0.0270
    123  CG        50.4780    5.4770  -27.6930 C.3   222  LEU222      0.0019
    124  CD1       51.9500    5.1160  -27.5610 C.3   222  LEU222      0.0001
    125  CD2       49.8490    5.6680  -26.3250 C.3   222  LEU222      0.0001
    126  N         45.2990    9.5090  -29.4070 N.3   225  ASP225     -0.1225
    127  CA        45.0650    9.7900  -27.9770 C.3   225  ASP225      0.1805
    128  C         45.5410   11.1840  -27.5960 C.2   225  ASP225      0.2597
    129  O         44.8030   11.9430  -26.9580 O.2   225  ASP225     -0.2718
    130  CB        45.7490    8.7630  -27.0580 C.3   225  ASP225      0.1424
    131  CG        45.0840    7.3890  -27.0900 C.2   225  ASP225      0.3668
    132  OD1       44.0140    7.2430  -27.7260 O.co2 225  ASP225     -0.2456
    133  OD2       45.6490    6.4480  -26.4770 O.co2 225  ASP225     -0.2456
    134  N         46.7620   11.5300  -28.0000 N.am  226  ASN226     -0.1974
    135  CA        47.2320   12.9080  -27.7910 C.3   226  ASN226      0.1688
    136  C         46.4100   13.9120  -28.5710 C.2   226  ASN226      0.2292
    137  O         45.7950   14.8150  -27.9800 O.2   226  ASN226     -0.2864
    138  CB        48.7100   13.0470  -28.1410 C.3   226  ASN226      0.1181
    139  CG        49.6000   12.3590  -27.1350 C.2   226  ASN226      0.2629
    140  OD1       49.2120   12.1790  -25.9870 O.2   226  ASN226     -0.2716
    141  ND2       50.7950   11.9780  -27.5540 N.am  226  ASN226     -0.0877
@<TRIPOS>BOND
     1    66    67    1
     2    70    71    1
     3    67    68    1
     4   116   114    1
     5    68    69    2
     6   112   113    2
     7   112   111    1
     8    34    35    1
     9   114   111    1
    10   114   115    1
    11   102   103    1
    12   117   115    1
    13    38    35    1
    14    38    39    1
    15   110   111    1
    16   110   104   am
    17    40    39    1
    18    40    41    1
    19    71    74    1
    20    71    72    1
    21    35    36    1
    22    74    75    1
    23   103   104    1
    24   103   106    1
    25   104   105    2
    26    72    78   am
    27    72    73    2
    28    41    42    1
    29    78    79    1
    30    36    37    2
    31   106   107    1
    32   118   119    1
    33    80    79    1
    34    80    81    2
    35    76    75    1
    36    75    77    1
    37   120   119    1
    38   120   121    2
    39   126   127    1
    40    79    82    1
    41    82    83    1
    42   119   122    1
    43    86    87    1
    44   136   137    2
    45   136   135    1
    46   122   123    1
    47   107   109    1
    48   107   108    1
    49    84    83    2
    50    83    85   am
    51   138   135    1
    52   138   139    1
    53   134   135    1
    54   134   128   am
    55   127   128    1
    56   127   130    1
    57   132   131   ar
    58   123   124    1
    59   123   125    1
    60   128   129    2
    61   141   139   am
    62    87    88    1
    63    87    90    1
    64   139   140    2
    65   131   130    1
    66   131   133   ar
    67    88    89    2
    68    92    90    1
    69    90    91    1
    70     6     5    1
    71     5     2    1
    72    50    49    1
    73    50    51    2
    74    53    51    1
    75     1     2    1
    76    49    48    1
    77    93    94    1
    78    51    52    1
    79     2     3    1
    80    47    48    1
    81    47    44    1
    82    43    44    1
    83    13    11    1
    84     7     3   am
    85     7     8    1
    86     3     4    2
    87    94    95    1
    88    94    97    1
    89    44    45    1
    90    95    96    2
    91    65    64    1
    92    97    98    1
    93    98    99    1
    94    11     8    1
    95    11    12    1
    96     8     9    1
    97    99   100   ar
    98    99   101   ar
    99    64    62   ar
   100    64    63   ar
   101    62    60   ar
   102    22    21    1
   103    45    54   am
   104    45    46    2
   105    63    61   ar
   106    54    55    1
   107    60    59   ar
   108     9    10    2
   109    20    21    1
   110    20    19    1
   111    61    59   ar
   112    18    19    1
   113    18    15    1
   114    59    58    1
   115    14    15    1
   116    55    58    1
   117    55    56    1
   118    15    16    1
   119    32    31    1
   120    33    31    1
   121    56    57    2
   122    31    30    2
   123    16    17    2
   124    30    29    1
   125    29    28    1
   126    28    27    1
   127    27    24    1
   128    24    23    1
   129    24    25    1
   130    25    26    2
