@<TRIPOS>MOLECULE
tmp/4zqgB00.pdb
 214 206 0 0 0
SMALL
GASTEIGER

@<TRIPOS>ATOM
      1  N        -13.6250    7.6320  -59.5490 N.3     8  GLY8       -0.1225
      2  CA       -12.3220    8.2910  -59.4580 C.3     8  GLY8        0.1811
      3  C        -11.1980    7.3130  -59.7630 C.2     8  GLY8        0.2280
      4  O        -10.1230    7.4230  -59.2040 O.2     8  GLY8       -0.2866
      5  N         -9.0220    6.8410  -62.0880 N.3    10  THR10      -0.1203
      6  CA        -7.8350    7.2580  -62.8260 C.3    10  THR10       0.1994
      7  C         -6.8440    7.9680  -61.9650 C.2    10  THR10       0.2618
      8  O         -5.7370    8.2120  -62.4070 O.2    10  THR10      -0.2717
      9  CB        -8.1740    8.2290  -63.9830 C.3    10  THR10       0.1784
     10  OG1       -8.9840    9.3240  -63.5040 O.3    10  THR10      -0.2211
     11  CG2       -8.9150    7.4990  -65.0850 C.3    10  THR10       0.0376
     12  N         -7.2190    8.3130  -60.7470 N.am   11  GLY11      -0.1942
     13  CA        -6.2960    9.0140  -59.8710 C.3    11  GLY11       0.2014
     14  C         -5.4200    8.0770  -59.0430 C.2    11  GLY11       0.2640
     15  O         -5.3650    6.8690  -59.2850 O.2    11  GLY11      -0.2714
     16  N         -4.7760    8.6530  -58.0320 N.am   12  SER12      -0.1935
     17  CA        -3.8050    7.9730  -57.2010 C.3    12  SER12       0.2055
     18  C         -4.4730    6.7980  -56.4850 C.2    12  SER12       0.2642
     19  O         -4.0280    5.6470  -56.5430 O.2    12  SER12      -0.2714
     20  CB        -3.2780    8.9880  -56.1940 C.3    12  SER12       0.2130
     21  OG        -2.0380    8.6030  -55.6990 O.3    12  SER12      -0.2179
     22  N         -5.5730    7.1090  -55.8150 N.am   13  ILE13      -0.1977
     23  CA        -6.3140    6.1280  -55.0610 C.3    13  ILE13       0.1596
     24  C         -6.7710    5.0390  -56.0200 C.2    13  ILE13       0.2287
     25  O         -6.6390    3.8420  -55.7500 O.2    13  ILE13      -0.2864
     26  CB        -7.4760    6.8090  -54.2920 C.3    13  ILE13       0.0276
     27  CG1       -6.9490    7.6460  -53.1440 C.3    13  ILE13       0.0022
     28  CG2       -8.4580    5.8000  -53.7450 C.3    13  ILE13       0.0022
     29  CD1       -6.2950    6.8640  -52.0100 C.3    13  ILE13       0.0001
     30  N        -14.7120    5.4310  -63.3290 N.3    34  THR34      -0.1203
     31  CA       -14.9960    6.7810  -63.7320 C.3    34  THR34       0.1994
     32  C        -13.7670    7.6190  -63.7020 C.2    34  THR34       0.2618
     33  O        -12.8830    7.3880  -62.9120 O.2    34  THR34      -0.2717
     34  CB       -15.9970    7.4880  -62.8360 C.3    34  THR34       0.1784
     35  OG1      -15.3370    8.1040  -61.7060 O.3    34  THR34      -0.2211
     36  CG2      -17.1210    6.5480  -62.4160 C.3    34  THR34       0.0376
     37  N        -13.7230    8.6060  -64.5880 N.am   35  GLY35      -0.1942
     38  CA       -12.5640    9.4830  -64.7290 C.3    35  GLY35       0.2014
     39  C        -13.0080   10.8050  -65.3120 C.2    35  GLY35       0.2639
     40  O        -13.7960   10.8330  -66.2320 O.2    35  GLY35      -0.2714
     41  N        -12.4830   11.9090  -64.8300 N.am   36  PHE36      -0.1959
     42  CA       -12.9770   13.1980  -65.2860 C.3    36  PHE36       0.1771
     43  C        -12.2250   13.6440  -66.5380 C.2    36  PHE36       0.2620
     44  O        -12.8350   13.8310  -67.5570 O.2    36  PHE36      -0.2715
     45  CB       -12.8700   14.2230  -64.1580 C.3    36  PHE36       0.0574
     46  CG       -13.6480   15.4930  -64.3890 C.ar   36  PHE36      -0.0200
     47  CD1      -12.9840   16.6850  -64.6880 C.ar   36  PHE36      -0.0042
     48  CD2      -15.0400   15.5130  -64.2750 C.ar   36  PHE36      -0.0042
     49  CE1      -13.6950   17.8610  -64.8670 C.ar   36  PHE36      -0.0003
     50  CE2      -15.7470   16.6910  -64.4600 C.ar   36  PHE36      -0.0003
     51  CZ       -15.0730   17.8640  -64.7420 C.ar   36  PHE36      -0.0000
     52  N        -10.9020   13.7450  -66.4630 N.am   37  SER37      -0.1936
     53  CA       -10.0930   14.3290  -67.5320 C.3    37  SER37       0.2055
     54  C         -9.3300   13.3430  -68.4100 C.2    37  SER37       0.2642
     55  O         -9.1510   13.5890  -69.5880 O.2    37  SER37      -0.2714
     56  CB        -9.0730   15.3000  -66.9310 C.3    37  SER37       0.2130
     57  OG        -9.6530   16.5810  -66.7680 O.3    37  SER37      -0.2179
     58  N         -8.8350   12.2530  -67.8370 N.am   38  ARG38      -0.1977
     59  CA        -7.8400   11.4370  -68.5340 C.3    38  ARG38       0.1597
     60  C         -8.5330   10.3540  -69.3550 C.2    38  ARG38       0.2287
     61  O         -8.5840    9.1640  -68.9680 O.2    38  ARG38      -0.2864
     62  CB        -6.8290   10.8600  -67.5340 C.3    38  ARG38       0.0334
     63  CG        -5.6750   11.8010  -67.2090 C.3    38  ARG38       0.0492
     64  CD        -5.0600   11.5000  -65.8600 C.3    38  ARG38       0.2205
     65  NE        -5.9360   11.9770  -64.7920 N.pl3  38  ARG38      -0.0865
     66  CZ        -5.6200   11.9840  -63.4920 C.cat  38  ARG38       0.5346
     67  NH1       -4.4340   11.5290  -63.0930 N.pl3  38  ARG38       0.1354
     68  NH2       -6.4930   12.4480  -62.5840 N.pl3  38  ARG38       0.1354
     69  N        -22.3870   14.4300  -63.3000 N.3    81  ASP81      -0.1239
     70  CA       -22.8840   14.0120  -62.0170 C.3    81  ASP81       0.1674
     71  C        -24.0150   13.0070  -62.1740 C.2    81  ASP81       0.2266
     72  O        -24.2260   12.1250  -61.3540 O.2    81  ASP81      -0.2867
     73  CB       -23.3570   15.2470  -61.2260 C.3    81  ASP81       0.1410
     74  CG       -22.1980   16.2200  -60.8910 C.2    81  ASP81       0.3668
     75  OD1      -22.1980   17.3200  -61.4780 O.co2  81  ASP81      -0.2456
     76  OD2      -21.2940   15.8940  -60.0700 O.co2  81  ASP81      -0.2456
     77  N        -22.4950    9.6310  -62.4200 N.3    84  LEU84      -0.1245
     78  CA       -21.9240    9.1710  -61.1760 C.3    84  LEU84       0.1561
     79  C        -23.0390    8.6540  -60.2620 C.2    84  LEU84       0.2260
     80  O        -22.9000    7.6030  -59.6280 O.2    84  LEU84      -0.2867
     81  CB       -21.1330   10.3000  -60.5080 C.3    84  LEU84       0.0270
     82  CG       -20.0400   10.9450  -61.3400 C.3    84  LEU84       0.0019
     83  CD1      -19.3370   12.0780  -60.6040 C.3    84  LEU84       0.0001
     84  CD2      -19.0500    9.8890  -61.7650 C.3    84  LEU84       0.0001
     85  N        -13.6260    7.7360  -54.6410 N.3    99  ALA99      -0.1231
     86  CA       -12.3120    8.4120  -54.7260 C.3    99  ALA99       0.1694
     87  C        -12.2830    9.6270  -55.6150 C.2    99  ALA99       0.2592
     88  O        -11.2170    9.9660  -56.1020 O.2    99  ALA99      -0.2718
     89  CB       -11.2100    7.4480  -55.1520 C.3    99  ALA99       0.0304
     90  N        -13.4260   10.2820  -55.7970 N.am  100  ILE100     -0.1966
     91  CA       -13.4650   11.5580  -56.4790 C.3   100  ILE100      0.1727
     92  C        -12.9190   12.5680  -55.5100 C.2   100  ILE100      0.2616
     93  O        -13.3430   12.5800  -54.4050 O.2   100  ILE100     -0.2715
     94  CB       -14.9010   12.0450  -56.7760 C.3   100  ILE100      0.0290
     95  CG1      -15.7330   11.0680  -57.6410 C.3   100  ILE100      0.0022
     96  CG2      -14.8600   13.4150  -57.4470 C.3   100  ILE100      0.0023
     97  CD1      -14.9310   10.2520  -58.5840 C.3   100  ILE100      0.0001
     98  N        -12.0270   13.4480  -55.9280 N.am  101  VAL101     -0.1977
     99  CA       -11.5100   14.4800  -55.0190 C.3   101  VAL101      0.1596
    100  C        -12.4900   15.6460  -54.8500 C.2   101  VAL101      0.2287
    101  O        -13.2340   16.0030  -55.7420 O.2   101  VAL101     -0.2864
    102  CB       -10.1350   15.0260  -55.4720 C.3   101  VAL101      0.0276
    103  CG1      -10.2460   15.7930  -56.7660 C.3   101  VAL101      0.0022
    104  CG2       -9.5410   15.9290  -54.4210 C.3   101  VAL101      0.0022
    105  N        -16.7230   17.6460  -55.5570 N.3   104  ALA104     -0.1245
    106  CA       -17.2470   16.9620  -56.7180 C.3   104  ALA104      0.1562
    107  C        -17.7000   15.5230  -56.3970 C.2   104  ALA104      0.2260
    108  O        -18.4900   14.9500  -57.1310 O.2   104  ALA104     -0.2867
    109  CB       -16.2200   16.9830  -57.8310 C.3   104  ALA104      0.0290
    110  N        -12.5130    7.2980  -49.6090 N.3   122  ALA122     -0.1231
    111  CA       -11.2270    7.9710  -49.6590 C.3   122  ALA122      0.1694
    112  C        -11.5500    9.4330  -49.5490 C.2   122  ALA122      0.2592
    113  O        -10.9910   10.1740  -48.7620 O.2   122  ALA122     -0.2718
    114  CB       -10.5170    7.6850  -50.9840 C.3   122  ALA122      0.0304
    115  N        -12.4870    9.8050  -50.3890 N.am  123  ASN123     -0.1960
    116  CA       -13.0160   11.1340  -50.5140 C.3   123  ASN123      0.1819
    117  C        -13.5330   11.7380  -49.2070 C.2   123  ASN123      0.2621
    118  O        -14.7220   11.6260  -48.8590 O.2   123  ASN123     -0.2715
    119  CB       -14.1340   11.0460  -51.5490 C.3   123  ASN123      0.1195
    120  CG       -14.8420   12.3120  -51.7190 C.2   123  ASN123      0.2630
    121  OD1      -16.0610   12.3250  -51.8320 O.2   123  ASN123     -0.2716
    122  ND2      -14.0940   13.4110  -51.7610 N.am  123  ASN123     -0.0877
    123  N        -12.6340   12.4310  -48.5320 N.am  124  LYS124     -0.1963
    124  CA       -12.8980   12.9820  -47.1720 C.3   124  LYS124      0.1728
    125  C        -13.6930   14.2910  -47.2140 C.2   124  LYS124      0.2616
    126  O        -14.4590   14.5680  -46.3050 O.2   124  LYS124     -0.2715
    127  CB       -11.5760   13.2110  -46.4080 C.3   124  LYS124      0.0311
    128  CG       -10.6790   14.2740  -47.0670 C.3   124  LYS124      0.0038
    129  CD        -9.3170   14.3520  -46.4220 C.3   124  LYS124      0.0206
    130  CE        -8.5790   13.0320  -46.4880 C.3   124  LYS124      0.1093
    131  NZ        -7.1280   13.2580  -46.2550 N.3   124  LYS124     -0.1314
    132  N        -13.5140   15.0760  -48.2680 N.am  125  GLU125     -0.1977
    133  CA       -14.3270   16.2550  -48.4680 C.3   125  GLU125      0.1602
    134  C        -15.8500   15.9380  -48.4230 C.2   125  GLU125      0.2287
    135  O        -16.6470   16.7610  -48.0350 O.2   125  GLU125     -0.2864
    136  CB       -13.9130   16.9790  -49.7520 C.3   125  GLU125      0.0415
    137  CG       -12.4260   17.3940  -49.7720 C.3   125  GLU125      0.1163
    138  CD       -11.4560   16.3280  -50.3520 C.2   125  GLU125      0.3649
    139  OE1      -11.8280   15.1280  -50.4430 O.co2 125  GLU125     -0.2457
    140  OE2      -10.2980   16.6750  -50.7390 O.co2 125  GLU125     -0.2457
    141  N         -9.0250    6.2110  -45.9860 N.3   149  ASP149     -0.1239
    142  CA        -8.0360    7.1440  -45.4960 C.3   149  ASP149      0.1674
    143  C         -7.1740    6.4610  -44.4130 C.2   149  ASP149      0.2266
    144  O         -7.6930    5.7570  -43.5430 O.2   149  ASP149     -0.2867
    145  CB        -8.7170    8.4300  -44.9890 C.3   149  ASP149      0.1410
    146  CG        -7.7650    9.6130  -44.9990 C.2   149  ASP149      0.3668
    147  OD1       -6.5830    9.3400  -45.1560 O.co2 149  ASP149     -0.2456
    148  OD2       -8.1830   10.7840  -44.9270 O.co2 149  ASP149     -0.2456
    149  N          4.9200    9.9930  -49.1700 N.3   211  TRP211     -0.1227
    150  CA         3.6890    9.6070  -49.8540 C.3   211  TRP211      0.1737
    151  C          3.6900   10.1560  -51.2700 C.2   211  TRP211      0.2596
    152  O          4.2150   11.2390  -51.5080 O.2   211  TRP211     -0.2718
    153  CB         2.4900   10.2290  -49.1570 C.3   211  TRP211      0.0564
    154  CG         2.0910    9.6920  -47.8650 C.ar  211  TRP211      0.0003
    155  CD1        2.2560   10.2870  -46.6480 C.ar  211  TRP211      0.0946
    156  CD2        1.3730    8.4820  -47.6270 C.ar  211  TRP211      0.0152
    157  NE1        1.6900    9.5180  -45.6750 N.ar  211  TRP211     -0.2442
    158  CE2        1.1380    8.4050  -46.2470 C.ar  211  TRP211      0.0810
    159  CE3        0.9120    7.4560  -48.4430 C.ar  211  TRP211      0.0012
    160  CZ2        0.4670    7.3390  -45.6680 C.ar  211  TRP211      0.0191
    161  CZ3        0.2550    6.3980  -47.8700 C.ar  211  TRP211      0.0001
    162  CH2        0.0270    6.3480  -46.4940 C.ar  211  TRP211      0.0015
    163  N          3.1070    9.3910  -52.1900 N.am  212  SER212     -0.1938
    164  CA         2.7670    9.8680  -53.5290 C.3   212  SER212      0.2055
    165  C          1.2570    9.9190  -53.6380 C.2   212  SER212      0.2643
    166  O          0.5860    8.8980  -53.5040 O.2   212  SER212     -0.2714
    167  CB         3.2950    8.9240  -54.6040 C.3   212  SER212      0.2130
    168  OG         4.5030    9.4140  -55.0980 O.3   212  SER212     -0.2179
    169  N          0.7280   11.1040  -53.9030 N.am  213  MET213     -0.1962
    170  CA        -0.7060   11.3230  -53.8840 C.3   213  MET213      0.1736
    171  C         -1.1170   12.3240  -54.9410 C.2   213  MET213      0.2617
    172  O         -0.2730   12.8290  -55.6910 O.2   213  MET213     -0.2715
    173  CB        -1.1110   11.8520  -52.5190 C.3   213  MET213      0.0427
    174  CG        -0.5450   11.0480  -51.3640 C.3   213  MET213      0.0599
    175  SD        -0.8340   11.9080  -49.8200 S.3   213  MET213     -0.1393
    176  CE         0.4730   13.1370  -49.8260 C.3   213  MET213      0.0692
    177  N         -2.4200   12.5890  -55.0150 N.am  214  GLY214     -0.1940
    178  CA        -2.9340   13.6320  -55.8800 C.3   214  GLY214      0.2014
    179  C         -2.3460   14.9660  -55.4770 C.2   214  GLY214      0.2639
    180  O         -1.6540   15.0810  -54.4600 O.2   214  GLY214     -0.2714
    181  N         -2.6340   15.9810  -56.2750 N.am  215  GLN215     -0.1963
    182  CA        -2.0920   17.3090  -56.0650 C.3   215  GLN215      0.1733
    183  C         -2.6810   18.0170  -54.8540 C.2   215  GLN215      0.2616
    184  O         -1.9670   18.7380  -54.1220 O.2   215  GLN215     -0.2715
    185  CB        -2.3760   18.1600  -57.2770 C.3   215  GLN215      0.0408
    186  CG        -1.4770   17.8930  -58.4650 C.3   215  GLN215      0.0908
    187  CD        -1.5790   19.0400  -59.4530 C.2   215  GLN215      0.2608
    188  OE1       -2.6100   19.2000  -60.1420 O.2   215  GLN215     -0.2717
    189  NE2       -0.5380   19.8810  -59.4930 N.am  215  GLN215     -0.0878
    190  N         -3.9860   17.8420  -54.6680 N.am  216  LYS216     -0.1963
    191  CA        -4.7160   18.5990  -53.6390 C.3   216  LYS216      0.1728
    192  C         -4.3410   18.1800  -52.1800 C.2   216  LYS216      0.2616
    193  O         -3.8490   19.0060  -51.3790 O.2   216  LYS216     -0.2715
    194  CB        -6.2180   18.4830  -53.8910 C.3   216  LYS216      0.0311
    195  CG        -7.0410   19.4100  -53.0370 C.3   216  LYS216      0.0038
    196  CD        -8.4310   18.8550  -52.8000 C.3   216  LYS216      0.0206
    197  CE        -8.9340   19.2770  -51.4290 C.3   216  LYS216      0.1093
    198  NZ        -8.6350   20.7020  -51.1310 N.3   216  LYS216     -0.1314
    199  N         -4.5680   16.8990  -51.8740 N.am  217  ILE217     -0.1977
    200  CA        -4.1490   16.2800  -50.6370 C.3   217  ILE217      0.1596
    201  C         -2.6720   16.5270  -50.4450 C.2   217  ILE217      0.2287
    202  O         -2.2300   16.8230  -49.3680 O.2   217  ILE217     -0.2864
    203  CB        -4.5380   14.7790  -50.5550 C.3   217  ILE217      0.0276
    204  CG1       -4.5990   14.3270  -49.0990 C.3   217  ILE217      0.0022
    205  CG2       -3.5760   13.8820  -51.2950 C.3   217  ILE217      0.0022
    206  CD1       -5.1090   12.9120  -48.8970 C.3   217  ILE217      0.0001
    207  N         -0.9610    3.2950  -49.6360 N.3   275  MET275     -0.1245
    208  CA        -2.4100    3.1850  -49.5030 C.3   275  MET275      0.1570
    209  C         -2.9780    1.8380  -49.8860 C.2   275  MET275      0.2261
    210  O         -4.1510    1.6200  -49.6750 O.2   275  MET275     -0.2867
    211  CB        -3.1150    4.2560  -50.3270 C.3   275  MET275      0.0387
    212  CG        -2.9120    5.6730  -49.8110 C.3   275  MET275      0.0595
    213  SD        -3.4700    5.9640  -48.1130 S.3   275  MET275     -0.1393
    214  CE        -5.2100    5.6170  -48.2010 C.3   275  MET275      0.0692
@<TRIPOS>BOND
     1    55    54    2
     2    60    61    2
     3    60    59    1
     4    59    58    1
     5    59    62    1
     6    54    58   am
     7    54    53    1
     8    44    43    2
     9    62    63    1
    10    53    56    1
    11    53    52    1
    12    63    64    1
    13    56    57    1
    14    43    52   am
    15    43    42    1
    16    40    39    2
    17    64    65    1
    18    39    41   am
    19    39    38    1
    20    42    41    1
    21    42    45    1
    22    11     9    1
    23    49    51   ar
    24    49    47   ar
    25    65    66    2
    26    51    50   ar
    27    38    37    1
    28    47    46   ar
    29    37    32   am
    30    50    48   ar
    31    46    48   ar
    32    46    45    1
    33     9    10    1
    34     9     6    1
    35    31    32    1
    36    31    30    1
    37    31    34    1
    38    32    33    2
    39    66    67    1
    40    66    68    1
    41    69    70    1
    42    34    36    1
    43    34    35    1
    44     6     5    1
    45     6     7    1
    46    77    78    1
    47     8     7    2
    48    71    70    1
    49    71    72    2
    50    70    73    1
    51     7    12   am
    52    84    82    1
    53    75    74   ar
    54    82    83    1
    55    82    81    1
    56    73    74    1
    57    78    81    1
    58    78    79    1
    59    74    76   ar
    60    12    13    1
    61    79    80    2
    62   188   187    2
    63    13    14    1
    64     3     2    1
    65     3     4    2
    66     1     2    1
    67   189   187   am
    68   187   186    1
    69    15    14    2
    70    14    16   am
    71    97    95    1
    72   186   185    1
    73    16    17    1
    74   109   106    1
    75    95    94    1
    76    96    94    1
    77   185   182    1
    78    17    18    1
    79    17    20    1
    80   108   107    2
    81    94    91    1
    82   103   102    1
    83   106   107    1
    84   106   105    1
    85    19    18    2
    86    18    22   am
    87    91    90    1
    88    91    92    1
    89   181   182    1
    90   181   179   am
    91    20    21    1
    92    88    87    2
    93   182   183    1
    94    24    25    2
    95    24    23    1
    96    98    92   am
    97    98    99    1
    98   178   179    1
    99   178   177    1
   100    22    23    1
   101    90    87   am
   102   101   100    2
   103   172   171    2
   104    87    86    1
   105    92    93    2
   106   179   180    2
   107   102    99    1
   108   102   104    1
   109    89    86    1
   110   168   167    1
   111    23    26    1
   112    99   100    1
   113   177   171   am
   114   171   170    1
   115   183   190   am
   116   183   184    2
   117    86    85    1
   118   190   191    1
   119   167   164    1
   120    26    28    1
   121    26    27    1
   122   169   170    1
   123   169   165   am
   124   194   191    1
   125   194   195    1
   126   170   173    1
   127   191   192    1
   128   165   164    1
   129   165   166    2
   130   164   163    1
   131    27    29    1
   132   195   196    1
   133   196   197    1
   134   173   174    1
   135   163   151   am
   136   192   199   am
   137   192   193    2
   138   199   200    1
   139   121   120    2
   140   122   120   am
   141   120   119    1
   142   119   116    1
   143   152   151    2
   144   197   198    1
   145   174   175    1
   146   205   203    1
   147   151   150    1
   148   114   111    1
   149   140   138   ar
   150   200   203    1
   151   200   201    1
   152   203   204    1
   153   116   115    1
   154   116   117    1
   155   201   202    2
   156   139   138   ar
   157   115   112   am
   158   138   137    1
   159   211   212    1
   160   211   208    1
   161   209   210    2
   162   209   208    1
   163   150   149    1
   164   150   153    1
   165   176   175    1
   166   212   213    1
   167   137   136    1
   168   136   133    1
   169   111   110    1
   170   111   112    1
   171   207   208    1
   172   112   113    2
   173   117   118    2
   174   117   123   am
   175   153   154    1
   176   204   206    1
   177   123   124    1
   178   133   134    1
   179   133   132    1
   180   159   161   ar
   181   159   156   ar
   182   134   135    2
   183   132   125   am
   184   214   213    1
   185   161   162   ar
   186   154   156   ar
   187   154   155   ar
   188   156   158   ar
   189   125   124    1
   190   125   126    2
   191   124   127    1
   192   128   129    1
   193   128   127    1
   194   155   157   ar
   195   162   160   ar
   196   130   129    1
   197   130   131    1
   198   158   157   ar
   199   158   160   ar
   200   141   142    1
   201   142   145    1
   202   142   143    1
   203   147   146   ar
   204   146   145    1
   205   146   148   ar
   206   143   144    2
