@<TRIPOS>MOLECULE
tmp/4zqhB02.pdb
 86 79 0 0 0
SMALL
GASTEIGER

@<TRIPOS>ATOM
      1  N          5.9100   22.4410  -44.7780 N.3   128  VAL128     -0.1245
      2  CA         7.1750   22.9390  -44.2460 C.3   128  VAL128      0.1561
      3  C          7.3940   24.4120  -44.6520 C.2   128  VAL128      0.2260
      4  O          7.8180   25.2190  -43.8410 O.2   128  VAL128     -0.2867
      5  CB         8.3730   22.1050  -44.7450 C.3   128  VAL128      0.0252
      6  CG1        9.6870   22.6960  -44.2750 C.3   128  VAL128      0.0019
      7  CG2        8.2700   20.6620  -44.2770 C.3   128  VAL128      0.0019
      8  N          1.6740   27.6370  -41.5110 N.3   132  ASP132     -0.1239
      9  CA         0.7510   28.6140  -40.9100 C.3   132  ASP132      0.1674
     10  C         -0.3310   29.0490  -41.8940 C.2   132  ASP132      0.2266
     11  O         -1.5060   29.0130  -41.5900 O.2   132  ASP132     -0.2867
     12  CB         1.4920   29.8590  -40.4060 C.3   132  ASP132      0.1410
     13  CG         2.5700   29.5290  -39.3870 C.2   132  ASP132      0.3668
     14  OD1        2.2310   29.1700  -38.2330 O.co2 132  ASP132     -0.2456
     15  OD2        3.7680   29.6290  -39.7420 O.co2 132  ASP132     -0.2456
     16  N          8.2270   18.8970  -39.0380 N.3   232  ILE232     -0.1245
     17  CA         7.5460   20.1760  -39.1890 C.3   232  ILE232      0.1561
     18  C          6.1190   19.9720  -39.6800 C.2   232  ILE232      0.2260
     19  O          5.1870   20.6730  -39.2550 O.2   232  ILE232     -0.2867
     20  CB         8.3360   21.1130  -40.1240 C.3   232  ILE232      0.0252
     21  CG1        9.6690   21.4770  -39.4820 C.3   232  ILE232      0.0019
     22  CG2        7.5670   22.3870  -40.4140 C.3   232  ILE232      0.0019
     23  CD1       10.7850   21.6610  -40.4660 C.3   232  ILE232      0.0001
     24  N          4.0100   19.0560  -36.7720 N.3   235  CYS235     -0.1221
     25  CA         3.7660   20.2810  -36.0020 C.3   235  CYS235      0.1808
     26  C          2.5270   21.0220  -36.4730 C.2   235  CYS235      0.2601
     27  O          1.6550   21.3450  -35.6600 O.2   235  CYS235     -0.2717
     28  CB         4.9800   21.2260  -36.0400 C.3   235  CYS235      0.0970
     29  SG         6.4290   20.8110  -35.0080 S.3   235  CYS235     -0.0800
     30  N          2.4270   21.3010  -37.7710 N.am  236  HIS236     -0.1975
     31  CA         1.2740   22.0540  -38.2910 C.3   236  HIS236      0.1656
     32  C          0.0230   21.2150  -38.3860 C.2   236  HIS236      0.2291
     33  O         -1.0790   21.7000  -38.1310 O.2   236  HIS236     -0.2864
     34  CB         1.5470   22.5780  -39.6840 C.3   236  HIS236      0.0771
     35  CG         2.6600   23.5630  -39.7520 C.ar  236  HIS236      0.0820
     36  ND1        2.5190   24.8650  -39.3330 N.ar  236  HIS236     -0.2267
     37  CD2        3.9330   23.4360  -40.1970 C.ar  236  HIS236      0.1154
     38  CE1        3.6630   25.5010  -39.5180 C.ar  236  HIS236      0.1986
     39  NE2        4.5370   24.6550  -40.0350 N.ar  236  HIS236     -0.2212
     40  N         -1.0010   20.5270  -34.7590 N.3   239  ASP239     -0.1225
     41  CA        -0.9910   21.7370  -33.9630 C.3   239  ASP239      0.1805
     42  C         -0.1090   21.6300  -32.7220 C.2   239  ASP239      0.2598
     43  O         -0.5350   21.9600  -31.6300 O.2   239  ASP239     -0.2718
     44  CB        -2.4260   22.1070  -33.6180 C.3   239  ASP239      0.1424
     45  CG        -2.5480   23.4880  -33.0600 C.2   239  ASP239      0.3668
     46  OD1       -3.3130   24.3100  -33.6070 O.co2 239  ASP239     -0.2456
     47  OD2       -1.9090   23.7450  -32.0310 O.co2 239  ASP239     -0.2456
     48  N          1.1230   21.1610  -32.8930 N.am  240  LEU240     -0.1966
     49  CA         2.0470   20.9970  -31.7650 C.3   240  LEU240      0.1728
     50  C          3.3620   21.6910  -32.0200 C.2   240  LEU240      0.2616
     51  O          3.6310   22.1260  -33.1340 O.2   240  LEU240     -0.2715
     52  CB         2.3260   19.5100  -31.5120 C.3   240  LEU240      0.0311
     53  CG         1.1230   18.5930  -31.2270 C.3   240  LEU240      0.0022
     54  CD1        1.5860   17.1400  -31.1020 C.3   240  LEU240      0.0001
     55  CD2        0.3950   18.9880  -29.9660 C.3   240  LEU240      0.0001
     56  N          4.2000   21.7650  -30.9950 N.am  241  LYS241     -0.1977
     57  CA         5.5540   22.2600  -31.1680 C.3   241  LYS241      0.1596
     58  C          6.5080   21.0930  -31.1520 C.2   241  LYS241      0.2287
     59  O          6.1730   20.0150  -30.6930 O.2   241  LYS241     -0.2864
     60  CB         5.9330   23.2470  -30.0770 C.3   241  LYS241      0.0298
     61  CG         4.9760   24.4150  -29.9380 C.3   241  LYS241      0.0038
     62  CD         5.1720   25.3780  -31.0620 C.3   241  LYS241      0.0206
     63  CE         4.0510   26.3750  -31.0930 C.3   241  LYS241      0.1093
     64  NZ         4.3140   27.2540  -32.2650 N.3   241  LYS241     -0.1314
     65  N         12.6760   24.0880  -36.9150 N.3   324  ALA324     -0.1245
     66  CA        11.3020   24.0290  -36.4240 C.3   324  ALA324      0.1562
     67  C         11.1160   24.9490  -35.2450 C.2   324  ALA324      0.2260
     68  O         10.0590   25.5600  -35.1080 O.2   324  ALA324     -0.2867
     69  CB        10.9380   22.6050  -36.0270 C.3   324  ALA324      0.0290
     70  N         10.8700   28.7350  -36.4930 N.3   327  GLY327     -0.1210
     71  CA         9.6480   29.1300  -37.2080 C.3   327  GLY327      0.1956
     72  C          9.7830   29.0860  -38.7280 C.2   327  GLY327      0.2612
     73  O         10.7750   28.5960  -39.2540 O.2   327  GLY327     -0.2717
     74  N          8.7930   29.6410  -39.4240 N.am  328  THR328     -0.1952
     75  CA         8.6340   29.4150  -40.8590 C.3   328  THR328      0.1897
     76  C          9.7730   29.8860  -41.7690 C.2   328  THR328      0.2313
     77  O         10.1580   29.1630  -42.6760 O.2   328  THR328     -0.2863
     78  CB         7.3470   30.0250  -41.3910 C.3   328  THR328      0.1794
     79  OG1        6.2480   29.6020  -40.5800 O.3   328  THR328     -0.2208
     80  CG2        7.1090   29.5720  -42.8290 C.3   328  THR328      0.0378
     81  N         12.3450   27.4310  -41.7590 N.3   331  CYS331     -0.1235
     82  CA        11.8380   26.1880  -42.3460 C.3   331  CYS331      0.1677
     83  C         11.8450   26.2390  -43.8570 C.2   331  CYS331      0.2270
     84  O         12.0130   25.2080  -44.5090 O.2   331  CYS331     -0.2867
     85  CB        10.4280   25.8610  -41.8430 C.3   331  CYS331      0.0956
     86  SG        10.4630   25.2470  -40.1460 S.3   331  CYS331     -0.0801
@<TRIPOS>BOND
     1     1     2    1
     2     5     7    1
     3     5     6    1
     4     5     2    1
     5     3     2    1
     6     3     4    2
     7    84    83    2
     8    83    82    1
     9    80    78    1
    10    77    76    2
    11    82    85    1
    12    82    81    1
    13    10    11    2
    14    10     9    1
    15    85    86    1
    16    76    75    1
    17     8     9    1
    18    78    75    1
    19    78    79    1
    20     9    12    1
    21    75    74    1
    22    23    21    1
    23    22    20    1
    24    12    13    1
    25    37    39   ar
    26    37    35   ar
    27    20    21    1
    28    20    17    1
    29    39    38   ar
    30    35    34    1
    31    35    36   ar
    32    15    13   ar
    33    34    31    1
    34    18    19    2
    35    18    17    1
    36    38    36   ar
    37    74    72   am
    38    13    14   ar
    39    73    72    2
    40    17    16    1
    41    72    71    1
    42    32    31    1
    43    32    33    2
    44    31    30    1
    45    30    26   am
    46    71    70    1
    47    65    66    1
    48    24    25    1
    49    26    25    1
    50    26    27    2
    51    66    69    1
    52    66    67    1
    53    28    25    1
    54    28    29    1
    55    67    68    2
    56    40    41    1
    57    41    44    1
    58    41    42    1
    59    44    45    1
    60    46    45   ar
    61    51    50    2
    62    45    47   ar
    63    48    42   am
    64    48    49    1
    65    42    43    2
    66    64    63    1
    67    50    49    1
    68    50    56   am
    69    49    52    1
    70    52    53    1
    71    53    54    1
    72    53    55    1
    73    57    58    1
    74    57    56    1
    75    57    60    1
    76    58    59    2
    77    63    62    1
    78    62    61    1
    79    60    61    1
