@<TRIPOS>MOLECULE
tmp/4zqhB01.pdb
 144 135 0 0 0
SMALL
GASTEIGER

@<TRIPOS>ATOM
      1  N          4.6830   17.0710  -48.6270 N.3   124  LYS124     -0.1245
      2  CA         5.0580   17.5400  -47.2890 C.3   124  LYS124      0.1561
      3  C          5.8570   18.8530  -47.3060 C.2   124  LYS124      0.2260
      4  O          5.8420   19.6280  -46.3320 O.2   124  LYS124     -0.2867
      5  CB         5.8210   16.4560  -46.5150 C.3   124  LYS124      0.0271
      6  CG         7.2550   16.2300  -46.9750 C.3   124  LYS124      0.0035
      7  CD         7.8760   14.9950  -46.3480 C.3   124  LYS124      0.0206
      8  CE         7.3050   13.7220  -46.9660 C.3   124  LYS124      0.1093
      9  NZ         7.9540   12.4690  -46.4620 N.3   124  LYS124     -0.1314
     10  N          1.0340   11.1130  -46.1200 N.3   149  ASP149     -0.1225
     11  CA         2.3270   10.7390  -45.5740 C.3   149  ASP149      0.1805
     12  C          2.0680    9.6130  -44.5310 C.2   149  ASP149      0.2598
     13  O          1.1430    9.6810  -43.6960 O.2   149  ASP149     -0.2718
     14  CB         3.0460   11.9610  -44.9760 C.3   149  ASP149      0.1424
     15  CG         4.5810   11.8560  -45.0540 C.2   149  ASP149      0.3668
     16  OD1        5.0810   10.7780  -45.3850 O.co2 149  ASP149     -0.2456
     17  OD2        5.2920   12.8640  -44.7980 O.co2 149  ASP149     -0.2456
     18  N          2.8590    8.5590  -44.6420 N.am  150  SER150     -0.1938
     19  CA         2.6240    7.3380  -43.9180 C.3   150  SER150      0.2055
     20  C          2.5890    7.5640  -42.3950 C.2   150  SER150      0.2642
     21  O          1.6650    7.1120  -41.6960 O.2   150  SER150     -0.2714
     22  CB         3.7330    6.3570  -44.2980 C.3   150  SER150      0.2130
     23  OG         3.5830    5.1470  -43.6350 O.3   150  SER150     -0.2179
     24  N          3.5750    8.3090  -41.8950 N.am  151  GLU151     -0.1976
     25  CA         3.7170    8.5370  -40.4740 C.3   151  GLU151      0.1602
     26  C          2.5530    9.3290  -39.9210 C.2   151  GLU151      0.2287
     27  O          2.0060    9.0160  -38.8710 O.2   151  GLU151     -0.2864
     28  CB         5.0290    9.2610  -40.1820 C.3   151  GLU151      0.0415
     29  CG         6.2920    8.4430  -40.4820 C.3   151  GLU151      0.1163
     30  CD         6.6360    8.4280  -41.9480 C.2   151  GLU151      0.3649
     31  OE1        7.6380    7.8000  -42.3630 O.co2 151  GLU151     -0.2457
     32  OE2        5.8850    9.0750  -42.6620 O.co2 151  GLU151     -0.2457
     33  N          8.5040    7.3680  -36.5350 N.3   183  THR183     -0.1203
     34  CA         9.4220    6.3010  -36.8720 C.3   183  THR183      0.1994
     35  C         10.1930    6.6380  -38.1550 C.2   183  THR183      0.2618
     36  O          9.6740    7.2510  -39.0720 O.2   183  THR183     -0.2717
     37  CB         8.6530    4.9840  -37.0460 C.3   183  THR183      0.1784
     38  OG1        7.3840    5.2460  -37.6790 O.3   183  THR183     -0.2211
     39  CG2        8.4000    4.3560  -35.6790 C.3   183  THR183      0.0376
     40  N         11.4500    6.2250  -38.1980 N.am  184  ALA184     -0.1965
     41  CA        12.3320    6.5020  -39.3230 C.3   184  ALA184      0.1728
     42  C         13.0950    5.2450  -39.6210 C.2   184  ALA184      0.2617
     43  O         13.5820    4.6160  -38.7060 O.2   184  ALA184     -0.2715
     44  CB        13.3120    7.5970  -38.9330 C.3   184  ALA184      0.0334
     45  N         13.2250    4.8850  -40.8900 N.am  185  SER185     -0.1936
     46  CA        13.9600    3.6640  -41.2570 C.3   185  SER185      0.2055
     47  C         15.4320    3.7830  -40.9660 C.2   185  SER185      0.2644
     48  O         16.1180    2.7800  -40.8520 O.2   185  SER185     -0.2714
     49  CB        13.8040    3.3440  -42.7380 C.3   185  SER185      0.2130
     50  OG        14.5510    4.2350  -43.5510 O.3   185  SER185     -0.2179
     51  N         15.9250    5.0160  -40.9160 N.am  186  GLY186     -0.1939
     52  CA        17.3550    5.2750  -40.8600 C.3   186  GLY186      0.2014
     53  C         18.0060    5.1230  -42.2250 C.2   186  GLY186      0.2639
     54  O         19.2230    5.0520  -42.3010 O.2   186  GLY186     -0.2714
     55  N         17.2130    5.0490  -43.3010 N.am  187  GLY187     -0.1954
     56  CA        17.7230    4.9330  -44.6720 C.3   187  GLY187      0.1869
     57  C         18.8070    3.8870  -44.9040 C.2   187  GLY187      0.2309
     58  O         19.1410    3.1190  -44.0110 O.2   187  GLY187     -0.2863
     59  N         16.2570    2.2800  -51.6130 N.3   208  HIS208     -0.1241
     60  CA        15.8650    2.1430  -50.2180 C.3   208  HIS208      0.1621
     61  C         15.4870    0.6900  -49.9430 C.2   208  HIS208      0.2264
     62  O         14.8190    0.0620  -50.7810 O.2   208  HIS208     -0.2867
     63  CB        14.6730    3.0630  -49.9050 C.3   208  HIS208      0.0745
     64  CG        14.4270    3.2330  -48.4390 C.ar  208  HIS208      0.0817
     65  ND1       13.8390    2.2570  -47.6650 N.ar  208  HIS208     -0.2268
     66  CD2       14.7380    4.2430  -47.5950 C.ar  208  HIS208      0.1154
     67  CE1       13.7870    2.6580  -46.4110 C.ar  208  HIS208      0.1986
     68  NE2       14.3240    3.8620  -46.3410 N.ar  208  HIS208     -0.2212
     69  N         11.2610    0.6710  -49.2710 N.3   211  TRP211     -0.1241
     70  CA        10.3040    1.5470  -49.9450 C.3   211  TRP211      0.1605
     71  C         10.7800    1.8030  -51.3560 C.2   211  TRP211      0.2264
     72  O         11.9820    1.9230  -51.6030 O.2   211  TRP211     -0.2867
     73  CB        10.2350    2.9100  -49.2630 C.3   211  TRP211      0.0550
     74  CG         9.6100    2.9810  -47.9530 C.ar  211  TRP211      0.0003
     75  CD1       10.2500    3.0880  -46.7700 C.ar  211  TRP211      0.0946
     76  CD2        8.2200    3.0240  -47.6610 C.ar  211  TRP211      0.0152
     77  NE1        9.3540    3.1710  -45.7500 N.ar  211  TRP211     -0.2442
     78  CE2        8.0930    3.1420  -46.2720 C.ar  211  TRP211      0.0810
     79  CE3        7.0640    2.9580  -48.4350 C.ar  211  TRP211      0.0012
     80  CZ2        6.8560    3.1840  -45.6360 C.ar  211  TRP211      0.0191
     81  CZ3        5.8450    3.0030  -47.8130 C.ar  211  TRP211      0.0001
     82  CH2        5.7480    3.1120  -46.4260 C.ar  211  TRP211      0.0015
     83  N         10.2970    4.7670  -54.0180 N.3   213  MET213     -0.1245
     84  CA         9.7280    6.1070  -54.0190 C.3   213  MET213      0.1570
     85  C         10.3410    7.0140  -55.0760 C.2   213  MET213      0.2261
     86  O         11.1920    6.6000  -55.8470 O.2   213  MET213     -0.2867
     87  CB         9.9310    6.7460  -52.6460 C.3   213  MET213      0.0387
     88  CG         9.7560    5.8240  -51.4780 C.3   213  MET213      0.0595
     89  SD        10.2800    6.5850  -49.9330 S.3   213  MET213     -0.1393
     90  CE        12.0360    6.3240  -50.0210 C.3   213  MET213      0.0692
     91  N         12.6410   12.1450  -52.1840 N.3   217  ILE217     -0.1245
     92  CA        12.3260   11.5790  -50.8900 C.3   217  ILE217      0.1561
     93  C         13.2740   10.4080  -50.6180 C.2   217  ILE217      0.2260
     94  O         13.5900   10.1100  -49.4900 O.2   217  ILE217     -0.2867
     95  CB        10.8370   11.1590  -50.7780 C.3   217  ILE217      0.0252
     96  CG1       10.5030   10.7780  -49.3490 C.3   217  ILE217      0.0019
     97  CG2       10.5020    9.9790  -51.6780 C.3   217  ILE217      0.0019
     98  CD1        9.0160   10.8360  -49.0620 C.3   217  ILE217      0.0001
     99  N         15.5660   10.3800  -47.3480 N.3   221  SER221     -0.1217
    100  CA        15.5130    9.2680  -46.4410 C.3   221  SER221      0.1889
    101  C         16.9010    8.8390  -46.0090 C.2   221  SER221      0.2288
    102  O         17.1340    8.5500  -44.8340 O.2   221  SER221     -0.2866
    103  CB        14.7970    8.1150  -47.1030 C.3   221  SER221      0.2089
    104  OG        14.9550    6.9570  -46.3260 O.3   221  SER221     -0.2183
    105  N         14.2370   13.6640  -44.4660 N.3   226  ASN226     -0.1225
    106  CA        12.8270   13.3140  -44.5860 C.3   226  ASN226      0.1785
    107  C         12.0650   13.3840  -43.2510 C.2   226  ASN226      0.2597
    108  O         10.9390   13.8980  -43.1860 O.2   226  ASN226     -0.2718
    109  CB        12.6570   11.9260  -45.2230 C.3   226  ASN226      0.1169
    110  CG        11.1930   11.5550  -45.4490 C.2   226  ASN226      0.2627
    111  OD1       10.4280   12.3000  -46.0670 O.2   226  ASN226     -0.2716
    112  ND2       10.8030   10.3860  -44.9560 N.am  226  ASN226     -0.0877
    113  N         12.6930   12.8730  -42.1920 N.am  227  LYS227     -0.1980
    114  CA        12.0950   12.9270  -40.8470 C.3   227  LYS227      0.1596
    115  C         12.0400   14.3540  -40.3160 C.2   227  LYS227      0.2287
    116  O         11.0530   14.7730  -39.7110 O.2   227  LYS227     -0.2864
    117  CB        12.8550   12.0120  -39.8880 C.3   227  LYS227      0.0298
    118  CG        11.9420   11.2200  -38.9690 C.3   227  LYS227      0.0038
    119  CD        10.8180   10.4750  -39.6790 C.3   227  LYS227      0.0206
    120  CE        11.3160    9.7360  -40.9010 C.3   227  LYS227      0.1093
    121  NZ        10.2670    8.8680  -41.4860 N.3   227  LYS227     -0.1314
    122  N          9.1860   15.8160  -41.9470 N.3   230  GLU230     -0.1245
    123  CA         8.0450   15.1570  -41.3280 C.3   230  GLU230      0.1567
    124  C          7.7910   15.7340  -39.9240 C.2   230  GLU230      0.2260
    125  O          6.6340   15.9790  -39.5400 O.2   230  GLU230     -0.2867
    126  CB         8.2440   13.6580  -41.3520 C.3   230  GLU230      0.0388
    127  CG         8.0100   13.0880  -42.7490 C.3   230  GLU230      0.1160
    128  CD         8.2280   11.5870  -42.8600 C.2   230  GLU230      0.3649
    129  OE1        8.4330   10.9200  -41.8240 O.co2 230  GLU230     -0.2457
    130  OE2        8.2390   11.0740  -43.9930 O.co2 230  GLU230     -0.2457
    131  N         10.5500   -0.7860  -40.8490 N.3   253  SER253     -0.1217
    132  CA         9.4860   -0.0290  -41.5170 C.3   253  SER253      0.1889
    133  C          8.1270   -0.7070  -41.4210 C.2   253  SER253      0.2288
    134  O          7.2950   -0.5730  -42.2940 O.2   253  SER253     -0.2866
    135  CB         9.8530    0.2900  -42.9770 C.3   253  SER253      0.2089
    136  OG        10.9410    1.1930  -43.0750 O.3   253  SER253     -0.2183
    137  N          2.5350    2.5450  -49.6840 N.3   275  MET275     -0.1245
    138  CA         1.7190    3.7500  -49.5650 C.3   275  MET275      0.1570
    139  C          0.2690    3.5470  -49.9640 C.2   275  MET275      0.2261
    140  O         -0.5280    4.4380  -49.8300 O.2   275  MET275     -0.2867
    141  CB         2.3000    4.8650  -50.4110 C.3   275  MET275      0.0387
    142  CG         3.7010    5.3430  -49.9880 C.3   275  MET275      0.0595
    143  SD         3.7770    5.8880  -48.2710 S.3   275  MET275     -0.1393
    144  CE         2.5230    7.1460  -48.2110 C.3   275  MET275      0.0692
@<TRIPOS>BOND
     1    86    85    2
     2    85    84    1
     3    84    83    1
     4    84    87    1
     5    87    88    1
     6    91    92    1
     7    97    95    1
     8    59    60    1
     9    72    71    2
    10    88    89    1
    11    71    70    1
    12    92    95    1
    13    92    93    1
    14    62    61    2
    15    95    96    1
    16    93    94    2
    17   141   142    1
    18   141   138    1
    19    60    61    1
    20    60    63    1
    21    90    89    1
    22   142   143    1
    23   139   140    2
    24   139   138    1
    25    70    69    1
    26    70    73    1
    27    63    64    1
    28   137   138    1
    29    96    98    1
    30    73    74    1
    31     1     2    1
    32    64    65   ar
    33    64    66   ar
    34    79    81   ar
    35    79    76   ar
    36   143   144    1
    37    74    76   ar
    38    74    75   ar
    39    81    82   ar
    40    65    67   ar
    41    76    78   ar
    42    66    68   ar
    43    99   100    1
    44     3     2    1
    45     3     4    2
    46     2     5    1
    47   103   100    1
    48   103   104    1
    49     6     5    1
    50     6     7    1
    51     8     9    1
    52     8     7    1
    53    75    77   ar
    54   100   101    1
    55    82    80   ar
    56    67    68   ar
    57    78    77   ar
    58    78    80   ar
    59    10    11    1
    60   111   110    2
    61   101   102    2
    62    11    14    1
    63    11    12    1
    64   110   109    1
    65   110   112   am
    66    16    15   ar
    67   109   106    1
    68    15    14    1
    69    15    17   ar
    70    57    56    1
    71    57    58    2
    72    56    55    1
    73    18    12   am
    74    18    19    1
    75   106   105    1
    76   106   107    1
    77    12    13    2
    78    22    19    1
    79    22    23    1
    80   130   128   ar
    81    19    20    1
    82    50    49    1
    83    55    53   am
    84   107   108    2
    85   107   113   am
    86   136   135    1
    87   135   132    1
    88   128   127    1
    89   128   129   ar
    90   127   126    1
    91    49    46    1
    92    32    30   ar
    93    20    24   am
    94    20    21    2
    95    31    30   ar
    96    54    53    2
    97   134   133    2
    98    53    52    1
    99   113   114    1
   100    30    29    1
   101   122   123    1
   102    24    25    1
   103   132   133    1
   104   132   131    1
   105   121   120    1
   106   126   123    1
   107   123   124    1
   108    46    47    1
   109    46    45    1
   110    47    51   am
   111    47    48    2
   112    51    52    1
   113   120   119    1
   114    45    42   am
   115   114   115    1
   116   114   117    1
   117    29    28    1
   118    25    28    1
   119    25    26    1
   120   115   116    2
   121   124   125    2
   122    26    27    2
   123   117   118    1
   124   119   118    1
   125    42    41    1
   126    42    43    2
   127    41    44    1
   128    41    40    1
   129    36    35    2
   130    40    35   am
   131    35    34    1
   132    38    37    1
   133    37    34    1
   134    37    39    1
   135    34    33    1
