@<TRIPOS>MOLECULE
tmp/4zqmA01.pdb
 162 149 0 0 0
SMALL
GASTEIGER

@<TRIPOS>ATOM
      1  N        -28.2510   14.7930    5.3480 N.3    57  ALA57      -0.1231
      2  CA       -29.5850   14.5310    5.8510 C.3    57  ALA57       0.1694
      3  C        -29.5310   13.3570    6.8410 C.2    57  ALA57       0.2591
      4  O        -30.0060   12.2570    6.5780 O.2    57  ALA57      -0.2718
      5  CB       -30.5190   14.2720    4.6900 C.3    57  ALA57       0.0304
      6  N        -28.9500   13.6140    8.0020 N.am   58  MET58      -0.1979
      7  CA       -28.7340   12.5830    9.0080 C.3    58  MET58       0.1605
      8  C        -29.2170   13.0630   10.3530 C.2    58  MET58       0.2287
      9  O        -29.0650   14.2380   10.6530 O.2    58  MET58      -0.2864
     10  CB       -27.2530   12.2210    9.0860 C.3    58  MET58       0.0413
     11  CG       -26.7310   11.7310    7.7610 C.3    58  MET58       0.0598
     12  SD       -24.9700   11.4220    7.7310 S.3    58  MET58      -0.1393
     13  CE       -24.8710   10.0260    8.8180 C.3    58  MET58       0.0692
     14  N        -34.9300   12.6570    7.5000 N.3    81  ARG81      -0.1245
     15  CA       -36.2970   12.1490    7.3930 C.3    81  ARG81       0.1563
     16  C        -36.6180   11.0340    8.3850 C.2    81  ARG81       0.2260
     17  O        -37.6140   10.3110    8.2300 O.2    81  ARG81      -0.2867
     18  CB       -36.5560   11.6630    5.9720 C.3    81  ARG81       0.0307
     19  CG       -35.7020   10.4860    5.5190 C.3    81  ARG81       0.0489
     20  CD       -36.0920   10.1510    4.0980 C.3    81  ARG81       0.2205
     21  NE       -35.2740    9.1250    3.4570 N.pl3  81  ARG81      -0.0865
     22  CZ       -35.6010    7.8390    3.3990 C.cat  81  ARG81       0.5346
     23  NH1      -36.7010    7.3920    3.9980 N.pl3  81  ARG81       0.1354
     24  NH2      -34.8170    6.9830    2.7570 N.pl3  81  ARG81       0.1354
     25  N        -38.0680    9.7060    1.1150 N.3   108  GLY108     -0.1210
     26  CA       -37.7440    8.4060    0.5490 C.3   108  GLY108      0.1956
     27  C        -38.5700    8.1260   -0.6970 C.2   108  GLY108      0.2611
     28  O        -38.8370    9.0430   -1.4870 O.2   108  GLY108     -0.2717
     29  N        -39.0060    6.8780   -0.8650 N.am  109  VAL109     -0.1979
     30  CA       -39.7630    6.4690   -2.0330 C.3   109  VAL109      0.1595
     31  C        -41.0760    5.7780   -1.5820 C.2   109  VAL109      0.2287
     32  O        -41.1060    5.1150   -0.5500 O.2   109  VAL109     -0.2864
     33  CB       -38.9020    5.5260   -2.9410 C.3   109  VAL109      0.0276
     34  CG1      -39.7240    4.9420   -4.0710 C.3   109  VAL109      0.0022
     35  CG2      -37.6780    6.2810   -3.4750 C.3   109  VAL109      0.0022
     36  N        -33.7840   10.6660   -1.2410 N.3   131  ASP131     -0.1225
     37  CA       -32.6310   10.3500   -0.4060 C.3   131  ASP131      0.1805
     38  C        -32.5100    8.8370   -0.2230 C.2   131  ASP131      0.2598
     39  O        -33.1300    8.2760    0.6790 O.2   131  ASP131     -0.2718
     40  CB       -32.8000   11.0770    0.9440 C.3   131  ASP131      0.1424
     41  CG       -31.9430   10.5000    2.0400 C.2   131  ASP131      0.3668
     42  OD1      -30.7540   10.2310    1.7660 O.co2 131  ASP131     -0.2456
     43  OD2      -32.4610   10.3290    3.1810 O.co2 131  ASP131     -0.2456
     44  N        -31.7270    8.1880   -1.0900 N.am  132  THR132     -0.1939
     45  CA       -31.6600    6.7110   -1.1080 C.3   132  THR132      0.2028
     46  C        -30.2390    6.2150   -1.2970 C.2   132  THR132      0.2642
     47  O        -29.3440    6.9640   -1.7060 O.2   132  THR132     -0.2714
     48  CB       -32.5190    6.0740   -2.2450 C.3   132  THR132      0.1808
     49  OG1      -31.8350    6.1500   -3.4990 O.3   132  THR132     -0.2208
     50  CG2      -33.8860    6.7300   -2.3870 C.3   132  THR132      0.0379
     51  N        -30.0300    4.9460   -0.9680 N.am  133  ALA133     -0.1963
     52  CA       -28.7420    4.3150   -1.1890 C.3   133  ALA133      0.1728
     53  C        -28.4790    3.9880   -2.6530 C.2   133  ALA133      0.2616
     54  O        -27.3380    3.6860   -3.0260 O.2   133  ALA133     -0.2715
     55  CB       -28.6560    3.0170   -0.3780 C.3   133  ALA133      0.0334
     56  N        -29.5320    3.9340   -3.4690 N.am  134  HIS134     -0.1973
     57  CA       -29.3690    3.4020   -4.8190 C.3   134  HIS134      0.1656
     58  C        -30.3790    4.0150   -5.7840 C.2   134  HIS134      0.2291
     59  O        -31.4420    3.4360   -6.0410 O.2   134  HIS134     -0.2864
     60  CB       -29.5080    1.8770   -4.8140 C.3   134  HIS134      0.0771
     61  CG       -29.1860    1.2370   -6.1260 C.ar  134  HIS134      0.0820
     62  ND1      -28.2340    1.7460   -6.9780 N.ar  134  HIS134     -0.2267
     63  CD2      -29.6500    0.1050   -6.7180 C.ar  134  HIS134      0.1154
     64  CE1      -28.1370    0.9760   -8.0490 C.ar  134  HIS134      0.1986
     65  NE2      -28.9990   -0.0210   -7.9220 N.ar  134  HIS134     -0.2212
     66  N        -32.1000    2.2850   -8.8730 N.3   137  ASN137     -0.1240
     67  CA       -33.3020    1.4700   -8.7810 C.3   137  ASN137      0.1653
     68  C        -34.4650    2.1910   -9.4860 C.2   137  ASN137      0.2266
     69  O        -34.6560    3.3920   -9.2750 O.2   137  ASN137     -0.2867
     70  CB       -33.6370    1.1760   -7.3200 C.3   137  ASN137      0.1155
     71  CG       -34.7440    0.1510   -7.1830 C.2   137  ASN137      0.2627
     72  OD1      -35.8530    0.3440   -7.6990 O.2   137  ASN137     -0.2716
     73  ND2      -34.4410   -0.9720   -6.5270 N.am  137  ASN137     -0.0877
     74  N        -37.5080    2.3450   -8.9550 N.3   139  LEU139     -0.1231
     75  CA       -38.4770    2.9700   -8.0490 C.3   139  LEU139      0.1693
     76  C        -38.0330    4.3890   -7.6830 C.2   139  LEU139      0.2591
     77  O        -38.8770    5.2730   -7.4720 O.2   139  LEU139     -0.2718
     78  CB       -38.6580    2.1380   -6.7660 C.3   139  LEU139      0.0284
     79  CG       -39.3550    0.7850   -6.8710 C.3   139  LEU139      0.0019
     80  CD1      -39.2590    0.0430   -5.5290 C.3   139  LEU139      0.0001
     81  CD2      -40.7950    0.9790   -7.2740 C.3   139  LEU139      0.0001
     82  N        -36.7300    4.6000   -7.5790 N.am  140  VAL140     -0.1980
     83  CA       -36.2310    5.9180   -7.2300 C.3   140  VAL140      0.1595
     84  C        -36.3460    6.8610   -8.4360 C.2   140  VAL140      0.2287
     85  O        -36.7170    8.0140   -8.3020 O.2   140  VAL140     -0.2864
     86  CB       -34.7750    5.8610   -6.7390 C.3   140  VAL140      0.0276
     87  CG1      -34.3070    7.2540   -6.3500 C.3   140  VAL140      0.0022
     88  CG2      -34.6870    4.9310   -5.5220 C.3   140  VAL140      0.0022
     89  N        -28.5860    8.2140   -4.2060 N.3   161  ASN161     -0.1240
     90  CA       -27.2160    8.4610   -4.6550 C.3   161  ASN161      0.1653
     91  C        -26.8050    7.5260   -5.7950 C.2   161  ASN161      0.2266
     92  O        -27.3410    6.4130   -5.9460 O.2   161  ASN161     -0.2867
     93  CB       -26.2300    8.2910   -3.4930 C.3   161  ASN161      0.1155
     94  CG       -26.1600    9.5070   -2.6130 C.2   161  ASN161      0.2627
     95  OD1      -27.0100   10.3880   -2.6930 O.2   161  ASN161     -0.2716
     96  ND2      -25.1560    9.5630   -1.7690 N.am  161  ASN161     -0.0877
     97  N        -26.8200   13.5080   -6.9120 N.3   180  LYS180     -0.1245
     98  CA       -25.9460   13.3610   -5.7510 C.3   180  LYS180      0.1561
     99  C        -25.1580   12.0590   -5.8570 C.2   180  LYS180      0.2260
    100  O        -25.7330   10.9890   -6.0690 O.2   180  LYS180     -0.2867
    101  CB       -26.7660   13.4170   -4.4530 C.3   180  LYS180      0.0271
    102  CG       -25.9140   13.5390   -3.1960 C.3   180  LYS180      0.0035
    103  CD       -26.5520   14.4090   -2.0910 C.3   180  LYS180      0.0206
    104  CE       -27.8200   13.7660   -1.4780 C.3   180  LYS180      0.1093
    105  NZ       -27.5400   12.4450   -0.8150 N.3   180  LYS180     -0.1314
    106  N        -22.3940    9.2090   -4.5050 N.3   182  GLY182     -0.1210
    107  CA       -21.7110    8.5450   -3.4190 C.3   182  GLY182      0.1956
    108  C        -22.3860    7.2480   -3.0380 C.2   182  GLY182      0.2612
    109  O        -23.4480    7.2430   -2.4090 O.2   182  GLY182     -0.2717
    110  N        -21.7870    6.1330   -3.4510 N.am  183  VAL183     -0.1965
    111  CA       -22.2440    4.8180   -3.0200 C.3   183  VAL183      0.1727
    112  C        -21.0250    4.1500   -2.4410 C.2   183  VAL183      0.2616
    113  O        -20.0680    3.8850   -3.1670 O.2   183  VAL183     -0.2715
    114  CB       -22.8350    3.9890   -4.1740 C.3   183  VAL183      0.0290
    115  CG1      -23.2310    2.6100   -3.6680 C.3   183  VAL183      0.0023
    116  CG2      -24.0310    4.6960   -4.7810 C.3   183  VAL183      0.0023
    117  N        -21.0180    3.9590   -1.1270 N.am  184  GLY184     -0.1955
    118  CA       -19.8510    3.3970   -0.4700 C.3   184  GLY184      0.1869
    119  C        -18.8670    4.2810    0.3070 C.2   184  GLY184      0.2309
    120  O        -18.1330    3.7560    1.1390 O.2   184  GLY184     -0.2863
    121  N        -20.2510    4.4480    6.6560 N.3   189  CYS189     -0.1235
    122  CA       -20.7990    3.5070    5.6750 C.3   189  CYS189      0.1677
    123  C        -20.1250    2.1400    5.7580 C.2   189  CYS189      0.2270
    124  O        -18.9010    2.0530    5.8170 O.2   189  CYS189     -0.2867
    125  CB       -20.6350    4.0780    4.2620 C.3   189  CYS189      0.0956
    126  SG       -20.7760    2.8680    2.9000 S.3   189  CYS189     -0.0801
    127  N        -21.4690   -0.3470    3.5720 N.3   191  THR191     -0.1218
    128  CA       -21.8990   -0.9300    2.3010 C.3   191  THR191      0.1862
    129  C        -20.7840   -1.7150    1.5850 C.2   191  THR191      0.2287
    130  O        -21.0330   -2.8000    1.0300 O.2   191  THR191     -0.2866
    131  CB       -22.4310    0.1560    1.3810 C.3   191  THR191      0.1770
    132  OG1      -23.5460    0.7840    2.0350 O.3   191  THR191     -0.2211
    133  CG2      -22.8750   -0.4210    0.0560 C.3   191  THR191      0.0375
    134  N        -27.4630    6.4480    8.8360 N.3   272  MET272     -0.1230
    135  CA       -28.9200    6.4070    8.8320 C.3   272  MET272      0.1702
    136  C        -29.3940    4.9980    8.5170 C.2   272  MET272      0.2592
    137  O        -30.5860    4.6930    8.5890 O.2   272  MET272     -0.2718
    138  CB       -29.4750    7.4160    7.8260 C.3   272  MET272      0.0401
    139  CG       -29.3010    8.8340    8.2990 C.3   272  MET272      0.0596
    140  SD       -30.3630    9.1930    9.7380 S.3   272  MET272     -0.1393
    141  CE       -31.8660    9.5920    8.8540 C.3   272  MET272      0.0692
    142  N        -28.4410    4.1430    8.1650 N.am  273  GLY273     -0.1957
    143  CA       -28.7140    2.7300    7.9930 C.3   273  GLY273      0.1869
    144  C        -28.2130    1.9120    9.1740 C.2   273  GLY273      0.2309
    145  O        -28.2420    0.6810    9.1110 O.2   273  GLY273     -0.2863
    146  N        -32.3090    2.8150   12.2280 N.3   278  MET278     -0.1245
    147  CA       -33.4220    2.0460   11.6710 C.3   278  MET278      0.1570
    148  C        -34.4820    1.7510   12.7270 C.2   278  MET278      0.2261
    149  O        -34.2890    2.0350   13.9100 O.2   278  MET278     -0.2867
    150  CB       -32.9210    0.7380   11.0600 C.3   278  MET278      0.0387
    151  CG       -32.2440    0.8960    9.7040 C.3   278  MET278      0.0595
    152  SD       -31.3580   -0.5950    9.1990 S.3   278  MET278     -0.1393
    153  CE       -31.9620   -0.7960    7.5230 C.3   278  MET278      0.0692
    154  N        -26.2130   -1.2200    7.1840 N.3   282  GLU282     -0.1245
    155  CA       -25.1150   -0.8280    6.3100 C.3   282  GLU282      0.1567
    156  C        -24.5100    0.4770    6.7990 C.2   282  GLU282      0.2260
    157  O        -23.8530    1.1950    6.0480 O.2   282  GLU282     -0.2867
    158  CB       -25.5790   -0.7000    4.8580 C.3   282  GLU282      0.0388
    159  CG       -25.9070   -2.0450    4.2250 C.3   282  GLU282      0.1160
    160  CD       -26.2990   -1.9310    2.7580 C.2   282  GLU282      0.3649
    161  OE1      -25.8810   -0.9520    2.0900 O.co2 282  GLU282     -0.2457
    162  OE2      -27.0310   -2.8270    2.2850 O.co2 282  GLU282     -0.2457
@<TRIPOS>BOND
     1    68    69    2
     2    68    67    1
     3    74    75    1
     4    66    67    1
     5    67    70    1
     6    84    85    2
     7    84    83    1
     8    75    76    1
     9    75    78    1
    10    64    65   ar
    11    64    62   ar
    12    65    63   ar
    13    72    71    2
    14    76    82   am
    15    76    77    2
    16    82    83    1
    17    70    71    1
    18    81    79    1
    19    83    86    1
    20    71    73   am
    21    62    61   ar
    22    97    98    1
    23    79    78    1
    24    79    80    1
    25    86    87    1
    26    86    88    1
    27    63    61   ar
    28    61    60    1
    29   100    99    2
    30    59    58    2
    31    92    91    2
    32    99    98    1
    33    91    90    1
    34    58    57    1
    35    98   101    1
    36    57    60    1
    37    57    56    1
    38   116   114    1
    39    90    89    1
    40    90    93    1
    41   106   107    1
    42   101   102    1
    43   114   115    1
    44   114   111    1
    45    34    33    1
    46    49    48    1
    47    93    94    1
    48    35    33    1
    49    56    53   am
    50   110   108   am
    51   110   111    1
    52   107   108    1
    53   102   103    1
    54   113   112    2
    55   108   109    2
    56    54    53    2
    57   111   112    1
    58    33    30    1
    59    95    94    2
    60    53    52    1
    61    94    96   am
    62   112   117   am
    63    50    48    1
    64    48    45    1
    65   103   104    1
    66    30    31    1
    67    30    29    1
    68    47    46    2
    69    31    32    2
    70    28    27    2
    71   104   105    1
    72    46    45    1
    73    46    51   am
    74    36    37    1
    75    52    51    1
    76    52    55    1
    77   117   118    1
    78    45    44    1
    79    44    38   am
    80    29    27   am
    81    27    26    1
    82   118   119    1
    83    37    38    1
    84    37    40    1
    85    38    39    2
    86   133   131    1
    87   119   120    2
    88    26    25    1
    89    40    41    1
    90   130   129    2
    91   131   132    1
    92   131   128    1
    93   129   128    1
    94    42    41   ar
    95    41    43   ar
    96   161   160   ar
    97   162   160   ar
    98   128   127    1
    99    24    22    1
   100   160   159    1
   101   126   125    1
   102    22    21    2
   103    22    23    1
   104    21    20    1
   105    20    19    1
   106   159   158    1
   107   125   122    1
   108     5     2    1
   109   158   155    1
   110     1     2    1
   111    19    18    1
   112   122   123    1
   113   122   121    1
   114   123   124    2
   115     2     3    1
   116    18    15    1
   117   157   156    2
   118   155   156    1
   119   155   154    1
   120     4     3    2
   121     3     6   am
   122    15    14    1
   123    15    16    1
   124   153   152    1
   125    12    11    1
   126    12    13    1
   127    11    10    1
   128   138   139    1
   129   138   135    1
   130   143   142    1
   131   143   144    1
   132     6     7    1
   133   142   136   am
   134    17    16    2
   135   139   140    1
   136   136   137    2
   137   136   135    1
   138   135   134    1
   139   141   140    1
   140     7    10    1
   141     7     8    1
   142   145   144    2
   143   152   151    1
   144   151   150    1
   145     8     9    2
   146   150   147    1
   147   147   146    1
   148   147   148    1
   149   148   149    2
