@<TRIPOS>MOLECULE
tmp/4zqnA01.pdb
 120 110 0 0 0
SMALL
GASTEIGER

@<TRIPOS>ATOM
      1  N        -31.3650   -9.1170    8.3260 N.3    81  ARG81      -0.1245
      2  CA       -31.8850   -7.7660    8.2990 C.3    81  ARG81       0.1563
      3  C        -32.9610   -7.4770    9.3440 C.2    81  ARG81       0.2260
      4  O        -33.6380   -6.4780    9.2510 O.2    81  ARG81      -0.2867
      5  CB       -32.3660   -7.3950    6.8990 C.3    81  ARG81       0.0307
      6  CG       -33.5870   -8.1540    6.4330 C.3    81  ARG81       0.0489
      7  CD       -33.6970   -8.1240    4.9270 C.3    81  ARG81       0.2205
      8  NE       -34.8320   -8.8930    4.4520 N.pl3  81  ARG81      -0.0865
      9  CZ       -36.0930   -8.4920    4.5310 C.cat  81  ARG81       0.5346
     10  NH1      -36.3890   -7.3230    5.0660 N.pl3  81  ARG81       0.1354
     11  NH2      -37.0600   -9.2620    4.0680 N.pl3  81  ARG81       0.1354
     12  N        -37.3610   -5.2580   -0.0560 N.3   109  VAL109     -0.1245
     13  CA       -37.6820   -4.3630   -1.1680 C.3   109  VAL109      0.1561
     14  C        -38.4120   -3.0740   -0.7060 C.2   109  VAL109      0.2260
     15  O        -39.2680   -3.1200    0.1780 O.2   109  VAL109     -0.2867
     16  CB       -38.4620   -5.1080   -2.2940 C.3   109  VAL109      0.0252
     17  CG1      -37.7300   -6.3900   -2.6930 C.3   109  VAL109      0.0019
     18  CG2      -39.8780   -5.4220   -1.8600 C.3   109  VAL109      0.0019
     19  N        -33.6250  -10.3340   -0.5440 N.3   131  ASP131     -0.1225
     20  CA       -33.9570  -11.5030    0.2640 C.3   131  ASP131      0.1805
     21  C        -35.4730  -11.6020    0.4530 C.2   131  ASP131      0.2598
     22  O        -36.0110  -11.0990    1.4450 O.2   131  ASP131     -0.2718
     23  CB       -33.2270  -11.3120    1.6100 C.3   131  ASP131      0.1424
     24  CG       -33.6220  -12.3190    2.6850 C.2   131  ASP131      0.3668
     25  OD1      -33.8580  -13.5110    2.3710 O.co2 131  ASP131     -0.2456
     26  OD2      -33.6670  -11.8970    3.8690 O.co2 131  ASP131     -0.2456
     27  N        -36.1590  -12.2460   -0.4980 N.am  132  THR132     -0.1939
     28  CA       -37.6310  -12.2490   -0.5360 C.3   132  THR132      0.2028
     29  C        -38.2220  -13.6260   -0.7660 C.2   132  THR132      0.2642
     30  O        -37.5430  -14.5230   -1.2520 O.2   132  THR132     -0.2714
     31  CB       -38.1810  -11.3730   -1.6870 C.3   132  THR132      0.1808
     32  OG1      -38.0040  -12.0620   -2.9340 O.3   132  THR132     -0.2208
     33  CG2      -37.4840  -10.0200   -1.7340 C.3   132  THR132      0.0379
     34  N        -39.4880  -13.7660   -0.4000 N.am  133  ALA133     -0.1963
     35  CA       -40.2250  -15.0030   -0.5750 C.3   133  ALA133      0.1728
     36  C        -40.3930  -15.3770   -2.0340 C.2   133  ALA133      0.2616
     37  O        -40.3360  -16.5340   -2.3850 O.2   133  ALA133     -0.2715
     38  CB       -41.5720  -14.9180    0.1200 C.3   133  ALA133      0.0334
     39  N        -40.6420  -14.3880   -2.8750 N.am  134  HIS134     -0.1973
     40  CA       -40.9500  -14.6570   -4.2640 C.3   134  HIS134      0.1656
     41  C        -40.2360  -13.6860   -5.2060 C.2   134  HIS134      0.2291
     42  O        -40.7360  -12.6140   -5.4800 O.2   134  HIS134     -0.2864
     43  CB       -42.4720  -14.5990   -4.4350 C.3   134  HIS134      0.0771
     44  CG       -42.9560  -14.9810   -5.7940 C.ar  134  HIS134      0.0820
     45  ND1      -42.3300  -15.9230   -6.5720 N.ar  134  HIS134     -0.2267
     46  CD2      -44.0200  -14.5530   -6.5070 C.ar  134  HIS134      0.1154
     47  CE1      -42.9820  -16.0550   -7.7080 C.ar  134  HIS134      0.1986
     48  NE2      -44.0110  -15.2310   -7.6940 N.ar  134  HIS134     -0.2212
     49  N        -41.7080  -11.9500   -8.3500 N.3   137  ASN137     -0.1240
     50  CA       -42.5790  -10.7850   -8.2430 C.3   137  ASN137      0.1653
     51  C        -41.9060   -9.5290   -8.7870 C.2   137  ASN137      0.2266
     52  O        -40.7210   -9.2820   -8.5300 O.2   137  ASN137     -0.2867
     53  CB       -43.0720  -10.5570   -6.8170 C.3   137  ASN137      0.1155
     54  CG       -44.0010   -9.3510   -6.7200 C.2   137  ASN137      0.2627
     55  OD1      -43.5460   -8.2090   -6.6430 O.2   137  ASN137     -0.2716
     56  ND2      -45.3030   -9.5970   -6.7550 N.am  137  ASN137     -0.0877
     57  N        -41.8080   -6.4050   -8.0950 N.3   139  LEU139     -0.1231
     58  CA       -41.1340   -5.4880   -7.1770 C.3   139  LEU139      0.1693
     59  C        -39.7030   -5.9380   -6.9120 C.2   139  LEU139      0.2591
     60  O        -38.7680   -5.1320   -6.8700 O.2   139  LEU139     -0.2718
     61  CB       -41.9060   -5.3850   -5.8600 C.3   139  LEU139      0.0284
     62  CG       -43.2980   -4.7580   -5.9480 C.3   139  LEU139      0.0019
     63  CD1      -43.9710   -4.7220   -4.5880 C.3   139  LEU139      0.0001
     64  CD2      -43.2100   -3.3640   -6.5220 C.3   139  LEU139      0.0001
     65  N        -39.5300   -7.2380   -6.7460 N.am  140  VAL140     -0.1980
     66  CA       -38.2090   -7.7710   -6.5000 C.3   140  VAL140      0.1595
     67  C        -37.3280   -7.6090   -7.7320 C.2   140  VAL140      0.2287
     68  O        -36.1660   -7.2530   -7.6110 O.2   140  VAL140     -0.2864
     69  CB       -38.2790   -9.2460   -6.1020 C.3   140  VAL140      0.0276
     70  CG1      -36.9400   -9.7040   -5.5700 C.3   140  VAL140      0.0022
     71  CG2      -39.3660   -9.4510   -5.0260 C.3   140  VAL140      0.0022
     72  N        -39.5680  -23.7290    7.3980 N.3   189  CYS189     -0.1235
     73  CA       -40.4720  -23.0610    6.4660 C.3   189  CYS189      0.1677
     74  C        -41.8410  -23.7310    6.4580 C.2   189  CYS189      0.2270
     75  O        -41.9380  -24.9560    6.5810 O.2   189  CYS189     -0.2867
     76  CB       -39.8670  -23.1020    5.0630 C.3   189  CYS189      0.0956
     77  SG       -40.9380  -22.5770    3.7100 S.3   189  CYS189     -0.0801
     78  N        -44.2600  -22.4870    4.0350 N.3   191  THR191     -0.1218
     79  CA       -44.8610  -21.9930    2.8010 C.3   191  THR191      0.1862
     80  C        -45.6290  -23.0700    2.0520 C.2   191  THR191      0.2287
     81  O        -46.7370  -22.8220    1.5650 O.2   191  THR191     -0.2866
     82  CB       -43.8010  -21.3940    1.8690 C.3   191  THR191      0.1770
     83  OG1      -43.1360  -20.3280    2.5480 O.3   191  THR191     -0.2211
     84  CG2      -44.4450  -20.8420    0.6080 C.3   191  THR191      0.0375
     85  N        -37.7100  -16.5450    9.6000 N.3   272  MET272     -0.1230
     86  CA       -37.7980  -15.0920    9.6270 C.3   272  MET272      0.1702
     87  C        -39.2260  -14.6990    9.3230 C.2   272  MET272      0.2592
     88  O        -39.6210  -13.5460    9.5300 O.2   272  MET272     -0.2718
     89  CB       -36.8420  -14.4690    8.6090 C.3   272  MET272      0.0401
     90  CG       -35.3850  -14.7670    8.8850 C.3   272  MET272      0.0596
     91  SD       -34.8530  -14.0090   10.4240 S.3   272  MET272     -0.1393
     92  CE       -34.8330  -12.3100    9.8760 C.3   272  MET272      0.0692
     93  N        -39.9980  -15.6660    8.8250 N.am  273  GLY273     -0.1957
     94  CA       -41.4180  -15.4700    8.5850 C.3   273  GLY273      0.1869
     95  C        -42.2340  -16.0890    9.7010 C.2   273  GLY273      0.2309
     96  O        -43.4280  -16.3150    9.5480 O.2   273  GLY273     -0.2863
     97  N        -41.2420  -11.8580   13.2330 N.3   278  MET278     -0.1245
     98  CA       -41.8910  -10.7010   12.6190 C.3   278  MET278      0.1570
     99  C        -42.2580   -9.6200   13.6330 C.2   278  MET278      0.2261
    100  O        -42.4130   -8.4530   13.2700 O.2   278  MET278     -0.2867
    101  CB       -43.1540  -11.1090   11.8530 C.3   278  MET278      0.0387
    102  CG       -42.9270  -12.0110   10.6590 C.3   278  MET278      0.0595
    103  SD       -44.4960  -12.6710   10.0570 S.3   278  MET278     -0.1393
    104  CE       -45.0070  -11.3370    8.9870 C.3   278  MET278      0.0692
    105  N        -49.8920  -13.4170    8.8100 N.3   283  VAL283     -0.1245
    106  CA       -49.9460  -14.8130    8.4080 C.3   283  VAL283      0.1561
    107  C        -48.5250  -15.3360    8.2050 C.2   283  VAL283      0.2260
    108  O        -47.9020  -15.1210    7.1860 O.2   283  VAL283     -0.2867
    109  CB       -50.8000  -14.9900    7.1460 C.3   283  VAL283      0.0252
    110  CG1      -50.5930  -16.3580    6.5230 C.3   283  VAL283      0.0019
    111  CG2      -52.2650  -14.7540    7.4660 C.3   283  VAL283      0.0019
    112  N        -45.1740  -17.7040    7.6640 N.3   285  GLU285     -0.1245
    113  CA       -44.7860  -18.7900    6.7560 C.3   285  GLU285      0.1567
    114  C        -43.5430  -19.5040    7.2830 C.2   285  GLU285      0.2260
    115  O        -42.7490  -20.1020    6.5220 O.2   285  GLU285     -0.2867
    116  CB       -44.5280  -18.2580    5.3430 C.3   285  GLU285      0.0388
    117  CG       -45.7600  -18.1670    4.4640 C.3   285  GLU285      0.1160
    118  CD       -45.4810  -17.4730    3.1350 C.2   285  GLU285      0.3649
    119  OE1      -44.7150  -18.0400    2.3220 O.co2 285  GLU285     -0.2457
    120  OE2      -46.0360  -16.3680    2.8990 O.co2 285  GLU285     -0.2457
@<TRIPOS>BOND
     1    51    52    2
     2    51    50    1
     3    49    50    1
     4    50    53    1
     5    57    58    1
     6    67    68    2
     7    67    66    1
     8    47    48   ar
     9    47    45   ar
    10    48    46   ar
    11    58    59    1
    12    58    61    1
    13    59    60    2
    14    59    65   am
    15    53    54    1
    16    56    54   am
    17    65    66    1
    18    54    55    2
    19    45    44   ar
    20    64    62    1
    21    46    44   ar
    22    66    69    1
    23    69    70    1
    24    69    71    1
    25    62    61    1
    26    62    63    1
    27    44    43    1
    28    42    41    2
    29    41    40    1
    30    43    40    1
    31    40    39    1
    32    32    31    1
    33    39    36   am
    34    17    16    1
    35    37    36    2
    36    16    18    1
    37    16    13    1
    38    36    35    1
    39    33    31    1
    40    31    28    1
    41    30    29    2
    42    13    14    1
    43    13    12    1
    44    29    28    1
    45    29    34   am
    46    14    15    2
    47    35    34    1
    48    35    38    1
    49    19    20    1
    50    28    27    1
    51    27    21   am
    52    20    21    1
    53    20    23    1
    54    21    22    2
    55    84    82    1
    56    81    80    2
    57    23    24    1
    58    82    83    1
    59    82    79    1
    60    80    79    1
    61   119   118   ar
    62    25    24   ar
    63    24    26   ar
    64    79    78    1
    65   120   118   ar
    66   118   117    1
    67    77    76    1
    68    11     9    1
    69     8     9    2
    70     8     7    1
    71   117   116    1
    72     9    10    1
    73     7     6    1
    74    76    73    1
    75   116   113    1
    76     6     5    1
    77    74    73    1
    78    74    75    2
    79    73    72    1
    80   115   114    2
    81   110   109    1
    82   113   114    1
    83   113   112    1
    84     5     2    1
    85   109   111    1
    86   109   106    1
    87   108   107    2
    88   107   106    1
    89     2     1    1
    90     2     3    1
    91   106   105    1
    92    94    93    1
    93    94    95    1
    94    89    90    1
    95    89    86    1
    96    93    87   am
    97    90    91    1
    98   104   103    1
    99     4     3    2
   100    87    88    2
   101    87    86    1
   102    96    95    2
   103    85    86    1
   104    92    91    1
   105   103   102    1
   106   102   101    1
   107   101    98    1
   108    98    97    1
   109    98    99    1
   110   100    99    2
