@<TRIPOS>MOLECULE
tmp/4zqoA01.pdb
 134 123 0 0 0
SMALL
GASTEIGER

@<TRIPOS>ATOM
      1  N         29.0020   13.3720   -8.6150 N.3    58  MET58      -0.1245
      2  CA        28.8150   12.3070   -9.5990 C.3    58  MET58       0.1570
      3  C         29.3070   12.7790  -10.9620 C.2    58  MET58       0.2261
      4  O         29.2110   13.9660  -11.2730 O.2    58  MET58      -0.2867
      5  CB        27.3340   11.9460   -9.6840 C.3    58  MET58       0.0387
      6  CG        26.7640   11.4620   -8.3440 C.3    58  MET58       0.0595
      7  SD        24.9930   11.1820   -8.3780 S.3    58  MET58      -0.1393
      8  CE        24.9160    9.7500   -9.4520 C.3    58  MET58       0.0692
      9  N         35.0180   12.4970   -8.0320 N.3    81  ARG81      -0.1245
     10  CA        36.3960   12.0090   -7.9740 C.3    81  ARG81       0.1563
     11  C         36.6810   10.8840   -8.9660 C.2    81  ARG81       0.2260
     12  O         37.6610   10.1670   -8.8190 O.2    81  ARG81      -0.2867
     13  CB        36.7610   11.5630   -6.5510 C.3    81  ARG81       0.0307
     14  CG        35.9520   10.3670   -6.0090 C.3    81  ARG81       0.0489
     15  CD        36.2880   10.1150   -4.5440 C.3    81  ARG81       0.2205
     16  NE        35.4430    9.1020   -3.9070 N.pl3  81  ARG81      -0.0865
     17  CZ        35.7490    7.8090   -3.8400 C.cat  81  ARG81       0.5346
     18  NH1       36.8710    7.3600   -4.3820 N.pl3  81  ARG81       0.1354
     19  NH2       34.9290    6.9620   -3.2320 N.pl3  81  ARG81       0.1354
     20  N         33.8430   10.5620    0.9920 N.3   131  ASP131     -0.1225
     21  CA        32.5890   10.1170    0.4040 C.3   131  ASP131      0.1805
     22  C         32.6350    8.6230    0.1320 C.2   131  ASP131      0.2598
     23  O         33.2880    8.1780   -0.8110 O.2   131  ASP131     -0.2718
     24  CB        32.3520   10.8970   -0.8880 C.3   131  ASP131      0.1424
     25  CG        30.9170   10.8240   -1.3600 C.2   131  ASP131      0.3668
     26  OD1       30.6770   11.1490   -2.5440 O.co2 131  ASP131     -0.2456
     27  OD2       30.0340   10.4420   -0.5540 O.co2 131  ASP131     -0.2456
     28  N         31.9740    7.8440    0.9850 N.am  132  THR132     -0.1939
     29  CA        32.0730    6.3920    0.9180 C.3   132  THR132      0.2028
     30  C         30.7000    5.7470    1.0430 C.2   132  THR132      0.2642
     31  O         29.7620    6.3490    1.5770 O.2   132  THR132     -0.2714
     32  CB        32.9450    5.8420    2.0570 C.3   132  THR132      0.1808
     33  OG1       32.2930    6.1030    3.3080 O.3   132  THR132     -0.2208
     34  CG2       34.3220    6.5120    2.0520 C.3   132  THR132      0.0379
     35  N         30.5970    4.5090    0.5690 N.am  133  ALA133     -0.1963
     36  CA        29.3390    3.7710    0.6300 C.3   133  ALA133      0.1728
     37  C         28.9400    3.5080    2.0720 C.2   133  ALA133      0.2616
     38  O         27.7660    3.4830    2.4070 O.2   133  ALA133     -0.2715
     39  CB        29.4640    2.4370   -0.1320 C.3   133  ALA133      0.0334
     40  N         29.9340    3.2770    2.9200 N.am  134  HIS134     -0.1973
     41  CA        29.6860    2.9260    4.3130 C.3   134  HIS134      0.1656
     42  C         30.7240    3.6340    5.1720 C.2   134  HIS134      0.2291
     43  O         31.8880    3.2850    5.1260 O.2   134  HIS134     -0.2864
     44  CB        29.8140    1.4060    4.4930 C.3   134  HIS134      0.0771
     45  CG        29.4510    0.9210    5.8630 C.ar  134  HIS134      0.0820
     46  ND1       28.3750    1.4120    6.5650 N.ar  134  HIS134     -0.2267
     47  CD2       30.0170   -0.0210    6.6540 C.ar  134  HIS134      0.1154
     48  CE1       28.2920    0.7950    7.7310 C.ar  134  HIS134      0.1986
     49  NE2       29.2760   -0.0800    7.8100 N.ar  134  HIS134     -0.2212
     50  N         33.2240    2.8140    9.9070 N.3   137  ASN137     -0.1240
     51  CA        34.3690    1.9310    9.9890 C.3   137  ASN137      0.1653
     52  C         35.6140    2.7640   10.2350 C.2   137  ASN137      0.2266
     53  O         35.6190    3.9640    9.9610 O.2   137  ASN137     -0.2867
     54  CB        34.5190    1.1310    8.7030 C.3   137  ASN137      0.1155
     55  CG        34.8030    2.0020    7.5020 C.2   137  ASN137      0.2627
     56  OD1       35.9350    2.4380    7.2960 O.2   137  ASN137     -0.2716
     57  ND2       33.7840    2.2310    6.6790 N.am  137  ASN137     -0.0877
     58  N         38.5290    2.9610    8.8090 N.3   139  LEU139     -0.1231
     59  CA        39.1700    3.5780    7.6510 C.3   139  LEU139      0.1693
     60  C         38.6310    4.9840    7.3790 C.2   139  LEU139      0.2591
     61  O         39.4010    5.9270    7.1970 O.2   139  LEU139     -0.2718
     62  CB        38.9970    2.7140    6.4010 C.3   139  LEU139      0.0284
     63  CG        39.6120    1.3190    6.3820 C.3   139  LEU139      0.0019
     64  CD1       39.4990    0.7200    4.9830 C.3   139  LEU139      0.0001
     65  CD2       41.0570    1.3690    6.8350 C.3   139  LEU139      0.0001
     66  N         37.3090    5.1240    7.3500 N.am  140  VAL140     -0.1980
     67  CA        36.7020    6.4210    7.0760 C.3   140  VAL140      0.1595
     68  C         36.8710    7.3960    8.2340 C.2   140  VAL140      0.2287
     69  O         37.1390    8.5820    8.0360 O.2   140  VAL140     -0.2864
     70  CB        35.1910    6.2830    6.7610 C.3   140  VAL140      0.0276
     71  CG1       34.5690    7.6540    6.5930 C.3   140  VAL140      0.0022
     72  CG2       35.0030    5.4530    5.5130 C.3   140  VAL140      0.0022
     73  N         20.2910    4.2660   -7.5480 N.3   189  CYS189     -0.1235
     74  CA        20.9760    3.4070   -6.5900 C.3   189  CYS189      0.1677
     75  C         20.2510    2.0720   -6.4080 C.2   189  CYS189      0.2270
     76  O         19.0260    2.0420   -6.3230 O.2   189  CYS189     -0.2867
     77  CB        21.0450    4.1290   -5.2500 C.3   189  CYS189      0.0956
     78  SG        21.5570    3.0870   -3.8690 S.3   189  CYS189     -0.0801
     79  N         21.6580   -0.2440   -4.0380 N.3   191  THR191     -0.1218
     80  CA        22.2040   -0.7390   -2.7740 C.3   191  THR191      0.1862
     81  C         21.1970   -1.5250   -1.9500 C.2   191  THR191      0.2287
     82  O         21.4850   -2.6310   -1.4970 O.2   191  THR191     -0.2866
     83  CB        22.7450    0.4280   -1.9140 C.3   191  THR191      0.1770
     84  OG1       23.8540    1.0180   -2.5960 O.3   191  THR191     -0.2211
     85  CG2       23.2120   -0.0830   -0.5600 C.3   191  THR191      0.0375
     86  N         22.2450   -5.3350   -1.9230 N.3   195  ALA195     -0.1245
     87  CA        22.7680   -5.7140   -0.6160 C.3   195  ALA195      0.1562
     88  C         21.6750   -5.9030    0.4350 C.2   195  ALA195      0.2260
     89  O         21.9050   -6.5230    1.4670 O.2   195  ALA195     -0.2867
     90  CB        23.8210   -4.6910   -0.1300 C.3   195  ALA195      0.0290
     91  N         27.4170    6.1820   -9.4710 N.3   272  MET272     -0.1230
     92  CA        28.8720    6.0850   -9.4290 C.3   272  MET272      0.1702
     93  C         29.3270    4.6720   -9.0700 C.2   272  MET272      0.2592
     94  O         30.5170    4.3470   -9.1690 O.2   272  MET272     -0.2718
     95  CB        29.4660    7.1180   -8.4610 C.3   272  MET272      0.0401
     96  CG        29.2390    8.5530   -8.9190 C.3   272  MET272      0.0596
     97  SD        30.2150    8.8670  -10.3870 S.3   272  MET272     -0.1393
     98  CE        31.7990    9.1640   -9.6230 C.3   272  MET272      0.0692
     99  N         28.3710    3.8460   -8.6510 N.am  273  GLY273     -0.1957
    100  CA        28.6090    2.4410   -8.3990 C.3   273  GLY273      0.1869
    101  C         27.9910    1.5650   -9.4760 C.2   273  GLY273      0.2309
    102  O         27.8160    0.3610   -9.2850 O.2   273  GLY273     -0.2863
    103  N         32.1900    2.4490  -12.6800 N.3   278  MET278     -0.1245
    104  CA        33.3140    1.7380  -12.0670 C.3   278  MET278      0.1570
    105  C         34.4040    1.4210  -13.0810 C.2   278  MET278      0.2261
    106  O         35.5840    1.4350  -12.7450 O.2   278  MET278     -0.2867
    107  CB        32.8460    0.4600  -11.3530 C.3   278  MET278      0.0387
    108  CG        31.9170    0.7300  -10.1650 C.3   278  MET278      0.0595
    109  SD        31.3410   -0.7460   -9.2870 S.3   278  MET278     -0.1393
    110  CE        30.8400   -1.7770  -10.6600 C.3   278  MET278      0.0692
    111  N         33.9690   -5.5510   -6.3810 N.3   282  LEU282     -0.1231
    112  CA        32.5990   -5.3050   -5.9380 C.3   282  LEU282      0.1693
    113  C         31.5870   -5.3780   -7.0770 C.2   282  LEU282      0.2591
    114  O         31.8580   -4.9230   -8.1720 O.2   282  LEU282     -0.2718
    115  CB        32.5060   -3.9370   -5.2590 C.3   282  LEU282      0.0284
    116  CG        33.4450   -3.6600   -4.0850 C.3   282  LEU282      0.0019
    117  CD1       33.4720   -2.1880   -3.7250 C.3   282  LEU282      0.0001
    118  CD2       33.0840   -4.4980   -2.8770 C.3   282  LEU282      0.0001
    119  N         30.4140   -5.9350   -6.8020 N.am  283  VAL283     -0.1980
    120  CA        29.3370   -5.9150   -7.7710 C.3   283  VAL283      0.1595
    121  C         28.7050   -4.5310   -7.7660 C.2   283  VAL283      0.2287
    122  O         28.7670   -3.8240   -6.7890 O.2   283  VAL283     -0.2864
    123  CB        28.2660   -6.9650   -7.4650 C.3   283  VAL283      0.0276
    124  CG1       28.8480   -8.3580   -7.5870 C.3   283  VAL283      0.0022
    125  CG2       27.6850   -6.7390   -6.0880 C.3   283  VAL283      0.0022
    126  N         26.3230   -1.3100   -7.5140 N.3   285  GLU285     -0.1245
    127  CA        25.2060   -0.8990   -6.6550 C.3   285  GLU285      0.1567
    128  C         24.5160    0.3120   -7.2530 C.2   285  GLU285      0.2260
    129  O         23.9430    1.1370   -6.5410 O.2   285  GLU285     -0.2867
    130  CB        25.6760   -0.6200   -5.2230 C.3   285  GLU285      0.0388
    131  CG        26.1460   -1.8970   -4.5150 C.3   285  GLU285      0.1160
    132  CD        26.5660   -1.6650   -3.0790 C.2   285  GLU285      0.3649
    133  OE1       25.9800   -0.7730   -2.4240 O.co2 285  GLU285     -0.2457
    134  OE2       27.4850   -2.3760   -2.6100 O.co2 285  GLU285     -0.2457
@<TRIPOS>BOND
     1   105   106    2
     2   105   104    1
     3   103   104    1
     4   104   107    1
     5   107   108    1
     6     4     3    2
     7     3     2    1
     8   110   109    1
     9    97    98    1
    10    97    96    1
    11   108   109    1
    12     5     2    1
    13     5     6    1
    14     2     1    1
    15   101   102    2
    16   101   100    1
    17    91    92    1
    18     8     7    1
    19    92    93    1
    20    92    95    1
    21    94    93    2
    22    93    99   am
    23    11    12    2
    24    11    10    1
    25    96    95    1
    26    99   100    1
    27     7     6    1
    28   114   113    2
    29     9    10    1
    30    10    13    1
    31   120   121    1
    32   120   123    1
    33   120   119    1
    34   121   122    2
    35   124   123    1
    36    73    74    1
    37   126   127    1
    38   123   125    1
    39   128   127    1
    40   128   129    2
    41   113   119   am
    42   113   112    1
    43   127   130    1
    44    74    75    1
    45    74    77    1
    46    13    14    1
    47    75    76    2
    48   111   112    1
    49    14    15    1
    50   112   115    1
    51   115   116    1
    52    77    78    1
    53   130   131    1
    54    15    16    1
    55   131   132    1
    56    18    17    1
    57   116   117    1
    58   116   118    1
    59    79    80    1
    60    16    17    2
    61    17    19    1
    62   132   134   ar
    63   132   133   ar
    64    80    81    1
    65    80    83    1
    66    84    83    1
    67    26    25   ar
    68    81    82    2
    69    86    87    1
    70    83    85    1
    71    25    24    1
    72    25    27   ar
    73    24    21    1
    74    23    22    2
    75    87    90    1
    76    87    88    1
    77    39    36    1
    78    22    21    1
    79    22    28   am
    80    21    20    1
    81    88    89    2
    82    35    36    1
    83    35    30   am
    84    36    37    1
    85    29    28    1
    86    29    30    1
    87    29    32    1
    88    30    31    2
    89    34    32    1
    90    32    33    1
    91    37    38    2
    92    37    40   am
    93    40    41    1
    94    41    44    1
    95    41    42    1
    96    44    45    1
    97    64    63    1
    98    43    42    2
    99    72    70    1
   100    45    46   ar
   101    45    47   ar
   102    63    62    1
   103    63    65    1
   104    62    59    1
   105    46    48   ar
   106    71    70    1
   107    47    49   ar
   108    57    55   am
   109    70    67    1
   110    67    66    1
   111    67    68    1
   112    61    60    2
   113    56    55    2
   114    66    60   am
   115    60    59    1
   116    55    54    1
   117    59    58    1
   118    48    49   ar
   119    69    68    2
   120    54    51    1
   121    50    51    1
   122    53    52    2
   123    51    52    1
