@<TRIPOS>MOLECULE
tmp/4zqpA01.pdb
 164 152 0 0 0
SMALL
GASTEIGER

@<TRIPOS>ATOM
      1  N        -31.3710   -9.0530    8.4950 N.3    81  ARG81      -0.1245
      2  CA       -31.8910   -7.6930    8.4440 C.3    81  ARG81       0.1563
      3  C        -33.0400   -7.4140    9.4310 C.2    81  ARG81       0.2260
      4  O        -33.7460   -6.4020    9.2970 O.2    81  ARG81      -0.2867
      5  CB       -32.3590   -7.3820    7.0210 C.3    81  ARG81       0.0307
      6  CG       -33.5290   -8.2550    6.5350 C.3    81  ARG81       0.0489
      7  CD       -33.8390   -7.9750    5.0760 C.3    81  ARG81       0.2205
      8  NE       -34.8980   -8.8260    4.5260 N.pl3  81  ARG81      -0.0865
      9  CZ       -36.1880   -8.4920    4.5110 C.cat  81  ARG81       0.5346
     10  NH1      -36.5900   -7.3490    5.0410 N.pl3  81  ARG81       0.1354
     11  NH2      -37.0800   -9.3110    3.9770 N.pl3  81  ARG81       0.1354
     12  N        -34.4490   -5.9910    2.0450 N.3   108  GLY108     -0.1210
     13  CA       -35.7820   -6.3070    1.5490 C.3   108  GLY108      0.1956
     14  C        -36.0530   -5.5370    0.2770 C.2   108  GLY108      0.2611
     15  O        -35.1440   -5.2840   -0.5150 O.2   108  GLY108     -0.2717
     16  N        -37.3020   -5.1150    0.1010 N.am  109  VAL109     -0.1979
     17  CA       -37.7420   -4.4140   -1.1020 C.3   109  VAL109      0.1595
     18  C        -38.4900   -3.1340   -0.6990 C.2   109  VAL109      0.2287
     19  O        -39.3200   -3.1790    0.1990 O.2   109  VAL109     -0.2864
     20  CB       -38.6420   -5.3380   -1.9590 C.3   109  VAL109      0.0276
     21  CG1      -39.4230   -4.5530   -3.0050 C.3   109  VAL109      0.0022
     22  CG2      -37.7990   -6.4680   -2.5790 C.3   109  VAL109      0.0022
     23  N        -33.5170  -10.2890   -0.2060 N.3   131  ASP131     -0.1225
     24  CA       -33.9170  -11.4420    0.6010 C.3   131  ASP131      0.1805
     25  C        -35.4560  -11.5350    0.6780 C.2   131  ASP131      0.2598
     26  O        -36.0630  -10.9230    1.5650 O.2   131  ASP131     -0.2718
     27  CB       -33.2690  -11.2870    1.9970 C.3   131  ASP131      0.1424
     28  CG       -33.8760  -12.1910    3.0590 C.2   131  ASP131      0.3668
     29  OD1      -34.0430  -13.4170    2.7980 O.co2 131  ASP131     -0.2456
     30  OD2      -34.1690  -11.6620    4.1680 O.co2 131  ASP131     -0.2456
     31  N        -36.0780  -12.2780   -0.2530 N.am  132  THR132     -0.1939
     32  CA       -37.5490  -12.3160   -0.3700 C.3   132  THR132      0.2028
     33  C        -38.1010  -13.7220   -0.5660 C.2   132  THR132      0.2642
     34  O        -37.4010  -14.6100   -1.0450 O.2   132  THR132     -0.2714
     35  CB       -38.0790  -11.4730   -1.5590 C.3   132  THR132      0.1808
     36  OG1      -37.9480  -12.2240   -2.7740 O.3   132  THR132     -0.2208
     37  CG2      -37.3260  -10.1260   -1.6990 C.3   132  THR132      0.0379
     38  N        -39.3710  -13.8970   -0.2200 N.am  133  ALA133     -0.1963
     39  CA       -40.0570  -15.1880   -0.3810 C.3   133  ALA133      0.1728
     40  C        -40.3550  -15.5100   -1.8400 C.2   133  ALA133      0.2616
     41  O        -40.5310  -16.6680   -2.1980 O.2   133  ALA133     -0.2715
     42  CB       -41.3560  -15.2020    0.4270 C.3   133  ALA133      0.0334
     43  N        -40.4470  -14.4860   -2.6840 N.am  134  HIS134     -0.1973
     44  CA       -40.9130  -14.6910   -4.0560 C.3   134  HIS134      0.1656
     45  C        -40.2770  -13.6680   -4.9900 C.2   134  HIS134      0.2291
     46  O        -40.8400  -12.5820   -5.1910 O.2   134  HIS134     -0.2864
     47  CB       -42.4450  -14.5720   -4.1140 C.3   134  HIS134      0.0771
     48  CG       -43.0380  -14.8860   -5.4560 C.ar  134  HIS134      0.0820
     49  ND1      -42.5080  -15.8380   -6.3010 N.ar  134  HIS134     -0.2267
     50  CD2      -44.1410  -14.4040   -6.0790 C.ar  134  HIS134      0.1154
     51  CE1      -43.2450  -15.9140   -7.3960 C.ar  134  HIS134      0.1986
     52  NE2      -44.2430  -15.0520   -7.2870 N.ar  134  HIS134     -0.2212
     53  N        -41.9080  -11.8700   -8.1440 N.3   137  ASN137     -0.1240
     54  CA       -42.7420  -10.6730   -8.0810 C.3   137  ASN137      0.1653
     55  C        -42.0050   -9.5320   -8.7590 C.2   137  ASN137      0.2266
     56  O        -40.8000   -9.3590   -8.5540 O.2   137  ASN137     -0.2867
     57  CB       -43.0850  -10.3120   -6.6410 C.3   137  ASN137      0.1155
     58  CG       -44.1610   -9.2420   -6.5590 C.2   137  ASN137      0.2627
     59  OD1      -43.9480   -8.1090   -6.9960 O.2   137  ASN137     -0.2716
     60  ND2      -45.3280   -9.6010   -6.0260 N.am  137  ASN137     -0.0877
     61  N        -41.8300   -6.3470   -8.1850 N.3   139  LEU139     -0.1231
     62  CA       -41.1900   -5.4070   -7.2540 C.3   139  LEU139      0.1693
     63  C        -39.7510   -5.8440   -6.8590 C.2   139  LEU139      0.2591
     64  O        -38.8320   -5.0240   -6.6550 O.2   139  LEU139     -0.2718
     65  CB       -42.0630   -5.2630   -6.0020 C.3   139  LEU139      0.0284
     66  CG       -43.3740   -4.5150   -6.2210 C.3   139  LEU139      0.0019
     67  CD1      -44.2510   -4.4800   -4.9580 C.3   139  LEU139      0.0001
     68  CD2      -43.0770   -3.1080   -6.7070 C.3   139  LEU139      0.0001
     69  N        -39.5700   -7.1430   -6.7510 N.am  140  VAL140     -0.1980
     70  CA       -38.2660   -7.7020   -6.4180 C.3   140  VAL140      0.1595
     71  C        -37.2950   -7.5660   -7.5870 C.2   140  VAL140      0.2287
     72  O        -36.1330   -7.1990   -7.4020 O.2   140  VAL140     -0.2864
     73  CB       -38.3620   -9.1770   -6.0210 C.3   140  VAL140      0.0276
     74  CG1      -36.9460   -9.7490   -5.7160 C.3   140  VAL140      0.0022
     75  CG2      -39.3030   -9.3360   -4.8150 C.3   140  VAL140      0.0022
     76  N        -36.0420  -15.4340   -3.3500 N.3   161  ASN161     -0.1240
     77  CA       -35.7870  -16.8170   -3.7800 C.3   161  ASN161      0.1653
     78  C        -36.6880  -17.2650   -4.9350 C.2   161  ASN161      0.2266
     79  O        -37.7830  -16.7320   -5.1310 O.2   161  ASN161     -0.2867
     80  CB       -35.9740  -17.7780   -2.6040 C.3   161  ASN161      0.1155
     81  CG       -34.7680  -17.8290   -1.7120 C.2   161  ASN161      0.2627
     82  OD1      -33.9230  -16.9250   -1.7480 O.2   161  ASN161     -0.2716
     83  ND2      -34.6700  -18.8750   -0.9070 N.am  161  ASN161     -0.0877
     84  N        -30.7150  -17.2900   -5.8890 N.3   180  LYS180     -0.1245
     85  CA       -30.8520  -18.1440   -4.7380 C.3   180  LYS180      0.1561
     86  C        -32.1320  -18.9680   -4.9080 C.2   180  LYS180      0.2260
     87  O        -33.2010  -18.4260   -5.1750 O.2   180  LYS180     -0.2867
     88  CB       -30.8670  -17.3090   -3.4390 C.3   180  LYS180      0.0271
     89  CG       -30.7890  -18.1630   -2.1810 C.3   180  LYS180      0.0035
     90  CD       -29.9150  -17.5000   -1.0950 C.3   180  LYS180      0.0206
     91  CE       -30.5560  -16.2370   -0.5490 C.3   180  LYS180      0.1093
     92  NZ       -31.8890  -16.5660    0.0750 N.3   180  LYS180     -0.1314
     93  N        -34.9630  -21.7820   -3.5850 N.3   182  GLY182     -0.1210
     94  CA       -35.5640  -22.3800   -2.4140 C.3   182  GLY182      0.1956
     95  C        -36.8580  -21.6880   -2.0610 C.2   182  GLY182      0.2612
     96  O        -36.8570  -20.6300   -1.4590 O.2   182  GLY182     -0.2717
     97  N        -37.9780  -22.2920   -2.4420 N.am  183  VAL183     -0.1965
     98  CA       -39.2540  -21.7690   -1.9840 C.3   183  VAL183      0.1727
     99  C        -39.9110  -22.8660   -1.1360 C.2   183  VAL183      0.2617
    100  O        -40.4190  -23.8660   -1.6630 O.2   183  VAL183     -0.2715
    101  CB       -40.1540  -21.3360   -3.1670 C.3   183  VAL183      0.0290
    102  CG1      -41.5800  -20.9550   -2.6820 C.3   183  VAL183      0.0023
    103  CG2      -39.5120  -20.1760   -3.9380 C.3   183  VAL183      0.0023
    104  N        -39.8550  -22.6920    0.1840 N.am  184  GLY184     -0.1941
    105  CA       -40.4460  -23.6680    1.0850 C.3   184  GLY184      0.1998
    106  C        -39.6780  -24.8440    1.6980 C.2   184  GLY184      0.2480
    107  O        -40.2360  -25.5280    2.5720 O.2   184  GLY184     -0.2729
    108  N        -38.4270  -25.1160    1.2710 N.am  185  PRO185     -0.2726
    109  CA       -37.8540  -26.3470    1.8410 C.3   185  PRO185      0.1402
    110  C        -37.2210  -26.1810    3.2240 C.2   185  PRO185      0.2269
    111  O        -36.7140  -27.1750    3.7840 O.2   185  PRO185     -0.2865
    112  CB       -36.7780  -26.7250    0.8250 C.3   185  PRO185      0.0296
    113  CG       -36.2530  -25.3810    0.3420 C.3   185  PRO185      0.0237
    114  CD       -37.5250  -24.5080    0.2710 C.3   185  PRO185      0.0939
    115  N        -39.7380  -23.7020    7.8820 N.3   189  CYS189     -0.1235
    116  CA       -40.6360  -23.0600    6.9220 C.3   189  CYS189      0.1677
    117  C        -42.0050  -23.7580    6.8310 C.2   189  CYS189      0.2270
    118  O        -42.0720  -24.9950    6.8300 O.2   189  CYS189     -0.2867
    119  CB       -39.9810  -23.0760    5.5510 C.3   189  CYS189      0.0956
    120  SG       -40.9410  -22.2460    4.2660 S.3   189  CYS189     -0.0801
    121  N        -44.3770  -22.3170    4.4630 N.3   191  THR191     -0.1218
    122  CA       -44.9330  -21.7730    3.2260 C.3   191  THR191      0.1862
    123  C        -45.6440  -22.8290    2.3900 C.2   191  THR191      0.2287
    124  O        -46.7360  -22.5880    1.8910 O.2   191  THR191     -0.2866
    125  CB       -43.8350  -21.1230    2.3850 C.3   191  THR191      0.1770
    126  OG1      -43.3280  -19.9890    3.1010 O.3   191  THR191     -0.2211
    127  CG2      -44.3850  -20.6570    1.0360 C.3   191  THR191      0.0375
    128  N        -30.6580  -22.9580   -1.3320 N.3   222  ASP222     -0.1239
    129  CA       -30.9900  -22.4190   -0.0120 C.3   222  ASP222      0.1674
    130  C        -32.1230  -23.1760    0.6750 C.2   222  ASP222      0.2266
    131  O        -33.2710  -23.0550    0.2730 O.2   222  ASP222     -0.2867
    132  CB       -31.3690  -20.9370   -0.1500 C.3   222  ASP222      0.1410
    133  CG       -31.7590  -20.2900    1.1760 C.2   222  ASP222      0.3668
    134  OD1      -31.4400  -20.8540    2.2470 O.co2 222  ASP222     -0.2456
    135  OD2      -32.3890  -19.2030    1.1370 O.co2 222  ASP222     -0.2456
    136  N        -37.8070  -16.5340    9.8400 N.3   272  MET272     -0.1230
    137  CA       -37.9140  -15.0790    9.7910 C.3   272  MET272      0.1702
    138  C        -39.3500  -14.6410    9.4970 C.2   272  MET272      0.2592
    139  O        -39.7050  -13.4770    9.6730 O.2   272  MET272     -0.2718
    140  CB       -36.9480  -14.5260    8.7410 C.3   272  MET272      0.0401
    141  CG       -35.4900  -14.7850    9.1500 C.3   272  MET272      0.0596
    142  SD       -35.0820  -13.9850   10.7270 S.3   272  MET272     -0.1393
    143  CE       -34.7710  -12.3510   10.1360 C.3   272  MET272      0.0692
    144  N        -40.1710  -15.5880    9.0480 N.am  273  GLY273     -0.1957
    145  CA       -41.5940  -15.3500    8.8360 C.3   273  GLY273      0.1869
    146  C        -42.4400  -15.8850    9.9940 C.2   273  GLY273      0.2309
    147  O        -43.6600  -15.9490    9.8920 O.2   273  GLY273     -0.2863
    148  N        -41.2730  -11.7090   13.4040 N.3   278  MET278     -0.1245
    149  CA       -41.9750  -10.5220   12.9050 C.3   278  MET278      0.1570
    150  C        -42.3300   -9.5370   14.0130 C.2   278  MET278      0.2261
    151  O        -42.6720   -8.3960   13.7300 O.2   278  MET278     -0.2867
    152  CB       -43.2340  -10.9180   12.1240 C.3   278  MET278      0.0387
    153  CG       -42.8800  -11.6520   10.8410 C.3   278  MET278      0.0595
    154  SD       -44.2020  -12.0560    9.6960 S.3   278  MET278     -0.1393
    155  CE       -45.2860  -13.0780   10.6980 C.3   278  MET278      0.0692
    156  N        -45.3710  -17.6460    8.0390 N.3   284  GLU284     -0.1245
    157  CA       -44.9380  -18.7140    7.1320 C.3   284  GLU284      0.1567
    158  C        -43.6910  -19.4070    7.6670 C.2   284  GLU284      0.2260
    159  O        -42.9140  -19.9920    6.9150 O.2   284  GLU284     -0.2867
    160  CB       -44.6880  -18.1760    5.7130 C.3   284  GLU284      0.0388
    161  CG       -45.9900  -17.8060    4.9850 C.3   284  GLU284      0.1160
    162  CD       -45.7700  -17.2780    3.5680 C.2   284  GLU284      0.3649
    163  OE1      -46.4390  -16.2810    3.1880 O.co2 284  GLU284     -0.2457
    164  OE2      -44.9460  -17.8620    2.8310 O.co2 284  GLU284     -0.2457
@<TRIPOS>BOND
     1    55    56    2
     2    55    54    1
     3    61    62    1
     4    53    54    1
     5    54    57    1
     6    71    72    2
     7    71    70    1
     8    51    52   ar
     9    51    49   ar
    10    52    50   ar
    11    62    63    1
    12    62    65    1
    13    59    58    2
    14    63    69   am
    15    63    64    2
    16    69    70    1
    17    68    66    1
    18    57    58    1
    19    58    60   am
    20    70    73    1
    21    49    48   ar
    22    66    65    1
    23    66    67    1
    24    50    48   ar
    25    73    74    1
    26    73    75    1
    27    84    85    1
    28    48    47    1
    29    46    45    2
    30    87    86    2
    31    79    78    2
    32    45    44    1
    33    78    77    1
    34    86    85    1
    35    85    88    1
    36    47    44    1
    37    44    43    1
    38   103   101    1
    39    77    76    1
    40    77    80    1
    41    93    94    1
    42    88    89    1
    43   101   102    1
    44   101    98    1
    45    21    20    1
    46    36    35    1
    47    43    40   am
    48    80    81    1
    49    22    20    1
    50    97    95   am
    51    97    98    1
    52    94    95    1
    53    41    40    2
    54    89    90    1
    55    95    96    2
    56    98    99    1
    57    20    17    1
    58    40    39    1
    59    82    81    2
    60    81    83   am
    61    37    35    1
    62   100    99    2
    63    35    32    1
    64   128   129    1
    65    99   104   am
    66    17    18    1
    67    17    16    1
    68    90    91    1
    69    34    33    2
    70    18    19    2
    71    33    32    1
    72    33    38   am
    73    91    92    1
    74    15    14    2
    75    39    38    1
    76    39    42    1
    77    32    31    1
    78    31    25   am
    79    23    24    1
    80   132   129    1
    81   132   133    1
    82   129   130    1
    83    16    14   am
    84   104   105    1
    85   114   113    1
    86   114   108    1
    87   131   130    2
    88    14    13    1
    89   113   112    1
    90    24    25    1
    91    24    27    1
    92    25    26    2
    93   112   109    1
    94   127   125    1
    95   105   106    1
    96   135   133   ar
    97   133   134   ar
    98   108   106   am
    99   108   109    1
   100    13    12    1
   101   106   107    2
   102   109   110    1
   103   124   123    2
   104    27    28    1
   105   125   126    1
   106   125   122    1
   107   123   122    1
   108    29    28   ar
   109   164   162   ar
   110    28    30   ar
   111   163   162   ar
   112   110   111    2
   113   122   121    1
   114   162   161    1
   115    11     9    1
   116   120   119    1
   117     9     8    2
   118     9    10    1
   119     8     7    1
   120   161   160    1
   121     7     6    1
   122   119   116    1
   123   160   157    1
   124     6     5    1
   125   118   117    2
   126   117   116    1
   127   159   158    2
   128   116   115    1
   129     5     2    1
   130   157   158    1
   131   157   156    1
   132     2     1    1
   133     2     3    1
   134   140   141    1
   135   140   137    1
   136   145   144    1
   137   145   146    1
   138   144   138   am
   139   141   142    1
   140     4     3    2
   141   138   139    2
   142   138   137    1
   143   154   155    1
   144   154   153    1
   145   137   136    1
   146   147   146    2
   147   143   142    1
   148   153   152    1
   149   152   149    1
   150   149   148    1
   151   149   150    1
   152   151   150    2
