@<TRIPOS>MOLECULE
tmp/4zqpA00.pdb
 191 179 0 0 0
SMALL
GASTEIGER

@<TRIPOS>ATOM
      1  N        -27.2690  -18.7500    6.5660 N.3    56  SER56      -0.1202
      2  CA       -28.5390  -18.0770    6.3250 C.3    56  SER56       0.2020
      3  C        -28.6380  -16.7100    6.9760 C.2    56  SER56       0.2619
      4  O        -28.1430  -16.4990    8.0830 O.2    56  SER56      -0.2717
      5  CB       -29.7080  -18.9330    6.8470 C.3    56  SER56       0.2103
      6  OG       -29.8270  -20.1320    6.1040 O.3    56  SER56      -0.2182
      7  N        -29.3560  -15.8110    6.3130 N.am   57  ALA57      -0.1965
      8  CA       -29.5850  -14.4780    6.8500 C.3    57  ALA57       0.1728
      9  C        -30.7820  -14.4950    7.8170 C.2    57  ALA57       0.2616
     10  O        -31.8810  -14.0200    7.4890 O.2    57  ALA57      -0.2715
     11  CB       -29.8060  -13.4970    5.7160 C.3    57  ALA57       0.0334
     12  N        -30.5540  -15.0530    9.0030 N.am   58  MET58      -0.1977
     13  CA       -31.5950  -15.2760    9.9890 C.3    58  MET58       0.1605
     14  C        -31.1290  -14.7810   11.3400 C.2    58  MET58       0.2287
     15  O        -29.9490  -14.8860   11.6310 O.2    58  MET58      -0.2864
     16  CB       -31.9350  -16.7620   10.0450 C.3    58  MET58       0.0413
     17  CG       -32.4410  -17.2900    8.7020 C.3    58  MET58       0.0598
     18  SD       -32.7400  -19.0670    8.6650 S.3    58  MET58      -0.1393
     19  CE       -34.1480  -19.1280    9.7940 C.3    58  MET58       0.0692
     20  N        -33.5170  -10.2890   -0.2060 N.3   131  ASP131     -0.1239
     21  CA       -33.9170  -11.4420    0.6010 C.3   131  ASP131      0.1674
     22  C        -35.4560  -11.5350    0.6780 C.2   131  ASP131      0.2266
     23  O        -36.0630  -10.9230    1.5650 O.2   131  ASP131     -0.2867
     24  CB       -33.2690  -11.2870    1.9970 C.3   131  ASP131      0.1410
     25  CG       -33.8760  -12.1910    3.0590 C.2   131  ASP131      0.3668
     26  OD1      -34.0430  -13.4170    2.7980 O.co2 131  ASP131     -0.2456
     27  OD2      -34.1690  -11.6620    4.1680 O.co2 131  ASP131     -0.2456
     28  N        -36.0420  -15.4340   -3.3500 N.3   161  ASN161     -0.1240
     29  CA       -35.7870  -16.8170   -3.7800 C.3   161  ASN161      0.1653
     30  C        -36.6880  -17.2650   -4.9350 C.2   161  ASN161      0.2266
     31  O        -37.7830  -16.7320   -5.1310 O.2   161  ASN161     -0.2867
     32  CB       -35.9740  -17.7780   -2.6040 C.3   161  ASN161      0.1155
     33  CG       -34.7680  -17.8290   -1.7120 C.2   161  ASN161      0.2627
     34  OD1      -33.9230  -16.9250   -1.7480 O.2   161  ASN161     -0.2716
     35  ND2      -34.6700  -18.8750   -0.9070 N.am  161  ASN161     -0.0877
     36  N        -30.7150  -17.2900   -5.8890 N.3   180  LYS180     -0.1245
     37  CA       -30.8520  -18.1440   -4.7380 C.3   180  LYS180      0.1561
     38  C        -32.1320  -18.9680   -4.9080 C.2   180  LYS180      0.2260
     39  O        -33.2010  -18.4260   -5.1750 O.2   180  LYS180     -0.2867
     40  CB       -30.8670  -17.3090   -3.4390 C.3   180  LYS180      0.0271
     41  CG       -30.7890  -18.1630   -2.1810 C.3   180  LYS180      0.0035
     42  CD       -29.9150  -17.5000   -1.0950 C.3   180  LYS180      0.0206
     43  CE       -30.5560  -16.2370   -0.5490 C.3   180  LYS180      0.1093
     44  NZ       -31.8890  -16.5660    0.0750 N.3   180  LYS180     -0.1314
     45  N        -34.9630  -21.7820   -3.5850 N.3   182  GLY182     -0.1225
     46  CA       -35.5640  -22.3800   -2.4140 C.3   182  GLY182      0.1811
     47  C        -36.8580  -21.6880   -2.0610 C.2   182  GLY182      0.2280
     48  O        -36.8570  -20.6300   -1.4590 O.2   182  GLY182     -0.2866
     49  N        -39.8550  -22.6920    0.1840 N.3   184  GLY184     -0.1225
     50  CA       -40.4460  -23.6680    1.0850 C.3   184  GLY184      0.1811
     51  C        -39.6780  -24.8440    1.6980 C.2   184  GLY184      0.2280
     52  O        -40.2360  -25.5280    2.5720 O.2   184  GLY184     -0.2866
     53  N        -37.1790  -24.9490    3.7350 N.3   186  GLY186     -0.1210
     54  CA       -36.5100  -24.6740    5.0020 C.3   186  GLY186      0.1956
     55  C        -37.0590  -25.5320    6.1360 C.2   186  GLY186      0.2613
     56  O        -38.2600  -25.8350    6.1660 O.2   186  GLY186     -0.2717
     57  N        -36.1920  -25.9460    7.0590 N.am  187  SER187     -0.1938
     58  CA       -36.6180  -26.7700    8.1990 C.3   187  SER187      0.2055
     59  C        -37.6760  -26.0720    9.0840 C.2   187  SER187      0.2643
     60  O        -38.4880  -26.7340    9.6990 O.2   187  SER187     -0.2714
     61  CB       -35.4300  -27.1240    9.0770 C.3   187  SER187      0.2130
     62  OG       -34.8860  -25.9200    9.5800 O.3   187  SER187     -0.2179
     63  N        -37.6250  -24.7450    9.1660 N.am  188  ILE188     -0.1963
     64  CA       -38.5590  -23.9880    9.9940 C.3   188  ILE188      0.1727
     65  C        -39.6820  -23.3490    9.1580 C.2   188  ILE188      0.2616
     66  O        -40.4360  -22.5180    9.6520 O.2   188  ILE188     -0.2715
     67  CB       -37.8270  -22.8480   10.8030 C.3   188  ILE188      0.0290
     68  CG1      -36.7230  -22.1680    9.9920 C.3   188  ILE188      0.0022
     69  CG2      -37.2080  -23.4150   12.0890 C.3   188  ILE188      0.0023
     70  CD1      -37.1220  -21.5390    8.6450 C.3   188  ILE188      0.0001
     71  N        -39.7380  -23.7020    7.8820 N.am  189  CYS189     -0.1968
     72  CA       -40.6360  -23.0600    6.9220 C.3   189  CYS189      0.1712
     73  C        -42.0050  -23.7580    6.8310 C.2   189  CYS189      0.2296
     74  O        -42.0720  -24.9950    6.8300 O.2   189  CYS189     -0.2864
     75  CB       -39.9810  -23.0760    5.5510 C.3   189  CYS189      0.0983
     76  SG       -40.9410  -22.2460    4.2660 S.3   189  CYS189     -0.0798
     77  N        -44.3770  -22.3170    4.4630 N.3   191  THR191     -0.1218
     78  CA       -44.9330  -21.7730    3.2260 C.3   191  THR191      0.1862
     79  C        -45.6440  -22.8290    2.3900 C.2   191  THR191      0.2287
     80  O        -46.7360  -22.5880    1.8910 O.2   191  THR191     -0.2866
     81  CB       -43.8350  -21.1230    2.3850 C.3   191  THR191      0.1770
     82  OG1      -43.3280  -19.9890    3.1010 O.3   191  THR191     -0.2211
     83  CG2      -44.3850  -20.6570    1.0360 C.3   191  THR191      0.0375
     84  N        -30.6580  -22.9580   -1.3320 N.3   222  ASP222     -0.1225
     85  CA       -30.9900  -22.4190   -0.0120 C.3   222  ASP222      0.1805
     86  C        -32.1230  -23.1760    0.6750 C.2   222  ASP222      0.2598
     87  O        -33.2710  -23.0550    0.2730 O.2   222  ASP222     -0.2718
     88  CB       -31.3690  -20.9370   -0.1500 C.3   222  ASP222      0.1424
     89  CG       -31.7590  -20.2900    1.1760 C.2   222  ASP222      0.3668
     90  OD1      -31.4400  -20.8540    2.2470 O.co2 222  ASP222     -0.2456
     91  OD2      -32.3890  -19.2030    1.1370 O.co2 222  ASP222     -0.2456
     92  N        -31.8000  -23.9180    1.7360 N.am  223  GLY223     -0.1942
     93  CA       -32.8330  -24.5480    2.5440 C.3   223  GLY223      0.2014
     94  C        -32.9760  -26.0460    2.2810 C.2   223  GLY223      0.2639
     95  O        -32.7790  -26.5090    1.1610 O.2   223  GLY223     -0.2714
     96  N        -33.3200  -26.7980    3.3250 N.am  224  GLY224     -0.1939
     97  CA       -33.6390  -28.2020    3.1720 C.3   224  GLY224      0.2014
     98  C        -32.4570  -29.1420    3.3690 C.2   224  GLY224      0.2639
     99  O        -32.6340  -30.3490    3.4210 O.2   224  GLY224     -0.2714
    100  N        -31.2580  -28.5950    3.5120 N.am  225  LEU225     -0.1963
    101  CA       -30.0600  -29.4290    3.6930 C.3   225  LEU225      0.1728
    102  C        -29.9010  -29.8460    5.1400 C.2   225  LEU225      0.2616
    103  O        -29.9820  -29.0080    6.0260 O.2   225  LEU225     -0.2715
    104  CB       -28.8180  -28.6770    3.2060 C.3   225  LEU225      0.0311
    105  CG       -28.7900  -28.5900    1.6810 C.3   225  LEU225      0.0022
    106  CD1      -29.0940  -27.2150    1.2250 C.3   225  LEU225      0.0001
    107  CD2      -27.4220  -28.9530    1.1850 C.3   225  LEU225      0.0001
    108  N        -29.6780  -31.1450    5.3820 N.am  226  GLN226     -0.1977
    109  CA       -29.5820  -31.6680    6.7340 C.3   226  GLN226      0.1601
    110  C        -28.3520  -32.5530    6.9550 C.2   226  GLN226      0.2287
    111  O        -27.9990  -32.8360    8.0840 O.2   226  GLN226     -0.2864
    112  CB       -30.8380  -32.4710    7.0900 C.3   226  GLN226      0.0394
    113  CG       -32.0320  -31.6170    7.5070 C.3   226  GLN226      0.0908
    114  CD       -31.8160  -30.9710    8.8710 C.2   226  GLN226      0.2608
    115  OE1      -31.3420  -31.6220    9.8050 O.2   226  GLN226     -0.2717
    116  NE2      -32.1340  -29.6760    8.9790 N.am  226  GLN226     -0.0878
    117  N        -26.6780  -22.6590    0.9900 N.3   243  MET243     -0.1230
    118  CA       -26.9530  -21.8490    2.1570 C.3   243  MET243      0.1702
    119  C        -27.5880  -22.7140    3.2400 C.2   243  MET243      0.2592
    120  O        -28.5120  -23.4810    2.9610 O.2   243  MET243     -0.2718
    121  CB       -27.8760  -20.6770    1.7950 C.3   243  MET243      0.0401
    122  CG       -28.2600  -19.8380    2.9990 C.3   243  MET243      0.0596
    123  SD       -29.1580  -18.3260    2.5490 S.3   243  MET243     -0.1393
    124  CE       -27.8110  -17.1730    2.2970 C.3   243  MET243      0.0692
    125  N        -27.0990  -22.5680    4.4660 N.am  244  LEU244     -0.1966
    126  CA       -27.4750  -23.4270    5.5920 C.3   244  LEU244      0.1728
    127  C        -28.0180  -22.6190    6.7680 C.2   244  LEU244      0.2617
    128  O        -27.3680  -21.6720    7.2160 O.2   244  LEU244     -0.2715
    129  CB       -26.2560  -24.2060    6.0920 C.3   244  LEU244      0.0311
    130  CG       -25.4390  -25.0010    5.0880 C.3   244  LEU244      0.0022
    131  CD1      -24.2090  -25.6020    5.7740 C.3   244  LEU244      0.0001
    132  CD2      -26.3100  -26.1170    4.5350 C.3   244  LEU244      0.0001
    133  N        -29.1640  -23.0110    7.3070 N.am  245  GLY245     -0.1940
    134  CA       -29.6420  -22.3760    8.5270 C.3   245  GLY245      0.2014
    135  C        -29.5980  -23.3640    9.6760 C.2   245  GLY245      0.2640
    136  O        -28.7930  -23.2330   10.6090 O.2   245  GLY245     -0.2714
    137  N        -30.4720  -24.3660    9.5960 N.am  246  SER246     -0.1935
    138  CA       -30.5830  -25.4000   10.6130 C.3   246  SER246      0.2055
    139  C        -29.2380  -26.0180   11.0200 C.2   246  SER246      0.2642
    140  O        -28.9400  -26.1700   12.2080 O.2   246  SER246     -0.2714
    141  CB       -31.5310  -26.4840   10.0890 C.3   246  SER246      0.2130
    142  OG       -31.3440  -27.6610   10.7910 O.3   246  SER246     -0.2179
    143  N        -28.4220  -26.3750   10.0350 N.am  247  LEU247     -0.1977
    144  CA       -27.1320  -27.0350   10.3200 C.3   247  LEU247      0.1596
    145  C        -26.1350  -26.1540   11.0800 C.2   247  LEU247      0.2287
    146  O        -25.1760  -26.6530   11.7020 O.2   247  LEU247     -0.2864
    147  CB       -26.5010  -27.5190    9.0010 C.3   247  LEU247      0.0297
    148  CG       -27.0750  -28.8350    8.4840 C.3   247  LEU247      0.0022
    149  CD1      -26.6170  -29.1390    7.0520 C.3   247  LEU247      0.0001
    150  CD2      -26.6330  -29.9330    9.4400 C.3   247  LEU247      0.0001
    151  N        -34.0470  -21.5860   17.2590 N.3   269  TYR269     -0.1241
    152  CA       -33.9610  -21.4430   15.8170 C.3   269  TYR269      0.1605
    153  C        -35.3860  -21.1650   15.2990 C.2   269  TYR269      0.2264
    154  O        -36.3030  -21.8860   15.6320 O.2   269  TYR269     -0.2867
    155  CB       -33.3770  -22.7080   15.1730 C.3   269  TYR269      0.0534
    156  CG       -33.2460  -22.6170   13.6760 C.ar  269  TYR269     -0.0201
    157  CD1      -32.6520  -21.5200   13.0840 C.ar  269  TYR269     -0.0009
    158  CD2      -33.7310  -23.6330   12.8510 C.ar  269  TYR269     -0.0009
    159  CE1      -32.5430  -21.4200   11.7080 C.ar  269  TYR269      0.0417
    160  CE2      -33.6300  -23.5500   11.4750 C.ar  269  TYR269      0.0417
    161  CZ       -33.0500  -22.4390   10.9080 C.ar  269  TYR269      0.1957
    162  OH       -32.9430  -22.3490    9.5450 O.3   269  TYR269     -0.2866
    163  N        -38.0550  -19.3090   12.0720 N.3   271  GLY271     -0.1210
    164  CA       -38.2180  -18.7270   10.7630 C.3   271  GLY271      0.1956
    165  C        -38.2820  -17.2220   10.8760 C.2   271  GLY271      0.2612
    166  O        -38.7680  -16.6860   11.8780 O.2   271  GLY271     -0.2717
    167  N        -37.8070  -16.5340    9.8400 N.am  272  MET272     -0.1965
    168  CA       -37.9140  -15.0790    9.7910 C.3   272  MET272      0.1736
    169  C        -39.3500  -14.6410    9.4970 C.2   272  MET272      0.2617
    170  O        -39.7050  -13.4770    9.6730 O.2   272  MET272     -0.2715
    171  CB       -36.9480  -14.5260    8.7410 C.3   272  MET272      0.0427
    172  CG       -35.4900  -14.7850    9.1500 C.3   272  MET272      0.0599
    173  SD       -35.0820  -13.9850   10.7270 S.3   272  MET272     -0.1393
    174  CE       -34.7710  -12.3510   10.1360 C.3   272  MET272      0.0692
    175  N        -40.1710  -15.5880    9.0480 N.am  273  GLY273     -0.1955
    176  CA       -41.5940  -15.3500    8.8360 C.3   273  GLY273      0.1869
    177  C        -42.4400  -15.8850    9.9940 C.2   273  GLY273      0.2309
    178  O        -43.6600  -15.9490    9.8920 O.2   273  GLY273     -0.2863
    179  N        -45.3710  -17.6460    8.0390 N.3   284  GLU284     -0.1231
    180  CA       -44.9380  -18.7140    7.1320 C.3   284  GLU284      0.1699
    181  C        -43.6910  -19.4070    7.6670 C.2   284  GLU284      0.2592
    182  O        -42.9140  -19.9920    6.9150 O.2   284  GLU284     -0.2718
    183  CB       -44.6880  -18.1760    5.7130 C.3   284  GLU284      0.0402
    184  CG       -45.9900  -17.8060    4.9850 C.3   284  GLU284      0.1161
    185  CD       -45.7700  -17.2780    3.5680 C.2   284  GLU284      0.3649
    186  OE1      -46.4390  -16.2810    3.1880 O.co2 284  GLU284     -0.2457
    187  OE2      -44.9460  -17.8620    2.8310 O.co2 284  GLU284     -0.2457
    188  N        -43.5320  -19.3750    8.9870 N.am  285  GLY285     -0.1957
    189  CA       -42.4560  -20.1040    9.6430 C.3   285  GLY285      0.1869
    190  C        -42.8510  -20.4170   11.0690 C.2   285  GLY285      0.2309
    191  O        -43.8720  -19.9210   11.5690 O.2   285  GLY285     -0.2863
@<TRIPOS>BOND
     1    36    37    1
     2    39    38    2
     3    31    30    2
     4    30    29    1
     5    38    37    1
     6    37    40    1
     7    29    28    1
     8    29    32    1
     9    45    46    1
    10    40    41    1
    11    32    33    1
    12    46    47    1
    13    41    42    1
    14    47    48    2
    15    34    33    2
    16    33    35   am
    17    84    85    1
    18    42    43    1
    19    43    44    1
    20    20    21    1
    21    88    85    1
    22    88    89    1
    23    85    86    1
    24    49    50    1
    25    87    86    2
    26    21    22    1
    27    21    24    1
    28    86    92   am
    29    22    23    2
    30   117   118    1
    31    83    81    1
    32    50    51    1
    33    91    89   ar
    34    95    94    2
    35    89    90   ar
    36   107   105    1
    37   106   105    1
    38   105   104    1
    39    51    52    2
    40    92    93    1
    41   121   118    1
    42   121   122    1
    43    80    79    2
    44    24    25    1
    45   118   119    1
    46    94    93    1
    47    94    96   am
    48   124   123    1
    49    81    82    1
    50    81    78    1
    51    79    78    1
    52   123   122    1
    53    26    25   ar
    54   187   185   ar
    55   120   119    2
    56    25    27   ar
    57    97    96    1
    58    97    98    1
    59   186   185   ar
    60   104   101    1
    61    78    77    1
    62   119   125   am
    63    98    99    2
    64    98   100   am
    65   100   101    1
    66   185   184    1
    67   101   102    1
    68    53    54    1
    69    76    75    1
    70   125   126    1
    71   132   130    1
    72   184   183    1
    73    54    55    1
    74   130   131    1
    75   130   129    1
    76   102   108   am
    77   102   103    2
    78   108   109    1
    79    75    72    1
    80   126   129    1
    81   126   127    1
    82   183   180    1
    83    11     8    1
    84     6     5    1
    85    55    56    2
    86    55    57   am
    87     7     8    1
    88     7     3   am
    89     2     1    1
    90     2     5    1
    91     2     3    1
    92   109   110    1
    93   109   112    1
    94   127   128    2
    95   127   133   am
    96    74    73    2
    97    73    72    1
    98     8     9    1
    99   182   181    2
   100    72    71    1
   101   110   111    2
   102     3     4    2
   103   149   148    1
   104    57    58    1
   105   112   113    1
   106   180   181    1
   107   180   179    1
   108   133   134    1
   109    10     9    2
   110   113   114    1
   111   181   188   am
   112     9    12   am
   113    71    65   am
   114    58    61    1
   115    58    59    1
   116   148   147    1
   117   148   150    1
   118   134   135    1
   119    70    68    1
   120    18    17    1
   121    18    19    1
   122    17    16    1
   123   171   172    1
   124   171   168    1
   125   176   175    1
   126   176   177    1
   127   114   116   am
   128   114   115    2
   129   188   189    1
   130   147   144    1
   131    12    13    1
   132   175   169   am
   133    61    62    1
   134    59    63   am
   135    59    60    2
   136   172   173    1
   137    65    66    2
   138    65    64    1
   139    63    64    1
   140   169   170    2
   141   169   168    1
   142   162   161    1
   143   137   135   am
   144   137   138    1
   145   189   190    1
   146   135   136    2
   147   168   167    1
   148   167   165   am
   149   178   177    2
   150    13    16    1
   151    13    14    1
   152    68    67    1
   153    64    67    1
   154   143   144    1
   155   143   139   am
   156   141   138    1
   157   141   142    1
   158   174   173    1
   159   144   145    1
   160   138   139    1
   161   164   165    1
   162   164   163    1
   163    67    69    1
   164   165   166    2
   165   161   160   ar
   166   161   159   ar
   167   139   140    2
   168   190   191    2
   169   145   146    2
   170    14    15    2
   171   160   158   ar
   172   159   157   ar
   173   158   156   ar
   174   157   156   ar
   175   156   155    1
   176   155   152    1
   177   153   154    2
   178   153   152    1
   179   152   151    1
