@<TRIPOS>MOLECULE
tmp/4zqtA00.pdb
 181 174 0 0 0
SMALL
GASTEIGER

@<TRIPOS>ATOM
      1  N         14.2350   20.6920   19.6400 N.3   122  GLN122     -0.1245
      2  CA        13.8260   19.4290   19.0300 C.3   122  GLN122      0.1566
      3  C         12.4650   19.1080   19.6080 C.2   122  GLN122      0.2260
      4  O         12.3510   18.8170   20.8000 O.2   122  GLN122     -0.2867
      5  CB        14.8340   18.3110   19.3030 C.3   122  GLN122      0.0367
      6  CG        14.3590   16.9030   18.9470 C.3   122  GLN122      0.0905
      7  CD        13.9350   16.7730   17.4960 C.2   122  GLN122      0.2608
      8  OE1       14.5830   17.3100   16.5930 O.2   122  GLN122     -0.2717
      9  NE2       12.8340   16.0610   17.2650 N.am  122  GLN122     -0.0878
     10  N          9.8050   16.9830   17.9350 N.3   124  GLU124     -0.1245
     11  CA         9.1760   15.6790   17.6700 C.3   124  GLU124      0.1567
     12  C          9.6790   14.6430   18.6830 C.2   124  GLU124      0.2260
     13  O         10.8810   14.5150   18.8900 O.2   124  GLU124     -0.2867
     14  CB         9.4530   15.1860   16.2340 C.3   124  GLU124      0.0388
     15  CG         8.5720   13.9980   15.8460 C.3   124  GLU124      0.1160
     16  CD         8.6860   13.5720   14.3700 C.2   124  GLU124      0.3649
     17  OE1        9.4140   14.2140   13.5820 O.co2 124  GLU124     -0.2457
     18  OE2        8.0430   12.5710   14.0080 O.co2 124  GLU124     -0.2457
     19  N         22.8200   15.5850   19.1410 N.3   262  PHE262     -0.1227
     20  CA        21.5150   15.2820   18.5730 C.3   262  PHE262      0.1736
     21  C         21.1920   13.8120   18.8190 C.2   262  PHE262      0.2595
     22  O         22.0570   12.9490   18.6670 O.2   262  PHE262     -0.2718
     23  CB        21.5020   15.6300   17.0770 C.3   262  PHE262      0.0547
     24  CG        20.1340   15.9580   16.5350 C.ar  262  PHE262     -0.0202
     25  CD1       19.5240   17.1680   16.8330 C.ar  262  PHE262     -0.0042
     26  CD2       19.4690   15.0670   15.7070 C.ar  262  PHE262     -0.0042
     27  CE1       18.2610   17.4610   16.3300 C.ar  262  PHE262     -0.0003
     28  CE2       18.2060   15.3620   15.2040 C.ar  262  PHE262     -0.0003
     29  CZ        17.6030   16.5530   15.5130 C.ar  262  PHE262     -0.0000
     30  N         19.9550   13.5360   19.2170 N.am  263  ASN263     -0.1960
     31  CA        19.5680   12.1840   19.5850 C.3   263  ASN263      0.1819
     32  C         19.5750   11.2220   18.4090 C.2   263  ASN263      0.2621
     33  O         19.9370   10.0600   18.5660 O.2   263  ASN263     -0.2715
     34  CB        18.1860   12.1720   20.2420 C.3   263  ASN263      0.1195
     35  CG        18.2240   12.6720   21.6590 C.2   263  ASN263      0.2630
     36  OD1       19.2680   12.6210   22.3130 O.2   263  ASN263     -0.2716
     37  ND2       17.0920   13.1680   22.1490 N.am  263  ASN263     -0.0877
     38  N         19.1810   11.6950   17.2340 N.am  264  VAL264     -0.1963
     39  CA        19.1350   10.8190   16.0760 C.3   264  VAL264      0.1727
     40  C         19.8990   11.4700   14.9260 C.2   264  VAL264      0.2617
     41  O         20.9090   12.1460   15.1580 O.2   264  VAL264     -0.2715
     42  CB        17.6730   10.4850   15.6960 C.3   264  VAL264      0.0290
     43  CG1       17.0370    9.6500   16.8080 C.3   264  VAL264      0.0023
     44  CG2       16.8590   11.7510   15.4760 C.3   264  VAL264      0.0023
     45  N         19.4220   11.2720   13.7030 N.am  265  GLY265     -0.1940
     46  CA        20.1080   11.7660   12.5200 C.3   265  GLY265      0.2014
     47  C         19.7270   13.1850   12.1120 C.2   265  GLY265      0.2639
     48  O         20.6010   14.0010   11.8230 O.2   265  GLY265     -0.2714
     49  N         18.4290   13.4800   12.0890 N.am  266  ALA266     -0.1963
     50  CA        17.9540   14.8190   11.7190 C.3   266  ALA266      0.1728
     51  C         16.4480   14.9860   11.9550 C.2   266  ALA266      0.2616
     52  O         15.7720   14.0500   12.3940 O.2   266  ALA266     -0.2715
     53  CB        18.2950   15.1170   10.2740 C.3   266  ALA266      0.0334
     54  N         15.9360   16.1800   11.6620 N.am  267  MET267     -0.1963
     55  CA        14.5370   16.5190   11.9310 C.3   267  MET267      0.1736
     56  C         14.0010   17.5030   10.8910 C.2   267  MET267      0.2616
     57  O         14.6680   18.4860   10.5690 O.2   267  MET267     -0.2715
     58  CB        14.4090   17.1070   13.3350 C.3   267  MET267      0.0427
     59  CG        13.0040   17.5880   13.6890 C.3   267  MET267      0.0599
     60  SD        11.8230   16.2120   13.7250 S.3   267  MET267     -0.1393
     61  CE        10.3080   17.0590   13.2300 C.3   267  MET267      0.0692
     62  N         12.7970   17.2570   10.3800 N.am  268  GLU268     -0.1977
     63  CA        12.2950   18.0140    9.2250 C.3   268  GLU268      0.1602
     64  C         11.4840   19.2990    9.5290 C.2   268  GLU268      0.2287
     65  O         10.5440   19.6100    8.7930 O.2   268  GLU268     -0.2864
     66  CB        11.4420   17.0860    8.3400 C.3   268  GLU268      0.0415
     67  CG        10.0280   16.7300    8.8880 C.3   268  GLU268      0.1163
     68  CD        10.0280   15.5360    9.8450 C.2   268  GLU268      0.3649
     69  OE1       11.1040   15.2000   10.3770 O.co2 268  GLU268     -0.2457
     70  OE2        8.9540   14.9270   10.0580 O.co2 268  GLU268     -0.2457
     71  N         25.5740    8.6890    3.7380 N.3   294  ARG294     -0.1245
     72  CA        24.7600    9.0480    4.9040 C.3   294  ARG294      0.1563
     73  C         24.1320   10.4430    4.7600 C.2   294  ARG294      0.2260
     74  O         22.9430   10.6340    5.0120 O.2   294  ARG294     -0.2867
     75  CB        25.6020    8.9790    6.1840 C.3   294  ARG294      0.0307
     76  CG        24.8760    9.4910    7.4090 C.3   294  ARG294      0.0489
     77  CD        23.7120    8.5780    7.7870 C.3   294  ARG294      0.2205
     78  NE        23.0680    9.0510    9.0050 N.pl3 294  ARG294     -0.0865
     79  CZ        21.9800    8.5180    9.5520 C.cat 294  ARG294      0.5346
     80  NH1       21.3990    7.4630    8.9980 N.pl3 294  ARG294      0.1354
     81  NH2       21.4770    9.0430   10.6650 N.pl3 294  ARG294      0.1354
     82  N         21.4340   10.4770    2.0840 N.3   297  THR297     -0.1203
     83  CA        20.1460    9.9290    2.5060 C.3   297  THR297      0.1994
     84  C         19.4190   10.8020    3.5420 C.2   297  THR297      0.2617
     85  O         18.2000   10.9650    3.4620 O.2   297  THR297     -0.2717
     86  CB        20.2640    8.4840    3.0850 C.3   297  THR297      0.1784
     87  OG1       20.9420    8.5110    4.3360 O.3   297  THR297     -0.2211
     88  CG2       20.9940    7.5860    2.1510 C.3   297  THR297      0.0376
     89  N         20.1450   11.3710    4.4980 N.am  298  VAL298     -0.1979
     90  CA        19.4840   12.1270    5.5590 C.3   298  VAL298      0.1595
     91  C         19.0040   13.4860    5.0430 C.2   298  VAL298      0.2287
     92  O         17.8830   13.9000    5.3330 O.2   298  VAL298     -0.2864
     93  CB        20.4080   12.2950    6.7740 C.3   298  VAL298      0.0276
     94  CG1       19.7610   13.2080    7.8180 C.3   298  VAL298      0.0022
     95  CG2       20.7130   10.9050    7.3620 C.3   298  VAL298      0.0022
     96  N         16.0770   12.5790    2.9330 N.3   301  HIS301     -0.1226
     97  CA        14.9690   12.1870    3.7860 C.3   301  HIS301      0.1752
     98  C         14.2450   13.4210    4.3430 C.2   301  HIS301      0.2595
     99  O         13.0260   13.5630    4.2020 O.2   301  HIS301     -0.2718
    100  CB        15.4850   11.2940    4.9160 C.3   301  HIS301      0.0759
    101  CG        14.4350   10.8650    5.8870 C.ar  301  HIS301      0.0818
    102  ND1       13.9100    9.5890    5.8940 N.ar  301  HIS301     -0.2268
    103  CD2       13.8240   11.5300    6.8980 C.ar  301  HIS301      0.1154
    104  CE1       13.0190    9.4880    6.8640 C.ar  301  HIS301      0.1986
    105  NE2       12.9540   10.6480    7.4930 N.ar  301  HIS301     -0.2212
    106  N         14.9910   14.3320    4.9560 N.am  302  GLU302     -0.1979
    107  CA        14.3520   15.5160    5.5340 C.3   302  GLU302      0.1602
    108  C         13.6660   16.3650    4.4560 C.2   302  GLU302      0.2287
    109  O         12.5970   16.9450    4.6960 O.2   302  GLU302     -0.2864
    110  CB        15.3730   16.3500    6.3190 C.3   302  GLU302      0.0415
    111  CG        16.1050   15.5440    7.4030 C.3   302  GLU302      0.1163
    112  CD        15.1600   14.7410    8.3110 C.2   302  GLU302      0.3649
    113  OE1       13.9750   15.0960    8.4190 O.co2 302  GLU302     -0.2457
    114  OE2       15.6100   13.7460    8.9230 O.co2 302  GLU302     -0.2457
    115  N         10.2920   14.7740    3.4250 N.3   305  HIS305     -0.1241
    116  CA         9.3150   15.0510    4.4780 C.3   305  HIS305      0.1621
    117  C          8.4870   16.3030    4.1970 C.2   305  HIS305      0.2264
    118  O          7.3670   16.4270    4.6930 O.2   305  HIS305     -0.2867
    119  CB        10.0160   15.2120    5.8310 C.3   305  HIS305      0.0745
    120  CG        10.0040   13.9770    6.6740 C.ar  305  HIS305      0.0817
    121  ND1        8.9160   13.1340    6.7410 N.ar  305  HIS305     -0.2268
    122  CD2       10.9410   13.4530    7.5000 C.ar  305  HIS305      0.1154
    123  CE1        9.1880   12.1330    7.5600 C.ar  305  HIS305      0.1986
    124  NE2       10.4100   12.3040    8.0340 N.ar  305  HIS305     -0.2212
    125  N          4.1350    8.7530    7.4160 N.3   323  LYS323     -0.1231
    126  CA         5.1410    9.7390    7.0190 C.3   323  LYS323      0.1693
    127  C          6.5490    9.1360    7.0630 C.2   323  LYS323      0.2591
    128  O          7.3790    9.4600    6.2150 O.2   323  LYS323     -0.2718
    129  CB         5.0570   11.0330    7.8570 C.3   323  LYS323      0.0285
    130  CG         5.7350   11.0670    9.2420 C.3   323  LYS323      0.0035
    131  CD         5.6040   12.4950    9.8620 C.3   323  LYS323      0.0206
    132  CE         6.1240   12.5940   11.3110 C.3   323  LYS323      0.1093
    133  NZ         7.6130   12.6820   11.4070 N.3   323  LYS323     -0.1314
    134  N          6.8200    8.2240    7.9930 N.am  324  GLU324     -0.1979
    135  CA         8.1820    7.7210    8.0850 C.3   324  GLU324      0.1602
    136  C          8.4750    6.6090    7.0750 C.2   324  GLU324      0.2287
    137  O          9.4900    6.6520    6.3970 O.2   324  GLU324     -0.2864
    138  CB         8.4890    7.2490    9.5010 C.3   324  GLU324      0.0415
    139  CG         8.5310    8.3790   10.5310 C.3   324  GLU324      0.1163
    140  CD         9.4500    9.5270   10.1150 C.2   324  GLU324      0.3649
    141  OE1       10.3320    9.3130    9.2680 O.co2 324  GLU324     -0.2457
    142  OE2        9.3010   10.6460   10.6380 O.co2 324  GLU324     -0.2457
    143  N         11.0580    7.2200    4.0090 N.3   328  VAL328     -0.1245
    144  CA        12.2080    6.3210    3.8140 C.3   328  VAL328      0.1561
    145  C         12.1540    5.7250    2.3880 C.2   328  VAL328      0.2260
    146  O         13.1640    5.6600    1.6960 O.2   328  VAL328     -0.2867
    147  CB        12.2470    5.1960    4.8960 C.3   328  VAL328      0.0252
    148  CG1       13.2980    4.0940    4.5720 C.3   328  VAL328      0.0019
    149  CG2       12.5050    5.8010    6.2710 C.3   328  VAL328      0.0019
    150  N          9.5750    5.0200   17.5350 N.3   380  TYR380     -0.1241
    151  CA        10.3420    5.2820   16.3330 C.3   380  TYR380      0.1605
    152  C         11.3210    4.1390   16.0940 C.2   380  TYR380      0.2264
    153  O         12.4600    4.1710   16.5520 O.2   380  TYR380     -0.2867
    154  CB        11.0560    6.6270   16.4470 C.3   380  TYR380      0.0534
    155  CG        10.0830    7.7970   16.3930 C.ar  380  TYR380     -0.0201
    156  CD1        9.2580    8.0890   17.4700 C.ar  380  TYR380     -0.0009
    157  CD2        9.9830    8.5900   15.2550 C.ar  380  TYR380     -0.0009
    158  CE1        8.3540    9.1430   17.4200 C.ar  380  TYR380      0.0417
    159  CE2        9.0870    9.6450   15.1900 C.ar  380  TYR380      0.0417
    160  CZ         8.2720    9.9160   16.2780 C.ar  380  TYR380      0.1957
    161  OH         7.3840   10.9610   16.2200 O.3   380  TYR380     -0.2866
    162  N          9.8460    2.3480   10.4860 N.3   385  TYR385     -0.1241
    163  CA        10.6200    3.0050    9.4470 C.3   385  TYR385      0.1605
    164  C         10.9090    2.0960    8.2610 C.2   385  TYR385      0.2264
    165  O         10.5640    2.4140    7.1130 O.2   385  TYR385     -0.2867
    166  CB        11.9490    3.5120   10.0170 C.3   385  TYR385      0.0534
    167  CG        11.8460    4.8750   10.6370 C.ar  385  TYR385     -0.0201
    168  CD1       11.1470    5.0640   11.8250 C.ar  385  TYR385     -0.0009
    169  CD2       12.4380    5.9760   10.0340 C.ar  385  TYR385     -0.0009
    170  CE1       11.0450    6.3190   12.4070 C.ar  385  TYR385      0.0417
    171  CE2       12.3360    7.2360   10.6010 C.ar  385  TYR385      0.0417
    172  CZ        11.6410    7.4000   11.7900 C.ar  385  TYR385      0.1957
    173  OH        11.5320    8.6500   12.3570 O.3   385  TYR385     -0.2866
    174  N         16.2990    8.7460   26.0510 N.3   839  MET839     -0.1245
    175  CA        16.2520    8.3150   24.6580 C.3   839  MET839      0.1570
    176  C         17.5150    7.5400   24.2520 C.2   839  MET839      0.2261
    177  O         17.4330    6.4210   23.7430 O.2   839  MET839     -0.2867
    178  CB        16.0660    9.5210   23.7400 C.3   839  MET839      0.0387
    179  CG        14.9630    9.3500   22.7130 C.3   839  MET839      0.0595
    180  SD        14.1250   10.9120   22.3750 S.3   839  MET839     -0.1393
    181  CE        13.5640   11.3780   24.0140 C.3   839  MET839      0.0692
@<TRIPOS>BOND
     1   146   145    2
     2    82    83    1
     3    88    86    1
     4   145   144    1
     5    83    86    1
     6    83    84    1
     7    96    97    1
     8    86    87    1
     9   115   116    1
    10    85    84    2
    11    84    89   am
    12    71    72    1
    13    97    98    1
    14    97   100    1
    15   144   143    1
    16   144   147    1
    17   117   116    1
    18   117   118    2
    19    99    98    2
    20    98   106   am
    21   108   109    2
    22   108   107    1
    23   116   119    1
    24    89    90    1
    25   148   147    1
    26    73    72    1
    27    73    74    2
    28   147   149    1
    29    72    75    1
    30   100   101    1
    31   106   107    1
    32    91    92    2
    33    91    90    1
    34   107   110    1
    35    90    93    1
    36   119   120    1
    37   101   102   ar
    38   101   103   ar
    39   102   104   ar
    40    75    76    1
    41   128   127    2
    42   110   111    1
    43   137   136    2
    44   120   121   ar
    45   120   122   ar
    46   121   123   ar
    47    93    95    1
    48    93    94    1
    49   104   105   ar
    50   103   105   ar
    51   126   127    1
    52   126   125    1
    53   126   129    1
    54   127   134   am
    55   136   135    1
    56   165   164    2
    57   111   112    1
    58    76    77    1
    59   122   124   ar
    60   123   124   ar
    61    77    78    1
    62   129   130    1
    63   134   135    1
    64   135   138    1
    65   164   163    1
    66   112   113   ar
    67   112   114   ar
    68    66    67    1
    69    66    63    1
    70    65    64    2
    71    67    68    1
    72    80    79    1
    73    78    79    2
    74    63    64    1
    75    63    62    1
    76   130   131    1
    77   141   140   ar
    78   163   166    1
    79   163   162    1
    80   138   139    1
    81    79    81    1
    82    68    70   ar
    83    68    69   ar
    84   131   132    1
    85   166   167    1
    86   169   171   ar
    87   169   167   ar
    88   140   139    1
    89   140   142   ar
    90    53    50    1
    91    62    56   am
    92    57    56    2
    93   171   172   ar
    94   167   168   ar
    95    56    55    1
    96   132   133    1
    97    54    55    1
    98    54    51   am
    99    50    51    1
   100    50    49    1
   101   172   173    1
   102   172   170   ar
   103    48    47    2
   104   168   170   ar
   105    55    58    1
   106    51    52    2
   107    49    47   am
   108    47    46    1
   109    46    45    1
   110    61    60    1
   111    58    59    1
   112    17    16   ar
   113    59    60    1
   114    45    40   am
   115    18    16   ar
   116    16    15    1
   117    40    41    2
   118    40    39    1
   119   159   157   ar
   120   159   160   ar
   121    28    29   ar
   122    28    26   ar
   123   157   155   ar
   124    44    42    1
   125    29    27   ar
   126    42    39    1
   127    42    43    1
   128    26    24   ar
   129    15    14    1
   130    39    38    1
   131   152   151    1
   132   152   153    2
   133   161   160    1
   134    14    11    1
   135   160   158   ar
   136    27    25   ar
   137   151   154    1
   138   151   150    1
   139   155   154    1
   140   155   156   ar
   141    24    25   ar
   142    24    23    1
   143     8     7    2
   144    23    20    1
   145    38    32   am
   146     9     7   am
   147   158   156   ar
   148     7     6    1
   149    11    10    1
   150    11    12    1
   151    32    33    2
   152    32    31    1
   153    20    21    1
   154    20    19    1
   155    22    21    2
   156    12    13    2
   157    21    30   am
   158     6     5    1
   159     2     5    1
   160     2     3    1
   161     2     1    1
   162    30    31    1
   163    31    34    1
   164     3     4    2
   165    34    35    1
   166    35    37   am
   167    35    36    2
   168   180   179    1
   169   180   181    1
   170   179   178    1
   171   178   175    1
   172   177   176    2
   173   176   175    1
   174   175   174    1
