@<TRIPOS>MOLECULE
tmp/4zqxA00.pdb
 92 89 0 0 0
SMALL
GASTEIGER

@<TRIPOS>ATOM
      1  N          6.6860   31.7540   60.1470 N.3   150  VAL150     -0.1231
      2  CA         6.2260   31.5350   58.7880 C.3   150  VAL150      0.1692
      3  C          6.7300   30.1500   58.3440 C.2   150  VAL150      0.2592
      4  O          7.9130   29.8690   58.4500 O.2   150  VAL150     -0.2718
      5  CB         6.8180   32.6230   57.8640 C.3   150  VAL150      0.0266
      6  CG1        6.4500   32.3690   56.4050 C.3   150  VAL150      0.0020
      7  CG2        6.3540   34.0150   58.3030 C.3   150  VAL150      0.0020
      8  N          5.8450   29.2950   57.8440 N.am  151  ASP151     -0.1960
      9  CA         6.2390   27.9420   57.4310 C.3   151  ASP151      0.1840
     10  C          6.9250   27.9910   56.0800 C.2   151  ASP151      0.2622
     11  O          6.4670   28.7290   55.1980 O.2   151  ASP151     -0.2715
     12  CB         5.0330   26.9890   57.3210 C.3   151  ASP151      0.1450
     13  CG         4.3010   26.8030   58.6300 C.2   151  ASP151      0.3671
     14  OD1        4.8490   27.1410   59.7010 O.co2 151  ASP151     -0.2456
     15  OD2        3.1610   26.3000   58.5860 O.co2 151  ASP151     -0.2456
     16  N          7.9980   27.1970   55.9220 N.am  152  LEU152     -0.1964
     17  CA         8.7380   27.0980   54.6650 C.3   152  LEU152      0.1713
     18  C          9.0410   25.6430   54.3550 C.2   152  LEU152      0.2458
     19  O          9.1090   24.8270   55.2670 O.2   152  LEU152     -0.2730
     20  CB        10.0510   27.8730   54.7310 C.3   152  LEU152      0.0310
     21  CG         9.9670   29.3980   54.7940 C.3   152  LEU152      0.0022
     22  CD1       11.3570   30.0000   54.8720 C.3   152  LEU152      0.0001
     23  CD2        9.2070   29.9810   53.5920 C.3   152  LEU152      0.0001
     24  N          9.2190   25.3080   53.0640 N.am  153  PRO153     -0.2716
     25  CA         9.4960   23.9120   52.7050 C.3   153  PRO153      0.1536
     26  C         10.8030   23.4000   53.2900 C.2   153  PRO153      0.2599
     27  O         11.8030   24.1230   53.2310 O.2   153  PRO153     -0.2715
     28  CB         9.6230   23.9600   51.1820 C.3   153  PRO153      0.0310
     29  CG         8.8490   25.1350   50.7700 C.3   153  PRO153      0.0237
     30  CD         9.0010   26.1440   51.8760 C.3   153  PRO153      0.0939
     31  N         10.7820   22.1830   53.8350 N.am  154  SER154     -0.1936
     32  CA        11.9930   21.5200   54.3040 C.3   154  SER154      0.2055
     33  C         12.2440   20.2320   53.5210 C.2   154  SER154      0.2643
     34  O         13.0510   19.3940   53.9200 O.2   154  SER154     -0.2714
     35  CB        11.9020   21.2260   55.7990 C.3   154  SER154      0.2130
     36  OG        10.9070   20.2680   56.0960 O.3   154  SER154     -0.2179
     37  N         11.5440   20.0910   52.4030 N.am  155  CYS155     -0.1953
     38  CA        11.8000   19.0030   51.4580 C.3   155  CYS155      0.1843
     39  C         11.6080   17.6030   52.0570 C.2   155  CYS155      0.2626
     40  O         12.3580   16.6620   51.7610 O.2   155  CYS155     -0.2714
     41  CB        13.1950   19.1620   50.8570 C.3   155  CYS155      0.0997
     42  SG        13.3710   20.6650   49.8810 S.3   155  CYS155     -0.0797
     43  N         10.5710   17.4750   52.8760 N.am  156  GLY156     -0.1954
     44  CA        10.1540   16.1930   53.4190 C.3   156  GLY156      0.1869
     45  C         10.2480   16.1280   54.9280 C.2   156  GLY156      0.2309
     46  O          9.7070   15.2140   55.5500 O.2   156  GLY156     -0.2863
     47  N          9.1060   18.3670   57.1400 N.3   158  ARG158     -0.1231
     48  CA         8.0150   19.0380   57.8490 C.3   158  ARG158      0.1694
     49  C          8.5310   19.8090   59.0670 C.2   158  ARG158      0.2592
     50  O          7.9030   19.7860   60.1330 O.2   158  ARG158     -0.2718
     51  CB         6.9650   18.0140   58.3090 C.3   158  ARG158      0.0321
     52  CG         6.5470   17.0330   57.2190 C.3   158  ARG158      0.0489
     53  CD         5.5610   15.9670   57.7150 C.3   158  ARG158      0.2205
     54  NE         6.0470   15.1790   58.8510 N.pl3 158  ARG158     -0.0865
     55  CZ         6.9860   14.2380   58.7830 C.cat 158  ARG158      0.5346
     56  NH1        7.5890   13.9680   57.6330 N.pl3 158  ARG158      0.1354
     57  NH2        7.3400   13.5790   59.8780 N.pl3 158  ARG158      0.1354
     58  N          9.6690   20.4850   58.9350 N.am  159  CYS159     -0.1970
     59  CA        10.3210   21.0280   60.1200 C.3   159  CYS159      0.1712
     60  C         11.1190   22.3080   59.9560 C.2   159  CYS159      0.2296
     61  O         12.0450   22.5390   60.7330 O.2   159  CYS159     -0.2864
     62  CB        11.2220   19.9370   60.7200 C.3   159  CYS159      0.0983
     63  SG        12.6830   19.4820   59.7400 S.3   159  CYS159     -0.0798
     64  N         13.8700   32.4500   51.7990 N.3   230  LEU230     -0.1245
     65  CA        12.8560   33.1920   51.0760 C.3   230  LEU230      0.1561
     66  C         13.4150   34.5600   50.7360 C.2   230  LEU230      0.2260
     67  O         13.9770   35.2270   51.6120 O.2   230  LEU230     -0.2867
     68  CB        11.6250   33.3570   51.9630 C.3   230  LEU230      0.0270
     69  CG        10.3470   33.8210   51.2780 C.3   230  LEU230      0.0019
     70  CD1        9.8430   32.7270   50.3660 C.3   230  LEU230      0.0001
     71  CD2        9.2760   34.2010   52.2980 C.3   230  LEU230      0.0001
     72  N          9.2650   36.7700   47.5300 N.3   234  SER234     -0.1202
     73  CA         8.6010   35.5850   48.0690 C.3   234  SER234      0.2020
     74  C          8.9010   34.3220   47.2830 C.2   234  SER234      0.2619
     75  O          8.0510   33.4430   47.1960 O.2   234  SER234     -0.2717
     76  CB         7.0850   35.7890   48.1430 C.3   234  SER234      0.2103
     77  OG         6.5190   34.8470   49.0470 O.3   234  SER234     -0.2182
     78  N         10.0970   34.2270   46.7070 N.am  235  VAL235     -0.1965
     79  CA        10.5180   33.0180   45.9850 C.3   235  VAL235      0.1727
     80  C         11.5090   32.2440   46.8580 C.2   235  VAL235      0.2616
     81  O         12.3850   32.8530   47.4960 O.2   235  VAL235     -0.2715
     82  CB        11.1670   33.3750   44.6190 C.3   235  VAL235      0.0290
     83  CG1       11.7820   32.1540   43.9390 C.3   235  VAL235      0.0023
     84  CG2       10.1250   34.0350   43.6960 C.3   235  VAL235      0.0023
     85  N         11.3760   30.9150   46.8890 N.am  236  ILE236     -0.1977
     86  CA        12.2480   30.0860   47.7310 C.3   236  ILE236      0.1596
     87  C         13.5260   29.6680   47.0100 C.2   236  ILE236      0.2287
     88  O         13.5470   29.5440   45.7850 O.2   236  ILE236     -0.2864
     89  CB        11.5410   28.8310   48.2610 C.3   236  ILE236      0.0276
     90  CG1       11.0750   27.9140   47.1140 C.3   236  ILE236      0.0022
     91  CG2       10.4040   29.2500   49.1620 C.3   236  ILE236      0.0022
     92  CD1       10.4070   26.6190   47.6030 C.3   236  ILE236      0.0001
@<TRIPOS>BOND
     1    84    82    1
     2    83    82    1
     3    82    79    1
     4    88    87    2
     5    79    78    1
     6    79    80    1
     7    78    74   am
     8    80    85   am
     9    80    81    2
    10    85    86    1
    11    87    86    1
    12    90    92    1
    13    90    89    1
    14    75    74    2
    15    74    73    1
    16    72    73    1
    17    86    89    1
    18    73    76    1
    19    76    77    1
    20    89    91    1
    21    42    41    1
    22    70    69    1
    23    66    65    1
    24    66    67    2
    25    29    28    1
    26    29    30    1
    27    41    38    1
    28    65    64    1
    29    65    68    1
    30    28    25    1
    31    69    68    1
    32    69    71    1
    33    38    39    1
    34    38    37    1
    35    40    39    2
    36    30    24    1
    37    39    43   am
    38    37    33   am
    39    25    24    1
    40    25    26    1
    41    43    44    1
    42    24    18   am
    43    27    26    2
    44    26    31   am
    45    44    45    1
    46    33    34    2
    47    33    32    1
    48    23    21    1
    49    31    32    1
    50    32    35    1
    51    18    17    1
    52    18    19    2
    53    17    20    1
    54    17    16    1
    55    20    21    1
    56    21    22    1
    57    45    46    2
    58    11    10    2
    59    35    36    1
    60    16    10   am
    61    10     9    1
    62     6     5    1
    63    47    48    1
    64    52    53    1
    65    52    51    1
    66    12     9    1
    67    12    13    1
    68     9     8    1
    69    56    55    1
    70    53    54    1
    71     8     3   am
    72    48    51    1
    73    48    49    1
    74     5     7    1
    75     5     2    1
    76     3     4    2
    77     3     2    1
    78    15    13   ar
    79    13    14   ar
    80    55    54    2
    81    55    57    1
    82     2     1    1
    83    58    49   am
    84    58    59    1
    85    49    50    2
    86    63    62    1
    87    60    59    1
    88    60    61    2
    89    59    62    1
