@<TRIPOS>MOLECULE
tmp/4zr1A00.pdb
 191 188 0 0 0
SMALL
GASTEIGER

@<TRIPOS>ATOM
      1  N         59.5870   47.1340  126.1800 N.3    69  LEU69      -0.1231
      2  CA        60.0870   47.2850  127.5430 C.3    69  LEU69       0.1693
      3  C         59.1570   48.1860  128.3490 C.2    69  LEU69       0.2592
      4  O         58.8800   47.9110  129.5150 O.2    69  LEU69      -0.2718
      5  CB        61.5250   47.8370  127.5600 C.3    69  LEU69       0.0284
      6  CG        62.6020   46.9570  126.9120 C.3    69  LEU69       0.0019
      7  CD1       64.0010   47.4000  127.3030 C.3    69  LEU69       0.0001
      8  CD2       62.4030   45.5110  127.2560 C.3    69  LEU69       0.0001
      9  N         58.6820   49.2590  127.7170 N.am   70  PHE70      -0.1976
     10  CA        57.7400   50.1890  128.3360 C.3    70  PHE70       0.1639
     11  C         56.3600   50.0790  127.7050 C.2    70  PHE70       0.2290
     12  O         55.3430   50.1310  128.4000 O.2    70  PHE70      -0.2864
     13  CB        58.2170   51.6360  128.2070 C.3    70  PHE70       0.0560
     14  CG        59.4030   51.9750  129.0510 C.ar   70  PHE70      -0.0200
     15  CD1       59.2520   52.2640  130.3990 C.ar   70  PHE70      -0.0042
     16  CD2       60.6690   52.0560  128.4880 C.ar   70  PHE70      -0.0042
     17  CE1       60.3460   52.6020  131.1760 C.ar   70  PHE70      -0.0003
     18  CE2       61.7680   52.3920  129.2590 C.ar   70  PHE70      -0.0003
     19  CZ        61.6080   52.6660  130.5990 C.ar   70  PHE70      -0.0000
     20  N         63.6410   55.1160  123.2400 N.3    77  LEU77      -0.1231
     21  CA        64.9080   55.0850  123.9720 C.3    77  LEU77       0.1693
     22  C         65.4970   53.6870  124.1730 C.2    77  LEU77       0.2592
     23  O         66.6680   53.5440  124.5140 O.2    77  LEU77      -0.2718
     24  CB        64.7220   55.7320  125.3390 C.3    77  LEU77       0.0284
     25  CG        64.5090   57.2310  125.2750 C.3    77  LEU77       0.0019
     26  CD1       64.1610   57.7700  126.6450 C.3    77  LEU77       0.0001
     27  CD2       65.7960   57.8410  124.7400 C.3    77  LEU77       0.0001
     28  N         64.6870   52.6560  123.9890 N.am   78  THR78      -0.1953
     29  CA        65.1290   51.3040  124.3100 C.3    78  THR78       0.1897
     30  C         65.6160   50.6070  123.0570 C.2    78  THR78       0.2313
     31  O         65.9920   49.4440  123.1000 O.2    78  THR78      -0.2863
     32  CB        63.9880   50.4600  124.9690 C.3    78  THR78       0.1794
     33  OG1       63.0280   50.0680  123.9780 O.3    78  THR78      -0.2208
     34  CG2       63.2790   51.2640  126.0850 C.3    78  THR78       0.0378
     35  N         68.2950   50.7680  119.9180 N.3    80  THR80      -0.1218
     36  CA        69.4950   51.4180  119.4130 C.3    80  THR80       0.1862
     37  C         70.1570   50.5220  118.3800 C.2    80  THR80       0.2287
     38  O         70.5330   49.3850  118.6760 O.2    80  THR80      -0.2866
     39  CB        70.5030   51.7330  120.5300 C.3    80  THR80       0.1770
     40  OG1       71.1120   50.5160  120.9550 O.3    80  THR80      -0.2211
     41  CG2       69.8080   52.3790  121.7370 C.3    80  THR80       0.0375
     42  N         77.9960   43.3930  134.8860 N.3   132  PHE132     -0.1241
     43  CA        76.9630   42.7760  134.0670 C.3   132  PHE132      0.1605
     44  C         76.4870   41.4120  134.5970 C.2   132  PHE132      0.2264
     45  O         75.2950   41.1120  134.5780 O.2   132  PHE132     -0.2867
     46  CB        77.4630   42.6210  132.6350 C.3   132  PHE132      0.0534
     47  CG        77.5820   43.9140  131.8990 C.ar  132  PHE132     -0.0203
     48  CD1       77.2540   45.1100  132.5190 C.ar  132  PHE132     -0.0042
     49  CD2       78.0260   43.9410  130.5820 C.ar  132  PHE132     -0.0042
     50  CE1       77.3610   46.3100  131.8380 C.ar  132  PHE132     -0.0003
     51  CE2       78.1330   45.1460  129.8980 C.ar  132  PHE132     -0.0003
     52  CZ        77.8010   46.3250  130.5240 C.ar  132  PHE132     -0.0000
     53  N         68.8010   43.8260  134.3550 N.3   149  PHE149     -0.1227
     54  CA        68.1140   43.6520  133.0800 C.3   149  PHE149      0.1736
     55  C         68.5150   44.7180  132.0620 C.2   149  PHE149      0.2595
     56  O         68.8630   44.3960  130.9310 O.2   149  PHE149     -0.2718
     57  CB        66.6020   43.6760  133.3130 C.3   149  PHE149      0.0547
     58  CG        65.7830   43.5040  132.0740 C.ar  149  PHE149     -0.0202
     59  CD1       65.5790   42.2470  131.5370 C.ar  149  PHE149     -0.0042
     60  CD2       65.1790   44.5980  131.4670 C.ar  149  PHE149     -0.0042
     61  CE1       64.8060   42.0850  130.3970 C.ar  149  PHE149     -0.0003
     62  CE2       64.4060   44.4450  130.3260 C.ar  149  PHE149     -0.0003
     63  CZ        64.2130   43.1860  129.7920 C.ar  149  PHE149     -0.0000
     64  N         68.4790   45.9810  132.4740 N.am  150  LEU150     -0.1966
     65  CA        68.8500   47.0830  131.5880 C.3   150  LEU150      0.1728
     66  C         70.3330   47.0880  131.1860 C.2   150  LEU150      0.2616
     67  O         70.6820   47.5610  130.1040 O.2   150  LEU150     -0.2715
     68  CB        68.5000   48.4240  132.2440 C.3   150  LEU150      0.0311
     69  CG        67.0260   48.8170  132.3120 C.3   150  LEU150      0.0022
     70  CD1       66.8760   50.1100  133.0870 C.3   150  LEU150      0.0001
     71  CD2       66.4030   48.9570  130.9150 C.3   150  LEU150      0.0001
     72  N         71.2090   46.5740  132.0490 N.am  151  LEU151     -0.1963
     73  CA        72.6470   46.6150  131.7650 C.3   151  LEU151      0.1728
     74  C         73.1170   45.4580  130.9040 C.2   151  LEU151      0.2616
     75  O         74.0580   45.6100  130.1390 O.2   151  LEU151     -0.2715
     76  CB        73.4560   46.6360  133.0620 C.3   151  LEU151      0.0311
     77  CG        73.3390   47.9310  133.8710 C.3   151  LEU151      0.0022
     78  CD1       74.3020   47.9290  135.0460 C.3   151  LEU151      0.0001
     79  CD2       73.5600   49.1400  132.9810 C.3   151  LEU151      0.0001
     80  N         72.4720   44.3030  131.0240 N.am  152  HIS152     -0.1973
     81  CA        72.9550   43.1130  130.3370 C.3   152  HIS152      0.1656
     82  C         71.9570   41.9410  130.3240 C.2   152  HIS152      0.2291
     83  O         71.9490   41.1390  129.3900 O.2   152  HIS152     -0.2864
     84  CB        74.2640   42.6570  130.9740 C.3   152  HIS152      0.0771
     85  CG        75.0490   41.7170  130.1220 C.ar  152  HIS152      0.0820
     86  ND1       75.5170   42.0650  128.8710 N.ar  152  HIS152     -0.2267
     87  CD2       75.4420   40.4390  130.3320 C.ar  152  HIS152      0.1154
     88  CE1       76.1720   41.0420  128.3540 C.ar  152  HIS152      0.1986
     89  NE2       76.1440   40.0440  129.2210 N.ar  152  HIS152     -0.2212
     90  N         68.7650   41.7550  129.7480 N.3   154  CYS154     -0.1221
     91  CA        67.8920   41.7770  128.5770 C.3   154  CYS154      0.1808
     92  C         68.5800   41.1580  127.3610 C.2   154  CYS154      0.2601
     93  O         67.9720   40.4420  126.5600 O.2   154  CYS154     -0.2717
     94  CB        67.4680   43.2120  128.2580 C.3   154  CYS154      0.0970
     95  SG        66.2470   43.3330  126.9410 S.3   154  CYS154     -0.0800
     96  N         69.8650   41.4310  127.2310 N.am  155  HIS155     -0.1975
     97  CA        70.5970   40.9380  126.0900 C.3   155  HIS155      0.1656
     98  C         70.7210   39.4040  126.1500 C.2   155  HIS155      0.2291
     99  O         70.6510   38.7250  125.1250 O.2   155  HIS155     -0.2864
    100  CB        71.9660   41.6120  126.0170 C.3   155  HIS155      0.0771
    101  CG        72.8370   41.0600  124.9370 C.ar  155  HIS155      0.0820
    102  ND1       72.4720   41.0790  123.6100 N.ar  155  HIS155     -0.2267
    103  CD2       74.0340   40.4320  124.9910 C.ar  155  HIS155      0.1154
    104  CE1       73.4150   40.5030  122.8890 C.ar  155  HIS155      0.1986
    105  NE2       74.3730   40.1030  123.7030 N.ar  155  HIS155     -0.2212
    106  N         68.5670   45.7780  120.8210 N.3   164  ARG164     -0.1231
    107  CA        68.8650   45.7690  122.2470 C.3   164  ARG164      0.1694
    108  C         70.1840   45.0800  122.5390 C.2   164  ARG164      0.2592
    109  O         70.3200   44.3860  123.5450 O.2   164  ARG164     -0.2718
    110  CB        67.7480   45.0760  123.0340 C.3   164  ARG164      0.0321
    111  CG        66.6340   46.0030  123.4830 C.3   164  ARG164      0.0489
    112  CD        65.7750   46.4290  122.3160 C.3   164  ARG164      0.2205
    113  NE        64.6320   47.2060  122.7730 N.pl3 164  ARG164     -0.0865
    114  CZ        63.4190   46.7020  122.9840 C.cat 164  ARG164      0.5346
    115  NH1       63.1710   45.4100  122.7630 N.pl3 164  ARG164      0.1354
    116  NH2       62.4490   47.4960  123.4140 N.pl3 164  ARG164      0.1354
    117  N         71.1550   45.2630  121.6540 N.am  165  LEU165     -0.1966
    118  CA        72.4660   44.6710  121.8440 C.3   165  LEU165      0.1728
    119  C         73.4670   45.7520  122.2430 C.2   165  LEU165      0.2616
    120  O         74.0110   45.7200  123.3470 O.2   165  LEU165     -0.2715
    121  CB        72.9080   43.9290  120.5760 C.3   165  LEU165      0.0311
    122  CG        74.1640   43.0580  120.6210 C.3   165  LEU165      0.0022
    123  CD1       74.1650   42.0270  119.4970 C.3   165  LEU165      0.0001
    124  CD2       75.4060   43.9240  120.5170 C.3   165  LEU165      0.0001
    125  N         73.7220   46.7070  121.3540 N.am  166  VAL166     -0.1963
    126  CA        74.6910   47.7360  121.6910 C.3   166  VAL166      0.1727
    127  C         74.1150   48.6460  122.7570 C.2   166  VAL166      0.2616
    128  O         72.9150   48.6400  123.0170 O.2   166  VAL166     -0.2715
    129  CB        75.1260   48.5690  120.4820 C.3   166  VAL166      0.0290
    130  CG1       75.5860   47.6460  119.3370 C.3   166  VAL166      0.0023
    131  CG2       74.0190   49.4980  120.0440 C.3   166  VAL166      0.0023
    132  N         74.9900   49.4080  123.3910 N.am  167  MET167     -0.1964
    133  CA        74.6020   50.2330  124.5150 C.3   167  MET167      0.1722
    134  C         73.9670   51.5050  124.0190 C.2   167  MET167      0.2458
    135  O         74.4690   52.1410  123.1020 O.2   167  MET167     -0.2730
    136  CB        75.8070   50.5720  125.3840 C.3   167  MET167      0.0427
    137  CG        76.5870   49.3690  125.8520 C.3   167  MET167      0.0599
    138  SD        77.8730   49.8960  126.9870 S.3   167  MET167     -0.1393
    139  CE        76.9380   51.0870  127.9240 C.3   167  MET167      0.0692
    140  N         72.8450   51.8820  124.6200 N.am  168  PRO168     -0.2727
    141  CA        72.2720   53.1880  124.3030 C.3   168  PRO168      0.1402
    142  C         73.1590   54.2890  124.8640 C.2   168  PRO168      0.2269
    143  O         73.6690   54.1210  125.9720 O.2   168  PRO168     -0.2865
    144  CB        70.9070   53.1460  124.9980 C.3   168  PRO168      0.0296
    145  CG        71.0360   52.1300  126.0240 C.3   168  PRO168      0.0237
    146  CD        71.9710   51.0940  125.4990 C.3   168  PRO168      0.0939
    147  N         72.5820   57.0560  126.1780 N.3   170  THR170     -0.1203
    148  CA        72.0690   57.4780  127.4760 C.3   170  THR170      0.1994
    149  C         72.6810   56.6500  128.6060 C.2   170  THR170      0.2617
    150  O         73.1610   57.2030  129.5960 O.2   170  THR170     -0.2717
    151  CB        70.5330   57.3760  127.5310 C.3   170  THR170      0.1784
    152  OG1       69.9630   58.2300  126.5310 O.3   170  THR170     -0.2211
    153  CG2       70.0240   57.8080  128.8820 C.3   170  THR170      0.0376
    154  N         72.6850   55.3280  128.4680 N.am  171  LEU171     -0.1979
    155  CA        73.3230   54.5140  129.4980 C.3   171  LEU171      0.1596
    156  C         74.8410   54.5960  129.4310 C.2   171  LEU171      0.2287
    157  O         75.5010   54.5850  130.4720 O.2   171  LEU171     -0.2864
    158  CB        72.9070   53.0440  129.4190 C.3   171  LEU171      0.0297
    159  CG        71.4630   52.6620  129.7390 C.3   171  LEU171      0.0022
    160  CD1       71.3190   51.1400  129.7470 C.3   171  LEU171      0.0001
    161  CD2       70.9770   53.2750  131.0430 C.3   171  LEU171      0.0001
    162  N         77.9070   55.4380  132.5780 N.3   175  LEU175     -0.1245
    163  CA        78.9740   54.4980  132.9500 C.3   175  LEU175      0.1561
    164  C         80.3480   55.0660  132.6410 C.2   175  LEU175      0.2260
    165  O         81.3060   54.8610  133.3800 O.2   175  LEU175     -0.2867
    166  CB        78.7990   53.1730  132.2120 C.3   175  LEU175      0.0270
    167  CG        77.5020   52.4090  132.4550 C.3   175  LEU175      0.0019
    168  CD1       77.3440   51.3300  131.4080 C.3   175  LEU175      0.0001
    169  CD2       77.5150   51.7900  133.8400 C.3   175  LEU175      0.0001
    170  N         84.5530   47.2880  120.5820 N.3   206  TYR206     -0.1241
    171  CA        83.8570   46.2520  121.3460 C.3   206  TYR206      0.1605
    172  C         82.3750   46.0510  120.9680 C.2   206  TYR206      0.2264
    173  O         81.9500   44.9260  120.6800 O.2   206  TYR206     -0.2867
    174  CB        83.9480   46.5600  122.8470 C.3   206  TYR206      0.0534
    175  CG        82.8080   45.9580  123.6540 C.ar  206  TYR206     -0.0201
    176  CD1       82.8220   44.6150  124.0220 C.ar  206  TYR206     -0.0009
    177  CD2       81.7200   46.7330  124.0470 C.ar  206  TYR206     -0.0009
    178  CE1       81.7820   44.0590  124.7510 C.ar  206  TYR206      0.0417
    179  CE2       80.6860   46.1950  124.7770 C.ar  206  TYR206      0.0417
    180  CZ        80.7150   44.8520  125.1220 C.ar  206  TYR206      0.1957
    181  OH        79.6750   44.3060  125.8510 O.3   206  TYR206     -0.2866
    182  N         80.8040   43.1450  119.1900 N.3   210  HIS210     -0.1241
    183  CA        79.7390   42.4390  119.8960 C.3   210  HIS210      0.1621
    184  C         78.5000   42.2630  119.0310 C.2   210  HIS210      0.2264
    185  O         77.9570   41.1670  118.9420 O.2   210  HIS210     -0.2867
    186  CB        79.3630   43.1740  121.1730 C.3   210  HIS210      0.0745
    187  CG        78.3800   42.4330  122.0120 C.ar  210  HIS210      0.0817
    188  ND1       77.6390   43.0350  123.0010 N.ar  210  HIS210     -0.2268
    189  CD2       78.0190   41.1270  122.0080 C.ar  210  HIS210      0.1154
    190  CE1       76.8560   42.1340  123.5700 C.ar  210  HIS210      0.1986
    191  NE2       77.0640   40.9700  122.9830 N.ar  210  HIS210     -0.2212
@<TRIPOS>BOND
     1    37    38    2
     2    37    36    1
     3   185   184    2
     4   184   183    1
     5   182   183    1
     6   130   129    1
     7    36    35    1
     8    36    39    1
     9   123   122    1
    10   183   186    1
    11   131   129    1
    12   129   126    1
    13   124   122    1
    14    39    40    1
    15    39    41    1
    16   121   122    1
    17   121   118    1
    18   170   171    1
    19   173   172    2
    20   106   107    1
    21   172   171    1
    22   186   187    1
    23   171   174    1
    24   125   126    1
    25   125   119   am
    26   117   118    1
    27   117   108   am
    28   126   127    1
    29   118   119    1
    30   189   187   ar
    31   189   191   ar
    32   187   188   ar
    33   119   120    2
    34   107   108    1
    35   107   110    1
    36   112   113    1
    37   112   111    1
    38   108   109    2
    39   127   128    2
    40   127   132   am
    41   115   114    1
    42   113   114    2
    43   174   175    1
    44   104   102   ar
    45   104   105   ar
    46   191   190   ar
    47   114   116    1
    48   188   190   ar
    49   110   111    1
    50    30    31    2
    51    30    29    1
    52   135   134    2
    53    20    21    1
    54   132   133    1
    55   102   101   ar
    56   175   176   ar
    57   175   177   ar
    58   105   103   ar
    59    21    22    1
    60    21    24    1
    61    33    32    1
    62    28    22   am
    63    28    29    1
    64   134   133    1
    65   134   140   am
    66   176   178   ar
    67   177   179   ar
    68    22    23    2
    69   141   140    1
    70   141   142    1
    71   141   144    1
    72    29    32    1
    73   133   136    1
    74   140   146    1
    75    27    25    1
    76   178   180   ar
    77   179   180   ar
    78   142   143    2
    79   101   103   ar
    80   101   100    1
    81    32    34    1
    82   144   145    1
    83   180   181    1
    84    99    98    2
    85    25    24    1
    86    25    26    1
    87   136   137    1
    88   146   145    1
    89   137   138    1
    90   100    97    1
    91    97    98    1
    92    97    96    1
    93   147   148    1
    94     1     2    1
    95   152   151    1
    96    93    92    2
    97     6     8    1
    98     6     7    1
    99     6     5    1
   100    95    94    1
   101   138   139    1
   102    96    92   am
   103    92    91    1
   104   148   151    1
   105   148   149    1
   106   151   153    1
   107     2     5    1
   108     2     3    1
   109    11    10    1
   110    11    12    2
   111     9    10    1
   112     9     3   am
   113    13    10    1
   114    13    14    1
   115    94    91    1
   116     3     4    2
   117    88    86   ar
   118    88    89   ar
   119   154   149   am
   120   154   155    1
   121    16    14   ar
   122    16    18   ar
   123    91    90    1
   124   149   150    2
   125    86    85   ar
   126    14    15   ar
   127    89    87   ar
   128    18    19   ar
   129    83    82    2
   130   158   155    1
   131   158   159    1
   132   156   155    1
   133   156   157    2
   134   159   160    1
   135   159   161    1
   136    63    62   ar
   137    63    61   ar
   138    51    52   ar
   139    51    49   ar
   140    67    66    2
   141    85    87   ar
   142    85    84    1
   143    75    74    2
   144    82    81    1
   145    62    60   ar
   146    81    84    1
   147    81    80    1
   148    61    59   ar
   149    15    17   ar
   150    52    50   ar
   151    49    47   ar
   152    19    17   ar
   153    74    80   am
   154    74    73    1
   155    71    69    1
   156    56    55    2
   157    66    65    1
   158    66    72   am
   159   168   167    1
   160    60    58   ar
   161    59    58   ar
   162    65    68    1
   163    65    64    1
   164    73    72    1
   165    73    76    1
   166    50    48   ar
   167    47    48   ar
   168    47    46    1
   169    55    64   am
   170    55    54    1
   171    58    57    1
   172   166   167    1
   173   166   163    1
   174    68    69    1
   175    69    70    1
   176   167   169    1
   177   162   163    1
   178    46    43    1
   179   164   163    1
   180   164   165    2
   181    79    77    1
   182    76    77    1
   183    54    57    1
   184    54    53    1
   185    77    78    1
   186    43    44    1
   187    43    42    1
   188    45    44    2
