@<TRIPOS>MOLECULE
tmp/4zr1B02.pdb
 169 162 0 0 0
SMALL
GASTEIGER

@<TRIPOS>ATOM
      1  N         60.5960   71.6300  101.6620 N.3   115  VAL115     -0.1231
      2  CA        59.2670   71.5710  102.2520 C.3   115  VAL115      0.1692
      3  C         59.3620   71.0050  103.6650 C.2   115  VAL115      0.2592
      4  O         58.6320   71.4250  104.5760 O.2   115  VAL115     -0.2718
      5  CB        58.3010   70.7130  101.4070 C.3   115  VAL115      0.0266
      6  CG1       56.9520   70.5650  102.1100 C.3   115  VAL115      0.0020
      7  CG2       58.1090   71.3300  100.0310 C.3   115  VAL115      0.0020
      8  N         60.2740   70.0530  103.8440 N.am  116  GLY116     -0.1957
      9  CA        60.5710   69.5140  105.1590 C.3   116  GLY116      0.1869
     10  C         61.0560   70.5980  106.1090 C.2   116  GLY116      0.2309
     11  O         60.7060   70.5930  107.2830 O.2   116  GLY116     -0.2863
     12  N         58.0000   72.7190  107.0210 N.3   119  VAL119     -0.1231
     13  CA        57.1150   72.0670  107.9770 C.3   119  VAL119      0.1692
     14  C         57.7300   72.1320  109.3680 C.2   119  VAL119      0.2592
     15  O         57.0100   72.2380  110.3650 O.2   119  VAL119     -0.2718
     16  CB        56.8230   70.5980  107.5740 C.3   119  VAL119      0.0266
     17  CG1       56.1230   69.8550  108.6790 C.3   119  VAL119      0.0020
     18  CG2       55.9750   70.5610  106.3060 C.3   119  VAL119      0.0020
     19  N         59.0620   72.0900  109.4410 N.am  120  TRP120     -0.1976
     20  CA        59.7290   72.2130  110.7340 C.3   120  TRP120      0.1640
     21  C         59.3230   73.5070  111.4360 C.2   120  TRP120      0.2290
     22  O         58.9250   73.4790  112.6030 O.2   120  TRP120     -0.2864
     23  CB        61.2560   72.1860  110.6250 C.3   120  TRP120      0.0576
     24  CG        61.8060   72.7630  111.8780 C.ar  120  TRP120      0.0006
     25  CD1       62.3490   74.0000  112.0420 C.ar  120  TRP120      0.0946
     26  CD2       61.7500   72.1690  113.1850 C.ar  120  TRP120      0.0152
     27  NE1       62.6680   74.2020  113.3670 N.ar  120  TRP120     -0.2442
     28  CE2       62.3130   73.0910  114.0880 C.ar  120  TRP120      0.0810
     29  CE3       61.2990   70.9340  113.6750 C.ar  120  TRP120      0.0012
     30  CZ2       62.4440   72.8200  115.4510 C.ar  120  TRP120      0.0191
     31  CZ3       61.4260   70.6660  115.0290 C.ar  120  TRP120      0.0001
     32  CH2       61.9900   71.6070  115.9010 C.ar  120  TRP120      0.0015
     33  N         56.1880   73.0110  113.1120 N.3   123  ILE123     -0.1245
     34  CA        56.3780   72.1420  114.2750 C.3   123  ILE123      0.1561
     35  C         57.0370   72.8900  115.4310 C.2   123  ILE123      0.2260
     36  O         56.6140   72.7530  116.5800 O.2   123  ILE123     -0.2867
     37  CB        57.2250   70.9230  113.9290 C.3   123  ILE123      0.0252
     38  CG1       56.5170   70.0850  112.8690 C.3   123  ILE123      0.0019
     39  CG2       57.5000   70.0910  115.1770 C.3   123  ILE123      0.0019
     40  CD1       57.3090   68.8850  112.4300 C.3   123  ILE123      0.0001
     41  N         55.0780   73.0330  119.0170 N.3   127  LEU127     -0.1245
     42  CA        55.6540   72.4280  120.2130 C.3   127  LEU127      0.1561
     43  C         55.9840   73.4860  121.2640 C.2   127  LEU127      0.2260
     44  O         55.7070   73.3120  122.4580 O.2   127  LEU127     -0.2867
     45  CB        56.9060   71.6340  119.8660 C.3   127  LEU127      0.0270
     46  CG        56.7730   70.3260  119.0880 C.3   127  LEU127      0.0019
     47  CD1       58.1560   69.7920  118.7720 C.3   127  LEU127      0.0001
     48  CD2       56.0000   69.2920  119.8630 C.3   127  LEU127      0.0001
     49  N         55.5440   72.9730  125.0700 N.3   132  PHE132     -0.1241
     50  CA        56.5160   73.5730  125.9830 C.3   132  PHE132      0.1605
     51  C         55.8700   74.5760  126.9370 C.2   132  PHE132      0.2264
     52  O         56.2680   74.6950  128.0980 O.2   132  PHE132     -0.2867
     53  CB        57.6380   74.2690  125.2060 C.3   132  PHE132      0.0534
     54  CG        58.5850   73.3290  124.5130 C.ar  132  PHE132     -0.0203
     55  CD1       58.4110   71.9520  124.5870 C.ar  132  PHE132     -0.0042
     56  CD2       59.6590   73.8320  123.7780 C.ar  132  PHE132     -0.0042
     57  CE1       59.2920   71.0850  123.9390 C.ar  132  PHE132     -0.0003
     58  CE2       60.5400   72.9740  123.1260 C.ar  132  PHE132     -0.0003
     59  CZ        60.3610   71.5960  123.2050 C.ar  132  PHE132     -0.0000
     60  N         68.1790   70.5630  123.2180 N.3   167  MET167     -0.1245
     61  CA        67.5640   69.3010  123.5880 C.3   167  MET167      0.1570
     62  C         68.5870   68.1930  123.7540 C.2   167  MET167      0.2261
     63  O         69.3450   67.8940  122.8350 O.2   167  MET167     -0.2867
     64  CB        66.5360   68.8720  122.5350 C.3   167  MET167      0.0387
     65  CG        65.1690   69.5400  122.6290 C.3   167  MET167      0.0595
     66  SD        64.0630   68.7400  123.8330 S.3   167  MET167     -0.1393
     67  CE        64.4500   69.6270  125.3360 C.3   167  MET167      0.0692
     68  N         65.0180   64.3240  122.7770 N.3   172  PHE172     -0.1241
     69  CA        64.6820   64.6230  121.3920 C.3   172  PHE172      0.1605
     70  C         64.1250   63.3900  120.6710 C.2   172  PHE172      0.2264
     71  O         63.1920   63.4900  119.8720 O.2   172  PHE172     -0.2867
     72  CB        65.8890   65.1620  120.6290 C.3   172  PHE172      0.0534
     73  CG        65.6060   65.3970  119.1740 C.ar  172  PHE172     -0.0203
     74  CD1       64.9440   66.5400  118.7610 C.ar  172  PHE172     -0.0042
     75  CD2       65.9730   64.4530  118.2210 C.ar  172  PHE172     -0.0042
     76  CE1       64.6420   66.7350  117.4310 C.ar  172  PHE172     -0.0003
     77  CE2       65.6870   64.6450  116.9050 C.ar  172  PHE172     -0.0003
     78  CZ        65.0180   65.7850  116.5020 C.ar  172  PHE172     -0.0000
     79  N         60.4560   62.7810  121.4360 N.3   175  LEU175     -0.1231
     80  CA        59.6010   63.7720  120.7750 C.3   175  LEU175      0.1693
     81  C         59.5840   63.6420  119.2500 C.2   175  LEU175      0.2592
     82  O         58.5940   63.9570  118.5990 O.2   175  LEU175     -0.2718
     83  CB        60.0480   65.1890  121.1350 C.3   175  LEU175      0.0284
     84  CG        60.0370   65.7090  122.5700 C.3   175  LEU175      0.0019
     85  CD1       60.5410   67.1470  122.5460 C.3   175  LEU175      0.0001
     86  CD2       58.6430   65.6410  123.1860 C.3   175  LEU175      0.0001
     87  N         60.6990   63.2040  118.6860 N.am  176  CYS176     -0.1970
     88  CA        60.8430   63.0900  117.2440 C.3   176  CYS176      0.1712
     89  C         60.2210   61.8130  116.7030 C.2   176  CYS176      0.2296
     90  O         59.8120   61.7610  115.5460 O.2   176  CYS176     -0.2864
     91  CB        62.3280   63.1340  116.8580 C.3   176  CYS176      0.0983
     92  SG        62.6290   63.0600  115.0730 S.3   176  CYS176     -0.0798
     93  N         56.7370   61.9030  114.9640 N.3   179  PHE179     -0.1241
     94  CA        56.8340   62.5320  113.6410 C.3   179  PHE179      0.1605
     95  C         57.4520   61.5780  112.6130 C.2   179  PHE179      0.2264
     96  O         56.9640   61.4450  111.4930 O.2   179  PHE179     -0.2867
     97  CB        57.6470   63.8310  113.7170 C.3   179  PHE179      0.0534
     98  CG        56.9820   64.9060  114.5270 C.ar  179  PHE179     -0.0203
     99  CD1       56.1160   65.8040  113.9290 C.ar  179  PHE179     -0.0042
    100  CD2       57.1980   64.9950  115.9000 C.ar  179  PHE179     -0.0042
    101  CE1       55.4830   66.7810  114.6840 C.ar  179  PHE179     -0.0003
    102  CE2       56.5720   65.9690  116.6610 C.ar  179  PHE179     -0.0003
    103  CZ        55.7110   66.8620  116.0570 C.ar  179  PHE179     -0.0000
    104  N         55.7190   60.2120  108.9790 N.3   183  VAL183     -0.1245
    105  CA        56.1800   60.5350  107.6300 C.3   183  VAL183      0.1561
    106  C         56.3610   59.2660  106.8120 C.2   183  VAL183      0.2260
    107  O         55.9040   59.1780  105.6740 O.2   183  VAL183     -0.2867
    108  CB        57.5060   61.3160  107.6480 C.3   183  VAL183      0.0252
    109  CG1       57.9810   61.5640  106.2370 C.3   183  VAL183      0.0019
    110  CG2       57.3250   62.6380  108.3570 C.3   183  VAL183      0.0019
    111  N         54.1460   58.8800  103.5670 N.3   187  LEU187     -0.1245
    112  CA        54.8400   59.1750  102.3220 C.3   187  LEU187      0.1561
    113  C         55.5060   57.9420  101.7260 C.2   187  LEU187      0.2260
    114  O         55.8970   57.0420  102.4500 O.2   187  LEU187     -0.2867
    115  CB        55.8780   60.2710  102.5620 C.3   187  LEU187      0.0270
    116  CG        55.4350   61.6850  102.1910 C.3   187  LEU187      0.0019
    117  CD1       54.0250   61.9530  102.6540 C.3   187  LEU187      0.0001
    118  CD2       56.3930   62.6890  102.7920 C.3   187  LEU187      0.0001
    119  N         62.0330   64.0690  102.8670 N.3   195  GLY195     -0.1210
    120  CA        61.2170   64.9670  103.6610 C.3   195  GLY195      0.1956
    121  C         61.6110   65.0020  105.1290 C.2   195  GLY195      0.2611
    122  O         61.6100   66.0600  105.7570 O.2   195  GLY195     -0.2717
    123  N         61.9380   63.8390  105.6790 N.am  196  PHE196     -0.1976
    124  CA        62.4260   63.7560  107.0500 C.3   196  PHE196      0.1639
    125  C         63.7880   64.4450  107.2220 C.2   196  PHE196      0.2290
    126  O         64.0280   65.1010  108.2440 O.2   196  PHE196     -0.2864
    127  CB        62.5240   62.2980  107.4950 C.3   196  PHE196      0.0560
    128  CG        63.1430   62.1260  108.8460 C.ar  196  PHE196     -0.0200
    129  CD1       62.4750   62.5490  109.9830 C.ar  196  PHE196     -0.0042
    130  CD2       64.3880   61.5400  108.9810 C.ar  196  PHE196     -0.0042
    131  CE1       63.0300   62.3950  111.2180 C.ar  196  PHE196     -0.0003
    132  CE2       64.9570   61.3800  110.2210 C.ar  196  PHE196     -0.0003
    133  CZ        64.2800   61.8130  111.3420 C.ar  196  PHE196     -0.0000
    134  N         63.2300   68.1370  107.5870 N.3   199  GLY199     -0.1210
    135  CA        62.6080   68.4400  108.8590 C.3   199  GLY199      0.1956
    136  C         63.6180   68.3200  109.9890 C.2   199  GLY199      0.2611
    137  O         63.6120   69.1170  110.9290 O.2   199  GLY199     -0.2717
    138  N         64.4910   67.3210  109.9030 N.am  200  LEU200     -0.1979
    139  CA        65.5270   67.1350  110.9200 C.3   200  LEU200      0.1596
    140  C         66.5740   68.2430  110.8220 C.2   200  LEU200      0.2287
    141  O         67.0730   68.7450  111.8280 O.2   200  LEU200     -0.2864
    142  CB        66.1840   65.7590  110.7760 C.3   200  LEU200      0.0297
    143  CG        67.2000   65.3590  111.8390 C.3   200  LEU200      0.0022
    144  CD1       66.5600   65.3580  113.2350 C.3   200  LEU200      0.0001
    145  CD2       67.7930   64.0030  111.4940 C.3   200  LEU200      0.0001
    146  N         65.3070   71.2680  112.3910 N.3   203  TYR203     -0.1241
    147  CA        65.4310   71.1670  113.8370 C.3   203  TYR203      0.1605
    148  C         66.8230   71.5830  114.3000 C.2   203  TYR203      0.2264
    149  O         66.9560   72.3540  115.2510 O.2   203  TYR203     -0.2867
    150  CB        65.1370   69.7420  114.3430 C.3   203  TYR203      0.0534
    151  CG        65.8340   69.5090  115.6590 C.ar  203  TYR203     -0.0201
    152  CD1       65.3480   70.0950  116.8320 C.ar  203  TYR203     -0.0009
    153  CD2       67.0160   68.7670  115.7280 C.ar  203  TYR203     -0.0009
    154  CE1       66.0020   69.9300  118.0370 C.ar  203  TYR203      0.0417
    155  CE2       67.6850   68.6010  116.9390 C.ar  203  TYR203      0.0417
    156  CZ        67.1720   69.1890  118.0890 C.ar  203  TYR203      0.1957
    157  OH        67.8250   69.0350  119.2930 O.3   203  TYR203     -0.2866
    158  N         67.2210   75.1570  114.0870 N.3   206  TYR206     -0.1241
    159  CA        66.4990   75.7540  115.2030 C.3   206  TYR206      0.1605
    160  C         67.2920   75.8050  116.5330 C.2   206  TYR206      0.2264
    161  O         67.3470   76.8400  117.1960 O.2   206  TYR206     -0.2867
    162  CB        65.1790   75.0060  115.4190 C.3   206  TYR206      0.0534
    163  CG        64.7240   75.0850  116.8420 C.ar  206  TYR206     -0.0201
    164  CD1       64.0870   76.2160  117.3160 C.ar  206  TYR206     -0.0009
    165  CD2       64.9640   74.0390  117.7300 C.ar  206  TYR206     -0.0009
    166  CE1       63.6920   76.3100  118.6310 C.ar  206  TYR206      0.0417
    167  CE2       64.5710   74.1220  119.0480 C.ar  206  TYR206      0.0417
    168  CZ        63.9360   75.2630  119.4970 C.ar  206  TYR206      0.1957
    169  OH        63.5250   75.3460  120.8080 O.3   206  TYR206     -0.2866
@<TRIPOS>BOND
     1     7     5    1
     2     5     6    1
     3     5     2    1
     4     1     2    1
     5   113   112    1
     6   113   114    2
     7   116   115    1
     8   116   117    1
     9   116   118    1
    10     2     3    1
    11   112   115    1
    12   112   111    1
    13   119   120    1
    14   120   121    1
    15     3     8   am
    16     3     4    2
    17     8     9    1
    18   121   123   am
    19   121   122    2
    20     9    10    1
    21   107   106    2
    22   123   124    1
    23    10    11    2
    24   109   108    1
    25    18    16    1
    26   106   105    1
    27    12    13    1
    28   124   125    1
    29   124   127    1
    30   125   126    2
    31   127   128    1
    32    16    13    1
    33    16    17    1
    34   134   135    1
    35   105   108    1
    36   105   104    1
    37   108   110    1
    38    13    14    1
    39   128   130   ar
    40   128   129   ar
    41   135   136    1
    42   130   132   ar
    43    14    19   am
    44    14    15    2
    45    19    20    1
    46   138   136   am
    47   138   139    1
    48   129   131   ar
    49   136   137    2
    50   132   133   ar
    51    23    20    1
    52    23    24    1
    53    20    21    1
    54   142   139    1
    55   142   143    1
    56   140   139    1
    57   140   141    2
    58   131   133   ar
    59    21    22    2
    60    96    95    2
    61   145   143    1
    62   143   144    1
    63    24    25   ar
    64    24    26   ar
    65    25    27   ar
    66   146   147    1
    67    40    38    1
    68    95    94    1
    69    38    37    1
    70    33    34    1
    71    26    29   ar
    72    26    28   ar
    73    27    28   ar
    74    94    97    1
    75    94    93    1
    76    29    31   ar
    77    97    98    1
    78   147   148    1
    79   147   150    1
    80    37    34    1
    81    37    39    1
    82    99    98   ar
    83    99   101   ar
    84   158   159    1
    85    28    30   ar
    86    34    35    1
    87   148   149    2
    88   150   151    1
    89    98   100   ar
    90   101   103   ar
    91    31    32   ar
    92    92    91    1
    93   159   162    1
    94   159   160    1
    95   162   163    1
    96    35    36    2
    97    30    32   ar
    98    90    89    2
    99   151   153   ar
   100   151   152   ar
   101   153   155   ar
   102   100   102   ar
   103   103   102   ar
   104    78    77   ar
   105    78    76   ar
   106   160   161    2
   107    89    88    1
   108   152   154   ar
   109   163   164   ar
   110   163   165   ar
   111    91    88    1
   112    77    75   ar
   113   155   156   ar
   114    88    87    1
   115   164   166   ar
   116    76    74   ar
   117   165   167   ar
   118   154   156   ar
   119   156   157    1
   120    75    73   ar
   121    82    81    2
   122   166   168   ar
   123    87    81   am
   124    74    73   ar
   125    47    46    1
   126    41    42    1
   127   167   168   ar
   128    46    48    1
   129    46    45    1
   130    73    72    1
   131    81    80    1
   132   168   169    1
   133    45    42    1
   134    71    70    2
   135    42    43    1
   136    72    69    1
   137    70    69    1
   138    80    83    1
   139    80    79    1
   140    83    84    1
   141    43    44    2
   142    69    68    1
   143    64    65    1
   144    64    61    1
   145    85    84    1
   146    84    86    1
   147    65    66    1
   148    63    62    2
   149    58    59   ar
   150    58    56   ar
   151    59    57   ar
   152    60    61    1
   153    61    62    1
   154    56    54   ar
   155    66    67    1
   156    57    55   ar
   157    54    55   ar
   158    54    53    1
   159    49    50    1
   160    53    50    1
   161    50    51    1
   162    51    52    2
