@<TRIPOS>MOLECULE
tmp/4zr1B03.pdb
 184 182 0 0 0
SMALL
GASTEIGER

@<TRIPOS>ATOM
      1  N         70.6080   68.9440  138.9090 N.3    69  LEU69      -0.1231
      2  CA        69.2510   68.4470  138.7440 C.3    69  LEU69       0.1693
      3  C         69.0370   67.2110  139.6140 C.2    69  LEU69       0.2592
      4  O         68.0410   67.1180  140.3240 O.2    69  LEU69      -0.2718
      5  CB        68.9550   68.1550  137.2570 C.3    69  LEU69       0.0284
      6  CG        68.1280   69.2870  136.6100 C.3    69  LEU69       0.0019
      7  CD1       68.7230   70.6470  136.9110 C.3    69  LEU69       0.0001
      8  CD2       67.9150   69.1350  135.1080 C.3    69  LEU69       0.0001
      9  N         69.9850   66.2810  139.5770 N.am   70  PHE70      -0.1976
     10  CA        69.8810   65.0260  140.3170 C.3    70  PHE70       0.1639
     11  C         70.8900   64.9730  141.4610 C.2    70  PHE70       0.2290
     12  O         70.6190   64.4060  142.5190 O.2    70  PHE70      -0.2864
     13  CB        70.1090   63.8260  139.4000 C.3    70  PHE70       0.0560
     14  CG        69.0220   63.6040  138.3900 C.ar   70  PHE70      -0.0200
     15  CD1       69.1300   64.1170  137.1080 C.ar   70  PHE70      -0.0042
     16  CD2       67.8990   62.8660  138.7180 C.ar   70  PHE70      -0.0042
     17  CE1       68.1340   63.8990  136.1740 C.ar   70  PHE70      -0.0003
     18  CE2       66.9130   62.6440  137.7940 C.ar   70  PHE70      -0.0003
     19  CZ        67.0260   63.1660  136.5200 C.ar   70  PHE70      -0.0000
     20  N         73.4070   60.5140  137.7990 N.3    74  LEU74      -0.1245
     21  CA        72.5780   60.8190  136.6370 C.3    74  LEU74       0.1561
     22  C         72.8770   62.1990  136.0600 C.2    74  LEU74       0.2260
     23  O         72.4080   62.5130  134.9690 O.2    74  LEU74      -0.2867
     24  CB        71.0870   60.7350  136.9820 C.3    74  LEU74       0.0270
     25  CG        70.4670   59.3630  137.2490 C.3    74  LEU74       0.0019
     26  CD1       68.9640   59.5000  137.4530 C.3    74  LEU74       0.0001
     27  CD2       70.7660   58.4070  136.1060 C.3    74  LEU74       0.0001
     28  N         73.8390   63.0700  132.1760 N.3    77  LEU77      -0.1231
     29  CA        72.7380   63.0810  131.2140 C.3    77  LEU77       0.1693
     30  C         72.0340   64.4280  131.0540 C.2    77  LEU77       0.2592
     31  O         71.3450   64.6670  130.0580 O.2    77  LEU77      -0.2718
     32  CB        71.7110   62.0360  131.6180 C.3    77  LEU77       0.0284
     33  CG        72.1210   60.6250  131.2470 C.3    77  LEU77       0.0019
     34  CD1       71.0800   59.6520  131.7400 C.3    77  LEU77       0.0001
     35  CD2       72.2740   60.5570  129.7330 C.3    77  LEU77       0.0001
     36  N         72.1960   65.2960  132.0430 N.am   78  THR78      -0.1953
     37  CA        71.4800   66.5570  132.0690 C.3    78  THR78       0.1897
     38  C         72.3070   67.6980  131.5290 C.2    78  THR78       0.2313
     39  O         71.9010   68.8490  131.6100 O.2    78  THR78      -0.2863
     40  CB        71.0430   66.9200  133.4880 C.3    78  THR78       0.1794
     41  OG1       72.1950   67.2880  134.2600 O.3    78  THR78      -0.2208
     42  CG2       70.3240   65.7430  134.1430 C.3    78  THR78       0.0378
     43  N         55.5440   72.9730  125.0700 N.3   132  PHE132     -0.1241
     44  CA        56.5160   73.5730  125.9830 C.3   132  PHE132      0.1605
     45  C         55.8700   74.5760  126.9370 C.2   132  PHE132      0.2264
     46  O         56.2680   74.6950  128.0980 O.2   132  PHE132     -0.2867
     47  CB        57.6380   74.2690  125.2060 C.3   132  PHE132      0.0534
     48  CG        58.5850   73.3290  124.5130 C.ar  132  PHE132     -0.0203
     49  CD1       58.4110   71.9520  124.5870 C.ar  132  PHE132     -0.0042
     50  CD2       59.6590   73.8320  123.7780 C.ar  132  PHE132     -0.0042
     51  CE1       59.2920   71.0850  123.9390 C.ar  132  PHE132     -0.0003
     52  CE2       60.5400   72.9740  123.1260 C.ar  132  PHE132     -0.0003
     53  CZ        60.3610   71.5960  123.2050 C.ar  132  PHE132     -0.0000
     54  N         59.2220   70.7920  133.4510 N.3   149  PHE149     -0.1227
     55  CA        60.5510   71.2570  133.8120 C.3   149  PHE149      0.1736
     56  C         61.6020   70.7720  132.8260 C.2   149  PHE149      0.2595
     57  O         62.4120   71.5610  132.3580 O.2   149  PHE149     -0.2718
     58  CB        60.8990   70.7900  135.2240 C.3   149  PHE149      0.0547
     59  CG        62.2480   71.2380  135.6980 C.ar  149  PHE149     -0.0202
     60  CD1       62.4340   72.5340  136.1650 C.ar  149  PHE149     -0.0042
     61  CD2       63.3340   70.3560  135.6900 C.ar  149  PHE149     -0.0042
     62  CE1       63.6800   72.9660  136.6140 C.ar  149  PHE149     -0.0003
     63  CE2       64.5900   70.7800  136.1300 C.ar  149  PHE149     -0.0003
     64  CZ        64.7560   72.0920  136.6060 C.ar  149  PHE149     -0.0000
     65  N         61.5830   69.4750  132.5170 N.am  150  LEU150     -0.1966
     66  CA        62.5910   68.8760  131.6430 C.3   150  LEU150      0.1728
     67  C         62.4080   69.2480  130.1710 C.2   150  LEU150      0.2616
     68  O         63.3700   69.2600  129.4070 O.2   150  LEU150     -0.2715
     69  CB        62.5880   67.3490  131.7850 C.3   150  LEU150      0.0311
     70  CG        63.0170   66.8080  133.1530 C.3   150  LEU150      0.0022
     71  CD1       62.8550   65.3030  133.2010 C.3   150  LEU150      0.0001
     72  CD2       64.4370   67.1980  133.4560 C.3   150  LEU150      0.0001
     73  N         61.1860   69.5560  129.7600 N.am  151  LEU151     -0.1963
     74  CA        60.9790   69.9220  128.3590 C.3   151  LEU151      0.1728
     75  C         61.4420   71.3350  128.0210 C.2   151  LEU151      0.2616
     76  O         61.9270   71.5730  126.9090 O.2   151  LEU151     -0.2715
     77  CB        59.5070   69.7680  127.9740 C.3   151  LEU151      0.0311
     78  CG        59.0550   68.3100  127.9540 C.3   151  LEU151      0.0022
     79  CD1       57.6040   68.2060  127.4900 C.3   151  LEU151      0.0001
     80  CD2       59.9940   67.4550  127.0830 C.3   151  LEU151      0.0001
     81  N         61.3120   72.2670  128.9660 N.am  152  HIS152     -0.1973
     82  CA        61.4310   73.6890  128.6290 C.3   152  HIS152      0.1656
     83  C         61.4620   74.6030  129.8560 C.2   152  HIS152      0.2291
     84  O         62.1200   75.6510  129.8610 O.2   152  HIS152     -0.2864
     85  CB        60.2620   74.0860  127.7090 C.3   152  HIS152      0.0771
     86  CG        60.4570   75.3880  126.9990 C.ar  152  HIS152      0.0820
     87  ND1       61.4550   75.5880  126.0700 N.ar  152  HIS152     -0.2267
     88  CD2       59.7800   76.5560  127.0800 C.ar  152  HIS152      0.1154
     89  CE1       61.3860   76.8220  125.6110 C.ar  152  HIS152      0.1986
     90  NE2       60.3780   77.4320  126.2080 N.ar  152  HIS152     -0.2212
     91  N         62.9470   74.3940  132.7110 N.3   154  CYS154     -0.1221
     92  CA        64.2820   74.5880  133.2600 C.3   154  CYS154      0.1808
     93  C         65.0600   75.6360  132.4630 C.2   154  CYS154      0.2601
     94  O         65.8190   76.4240  133.0220 O.2   154  CYS154     -0.2717
     95  CB        65.0500   73.2640  133.2780 C.3   154  CYS154      0.0970
     96  SG        66.7160   73.3670  133.9970 S.3   154  CYS154     -0.0800
     97  N         64.8690   75.6360  131.1510 N.am  155  HIS155     -0.1975
     98  CA        65.4430   76.6650  130.3070 C.3   155  HIS155      0.1656
     99  C         64.9410   78.0770  130.6820 C.2   155  HIS155      0.2291
    100  O         65.7410   78.9960  130.8400 O.2   155  HIS155     -0.2864
    101  CB        65.1410   76.3740  128.8320 C.3   155  HIS155      0.0771
    102  CG        65.6880   77.4080  127.9020 C.ar  155  HIS155      0.0820
    103  ND1       66.9420   77.9490  128.0400 N.ar  155  HIS155     -0.2267
    104  CD2       65.1410   78.0080  126.8100 C.ar  155  HIS155      0.1154
    105  CE1       67.1570   78.8320  127.0840 C.ar  155  HIS155      0.1986
    106  NE2       66.0810   78.8780  126.3200 N.ar  155  HIS155     -0.2212
    107  N         72.0230   73.5470  129.3980 N.3   164  ARG164     -0.1231
    108  CA        70.6310   73.1850  129.6370 C.3   164  ARG164      0.1694
    109  C         69.6860   73.9120  128.6850 C.2   164  ARG164      0.2592
    110  O         68.5150   74.1290  129.0020 O.2   164  ARG164     -0.2718
    111  CB        70.2700   73.4700  131.1020 C.3   164  ARG164      0.0321
    112  CG        71.1990   72.7470  132.0910 C.3   164  ARG164      0.0489
    113  CD        70.5950   71.4620  132.5050 C.3   164  ARG164      0.2205
    114  NE        71.4550   70.5490  133.2690 N.pl3 164  ARG164     -0.0865
    115  CZ        71.8640   70.7190  134.5290 C.cat 164  ARG164      0.5346
    116  NH1       72.5770   69.7700  135.1130 N.pl3 164  ARG164      0.1354
    117  NH2       71.6070   71.8290  135.2030 N.pl3 164  ARG164      0.1354
    118  N         70.2030   74.2540  127.5060 N.am  165  LEU165     -0.1966
    119  CA        69.4380   74.9540  126.4720 C.3   165  LEU165      0.1728
    120  C         68.9970   74.0120  125.3370 C.2   165  LEU165      0.2616
    121  O         67.8100   73.8400  125.1150 O.2   165  LEU165     -0.2715
    122  CB        70.2570   76.1320  125.9130 C.3   165  LEU165      0.0311
    123  CG        69.5660   77.1620  125.0060 C.3   165  LEU165      0.0022
    124  CD1       70.3110   78.4790  125.0160 C.3   165  LEU165      0.0001
    125  CD2       69.4560   76.6560  123.5670 C.3   165  LEU165      0.0001
    126  N         69.9330   73.4250  124.6010 N.am  166  VAL166     -0.1963
    127  CA        69.5400   72.5480  123.5020 C.3   166  VAL166      0.1727
    128  C         68.9840   71.2290  124.0380 C.2   166  VAL166      0.2616
    129  O         69.2630   70.8370  125.1660 O.2   166  VAL166     -0.2715
    130  CB        70.7090   72.2510  122.5210 C.3   166  VAL166      0.0290
    131  CG1       71.2700   73.5530  121.9480 C.3   166  VAL166      0.0023
    132  CG2       71.8160   71.4110  123.1930 C.3   166  VAL166      0.0023
    133  N         68.1790   70.5630  123.2180 N.am  167  MET167     -0.1964
    134  CA        67.5640   69.3010  123.5880 C.3   167  MET167      0.1722
    135  C         68.5870   68.1930  123.7540 C.2   167  MET167      0.2458
    136  O         69.3450   67.8940  122.8350 O.2   167  MET167     -0.2730
    137  CB        66.5360   68.8720  122.5350 C.3   167  MET167      0.0427
    138  CG        65.1690   69.5400  122.6290 C.3   167  MET167      0.0599
    139  SD        64.0630   68.7400  123.8330 S.3   167  MET167     -0.1393
    140  CE        64.4500   69.6270  125.3360 C.3   167  MET167      0.0692
    141  N         68.6100   67.5760  124.9330 N.am  168  PRO168     -0.2727
    142  CA        69.3210   66.3130  125.0920 C.3   168  PRO168      0.1402
    143  C         68.8170   65.2870  124.0800 C.2   168  PRO168      0.2269
    144  O         67.6040   65.1820  123.8880 O.2   168  PRO168     -0.2865
    145  CB        68.9820   65.8910  126.5360 C.3   168  PRO168      0.0296
    146  CG        67.9100   66.7690  126.9800 C.3   168  PRO168      0.0237
    147  CD        68.0070   68.0320  126.1920 C.3   168  PRO168      0.0939
    148  N         68.4060   62.2290  124.2380 N.3   170  THR170     -0.1203
    149  CA        67.4580   61.3620  124.9440 C.3   170  THR170      0.1994
    150  C         66.0100   61.8500  124.8530 C.2   170  THR170      0.2617
    151  O         65.1130   61.1070  124.4470 O.2   170  THR170     -0.2717
    152  CB        67.8450   61.2510  126.4190 C.3   170  THR170      0.1784
    153  OG1       69.2070   60.8140  126.5150 O.3   170  THR170     -0.2211
    154  CG2       66.9330   60.2720  127.1490 C.3   170  THR170      0.0376
    155  N         65.7680   63.1000  125.2300 N.am  171  LEU171     -0.1979
    156  CA        64.4280   63.6410  125.0570 C.3   171  LEU171      0.1596
    157  C         64.0720   63.8660  123.5920 C.2   171  LEU171      0.2287
    158  O         62.9350   63.6110  123.2050 O.2   171  LEU171     -0.2864
    159  CB        64.2320   64.9420  125.8450 C.3   171  LEU171      0.0297
    160  CG        64.6360   64.8310  127.3060 C.3   171  LEU171      0.0022
    161  CD1       64.5080   66.1390  128.0480 C.3   171  LEU171      0.0001
    162  CD2       63.7950   63.7490  127.9240 C.3   171  LEU171      0.0001
    163  N         67.2210   75.1570  114.0870 N.3   206  TYR206     -0.1241
    164  CA        66.4990   75.7540  115.2030 C.3   206  TYR206      0.1605
    165  C         67.2920   75.8050  116.5330 C.2   206  TYR206      0.2264
    166  O         67.3470   76.8400  117.1960 O.2   206  TYR206     -0.2867
    167  CB        65.1790   75.0060  115.4190 C.3   206  TYR206      0.0534
    168  CG        64.7240   75.0850  116.8420 C.ar  206  TYR206     -0.0201
    169  CD1       64.0870   76.2160  117.3160 C.ar  206  TYR206     -0.0009
    170  CD2       64.9640   74.0390  117.7300 C.ar  206  TYR206     -0.0009
    171  CE1       63.6920   76.3100  118.6310 C.ar  206  TYR206      0.0417
    172  CE2       64.5710   74.1220  119.0480 C.ar  206  TYR206      0.0417
    173  CZ        63.9360   75.2630  119.4970 C.ar  206  TYR206      0.1957
    174  OH        63.5250   75.3460  120.8080 O.3   206  TYR206     -0.2866
    175  N         68.6010   78.8560  118.3510 N.3   210  HIS210     -0.1241
    176  CA        68.2110   79.0720  119.7480 C.3   210  HIS210      0.1621
    177  C         69.4110   79.3270  120.6610 C.2   210  HIS210      0.2264
    178  O         69.4670   80.3280  121.3700 O.2   210  HIS210     -0.2867
    179  CB        67.4390   77.8720  120.2720 C.3   210  HIS210      0.0745
    180  CG        66.7670   78.1170  121.5850 C.ar  210  HIS210      0.0817
    181  ND1       66.3060   77.0960  122.3890 N.ar  210  HIS210     -0.2268
    182  CD2       66.4750   79.2680  122.2350 C.ar  210  HIS210      0.1154
    183  CE1       65.7650   77.6070  123.4820 C.ar  210  HIS210      0.1986
    184  NE2       65.8510   78.9230  123.4120 N.ar  210  HIS210     -0.2212
@<TRIPOS>BOND
     1   163   164    1
     2   164   167    1
     3   164   165    1
     4   167   168    1
     5   165   166    2
     6   168   169   ar
     7   168   170   ar
     8   169   171   ar
     9   170   172   ar
    10   175   176    1
    11   171   173   ar
    12   172   173   ar
    13   173   174    1
    14   176   179    1
    15   176   177    1
    16   179   180    1
    17   177   178    2
    18   180   182   ar
    19   180   181   ar
    20   131   130    1
    21   182   184   ar
    22   181   183   ar
    23   130   132    1
    24   130   127    1
    25   137   138    1
    26   137   134    1
    27   138   139    1
    28   136   135    2
    29    52    53   ar
    30    52    50   ar
    31    53    51   ar
    32   158   157    2
    33   133   134    1
    34   133   128   am
    35   184   183   ar
    36   127   128    1
    37   127   126    1
    38   125   123    1
    39   134   135    1
    40   157   156    1
    41   135   141   am
    42    50    48   ar
    43   139   140    1
    44   144   143    2
    45    51    49   ar
    46   128   129    2
    47   143   142    1
    48   148   149    1
    49   151   150    2
    50    48    49   ar
    51    48    47    1
    52   126   120   am
    53   150   149    1
    54   150   155   am
    55   141   142    1
    56   141   147    1
    57   149   152    1
    58   123   124    1
    59   123   122    1
    60   156   155    1
    61   156   159    1
    62    43    44    1
    63   142   145    1
    64   121   120    2
    65    47    44    1
    66   120   119    1
    67    89    87   ar
    68    89    90   ar
    69   159   160    1
    70   122   119    1
    71    44    45    1
    72    87    86   ar
    73   147   146    1
    74    90    88   ar
    75   106   104   ar
    76   106   105   ar
    77   152   153    1
    78   152   154    1
    79   119   118    1
    80   145   146    1
    81   104   102   ar
    82    76    75    2
    83    45    46    2
    84    86    88   ar
    85    86    85    1
    86    80    78    1
    87   105   103   ar
    88   160   162    1
    89   160   161    1
    90    79    78    1
    91   118   109   am
    92    85    82    1
    93   102   103   ar
    94   102   101    1
    95    78    77    1
    96    77    74    1
    97    75    74    1
    98    75    81   am
    99    74    73    1
   100    82    81    1
   101    82    83    1
   102   109   110    2
   103   109   108    1
   104   101    98    1
   105   107   108    1
   106    68    67    2
   107   108   111    1
   108    35    33    1
   109    73    67   am
   110    83    84    2
   111    31    30    2
   112    67    66    1
   113    98    99    1
   114    98    97    1
   115    99   100    2
   116    30    29    1
   117    30    36   am
   118   111   112    1
   119    97    93   am
   120    29    32    1
   121    29    28    1
   122    33    32    1
   123    33    34    1
   124    38    39    2
   125    38    37    1
   126    66    69    1
   127    66    65    1
   128    69    70    1
   129    36    37    1
   130    37    40    1
   131   112   113    1
   132    57    56    2
   133    93    94    2
   134    93    92    1
   135   113   114    1
   136    65    56   am
   137    91    92    1
   138    56    55    1
   139    70    71    1
   140    70    72    1
   141    92    95    1
   142   114   115    2
   143    95    96    1
   144    54    55    1
   145    40    42    1
   146    40    41    1
   147    55    58    1
   148   115   116    1
   149   115   117    1
   150    23    22    2
   151     8     6    1
   152    58    59    1
   153    61    59   ar
   154    61    63   ar
   155    59    60   ar
   156    22    21    1
   157    27    25    1
   158    63    64   ar
   159    60    62   ar
   160    17    19   ar
   161    17    15   ar
   162    19    18   ar
   163    64    62   ar
   164     6     7    1
   165     6     5    1
   166    21    24    1
   167    21    20    1
   168    24    25    1
   169    15    14   ar
   170    25    26    1
   171     5     2    1
   172    18    16   ar
   173    14    16   ar
   174    14    13    1
   175     2     1    1
   176     2     3    1
   177    13    10    1
   178     9     3   am
   179     9    10    1
   180     3     4    2
   181    10    11    1
   182    11    12    2
