@<TRIPOS>MOLECULE
tmp/4zr1A03.pdb
 89 88 0 0 0
SMALL
GASTEIGER

@<TRIPOS>ATOM
      1  N         72.9920   49.2330  115.5740 N.3    82  TRP82      -0.1241
      2  CA        74.4430   49.0550  115.5700 C.3    82  TRP82       0.1605
      3  C         75.2060   50.3210  115.1780 C.2    82  TRP82       0.2264
      4  O         76.2120   50.6510  115.7960 O.2    82  TRP82      -0.2867
      5  CB        74.8360   47.9180  114.6210 C.3    82  TRP82       0.0550
      6  CG        74.4660   48.1640  113.1900 C.ar   82  TRP82       0.0003
      7  CD1       73.2830   47.8600  112.5890 C.ar   82  TRP82       0.0946
      8  CD2       75.2910   48.7580  112.1730 C.ar   82  TRP82       0.0152
      9  NE1       73.3100   48.2290  111.2630 N.ar   82  TRP82      -0.2442
     10  CE2       74.5310   48.7810  110.9810 C.ar   82  TRP82       0.0810
     11  CE3       76.5950   49.2680  112.1530 C.ar   82  TRP82       0.0012
     12  CZ2       75.0310   49.2940  109.7820 C.ar   82  TRP82       0.0191
     13  CZ3       77.0890   49.7870  110.9590 C.ar   82  TRP82       0.0001
     14  CH2       76.3090   49.7950  109.7930 C.ar   82  TRP82       0.0015
     15  N         79.1330   53.9620  116.5230 N.3    86  PRO86      -0.2116
     16  CA        80.1790   54.6910  115.7890 C.3    86  PRO86       0.1372
     17  C         79.8430   56.1630  115.5040 C.2    86  PRO86       0.2244
     18  O         80.7200   57.0040  115.7160 O.2    86  PRO86      -0.2868
     19  CB        80.2940   53.9190  114.4720 C.3    86  PRO86       0.0268
     20  CG        79.7020   52.5800  114.7430 C.3    86  PRO86       0.0207
     21  CD        78.6450   52.7930  115.7630 C.3    86  PRO86       0.0892
     22  N         82.7800   58.0440  117.6670 N.3    90  LEU90      -0.1245
     23  CA        83.9840   58.2760  116.8770 C.3    90  LEU90       0.1561
     24  C         84.3170   59.7730  116.6900 C.2    90  LEU90       0.2260
     25  O         85.4840   60.1260  116.6060 O.2    90  LEU90      -0.2867
     26  CB        83.8690   57.5960  115.5160 C.3    90  LEU90       0.0270
     27  CG        84.0210   56.0740  115.4820 C.3    90  LEU90       0.0019
     28  CD1       84.1070   55.5920  114.0310 C.3    90  LEU90       0.0001
     29  CD2       85.2380   55.6290  116.2570 C.3    90  LEU90       0.0001
     30  N         84.0530   51.4520  121.2720 N.3   204  VAL204     -0.1231
     31  CA        83.3460   51.4030  119.9920 C.3   204  VAL204      0.1692
     32  C         83.6640   50.1340  119.2100 C.2   204  VAL204      0.2592
     33  O         82.7760   49.5340  118.5990 O.2   204  VAL204     -0.2718
     34  CB        83.6800   52.6170  119.1230 C.3   204  VAL204      0.0266
     35  CG1       82.9750   52.5020  117.7770 C.3   204  VAL204      0.0020
     36  CG2       83.2740   53.9020  119.8610 C.3   204  VAL204      0.0020
     37  N         84.9250   49.7120  119.2420 N.am  205  CYS205     -0.1970
     38  CA        85.3000   48.4660  118.5920 C.3   205  CYS205      0.1712
     39  C         84.5970   47.2870  119.2520 C.2   205  CYS205      0.2296
     40  O         84.0970   46.4010  118.5650 O.2   205  CYS205     -0.2864
     41  CB        86.8150   48.2780  118.6230 C.3   205  CYS205      0.0983
     42  SG        87.7170   49.4790  117.6120 S.3   205  CYS205     -0.0798
     43  N         80.5760   47.2200  118.4370 N.3   208  GLU208     -0.1245
     44  CA        80.4340   46.8590  117.0320 C.3   208  GLU208      0.1567
     45  C         80.8100   45.4030  116.8400 C.2   208  GLU208      0.2260
     46  O         80.0660   44.6380  116.2360 O.2   208  GLU208     -0.2867
     47  CB        81.2920   47.7510  116.1490 C.3   208  GLU208      0.0388
     48  CG        80.8460   49.1960  116.1790 C.3   208  GLU208      0.1160
     49  CD        79.3740   49.3520  115.8420 C.2   208  GLU208      0.3649
     50  OE1       78.9990   49.1650  114.6730 O.co2 208  GLU208     -0.2457
     51  OE2       78.5860   49.6420  116.7540 O.co2 208  GLU208     -0.2457
     52  N         78.0700   43.3390  118.3790 N.3   211  PHE211     -0.1227
     53  CA        76.9440   43.2640  117.4610 C.3   211  PHE211      0.1736
     54  C         77.1470   42.2090  116.3740 C.2   211  PHE211      0.2595
     55  O         76.2950   41.3390  116.1750 O.2   211  PHE211     -0.2718
     56  CB        76.6740   44.6200  116.8020 C.3   211  PHE211      0.0547
     57  CG        75.3970   44.6520  116.0130 C.ar  211  PHE211     -0.0202
     58  CD1       74.1800   44.8980  116.6470 C.ar  211  PHE211     -0.0042
     59  CD2       75.3970   44.3960  114.6450 C.ar  211  PHE211     -0.0042
     60  CE1       72.9940   44.9120  115.9260 C.ar  211  PHE211     -0.0003
     61  CE2       74.2020   44.4100  113.9090 C.ar  211  PHE211     -0.0003
     62  CZ        73.0070   44.6640  114.5500 C.ar  211  PHE211     -0.0000
     63  N         78.2740   42.2710  115.6760 N.am  212  PHE212     -0.1976
     64  CA        78.4130   41.4800  114.4620 C.3   212  PHE212      0.1639
     65  C         78.7470   40.0320  114.7830 C.2   212  PHE212      0.2290
     66  O         78.6130   39.1510  113.9350 O.2   212  PHE212     -0.2864
     67  CB        79.4420   42.1210  113.5240 C.3   212  PHE212      0.0560
     68  CG        78.9580   43.4170  112.9220 C.ar  212  PHE212     -0.0200
     69  CD1       77.8470   43.4310  112.0840 C.ar  212  PHE212     -0.0042
     70  CD2       79.5820   44.6170  113.2160 C.ar  212  PHE212     -0.0042
     71  CE1       77.3740   44.6180  111.5450 C.ar  212  PHE212     -0.0003
     72  CE2       79.1160   45.8090  112.6800 C.ar  212  PHE212     -0.0003
     73  CZ        78.0140   45.8090  111.8440 C.ar  212  PHE212     -0.0000
     74  N         74.9360   38.9950  114.7610 N.3   215  HIS215     -0.1226
     75  CA        74.1150   39.2480  113.5890 C.3   215  HIS215      0.1752
     76  C         74.8610   39.2300  112.2530 C.2   215  HIS215      0.2596
     77  O         74.5470   40.0060  111.3480 O.2   215  HIS215     -0.2718
     78  CB        73.3980   40.5860  113.7730 C.3   215  HIS215      0.0759
     79  CG        72.3920   40.5720  114.8800 C.ar  215  HIS215      0.0818
     80  ND1       72.5530   41.2830  116.0480 N.ar  215  HIS215     -0.2268
     81  CD2       71.2200   39.9020  115.0060 C.ar  215  HIS215      0.1154
     82  CE1       71.5150   41.0710  116.8380 C.ar  215  HIS215      0.1986
     83  NE2       70.6920   40.2360  116.2280 N.ar  215  HIS215     -0.2212
     84  N         75.8230   38.3270  112.1070 N.am  216  SER216     -0.1952
     85  CA        76.6350   38.3330  110.8980 C.3   216  SER216      0.1924
     86  C         77.4770   37.0830  110.6810 C.2   216  SER216      0.2314
     87  O         78.0630   36.5490  111.6220 O.2   216  SER216     -0.2863
     88  CB        77.5610   39.5480  110.9100 C.3   216  SER216      0.2116
     89  OG        78.5390   39.4290  109.8980 O.3   216  SER216     -0.2180
@<TRIPOS>BOND
     1    12    14   ar
     2    12    10   ar
     3    14    13   ar
     4    89    88    1
     5    86    85    1
     6    86    87    2
     7    85    88    1
     8    85    84    1
     9    13    11   ar
    10    10     9   ar
    11    10     8   ar
    12     9     7   ar
    13    77    76    2
    14    71    73   ar
    15    71    69   ar
    16    73    72   ar
    17    69    68   ar
    18    84    76   am
    19    11     8   ar
    20     8     6   ar
    21    76    75    1
    22     7     6   ar
    23    72    70   ar
    24    68    70   ar
    25    68    67    1
    26     6     5    1
    27    67    64    1
    28    75    78    1
    29    75    74    1
    30    78    79    1
    31    61    62   ar
    32    61    59   ar
    33    66    65    2
    34    28    27    1
    35    64    65    1
    36    64    63    1
    37    19    20    1
    38    19    16    1
    39    62    60   ar
    40     5     2    1
    41    59    57   ar
    42    50    49   ar
    43    20    21    1
    44    79    81   ar
    45    79    80   ar
    46    81    83   ar
    47     3     2    1
    48     3     4    2
    49    27    26    1
    50    27    29    1
    51    17    18    2
    52    17    16    1
    53    26    23    1
    54     2     1    1
    55    63    54   am
    56    21    15    1
    57    16    15    1
    58    49    48    1
    59    49    51   ar
    60    60    58   ar
    61    57    58   ar
    62    57    56    1
    63    80    82   ar
    64    47    48    1
    65    47    44    1
    66    55    54    2
    67    83    82   ar
    68    46    45    2
    69    54    53    1
    70    25    24    2
    71    24    23    1
    72    56    53    1
    73    45    44    1
    74    23    22    1
    75    44    43    1
    76    53    52    1
    77    42    41    1
    78    35    34    1
    79    40    39    2
    80    38    41    1
    81    38    37    1
    82    38    39    1
    83    33    32    2
    84    34    36    1
    85    34    31    1
    86    32    37   am
    87    32    31    1
    88    31    30    1
