@<TRIPOS>MOLECULE
tmp/4zr1A01.pdb
 103 102 0 0 0
SMALL
GASTEIGER

@<TRIPOS>ATOM
      1  N         93.3640   51.6730  124.4780 N.3   117  VAL117     -0.1245
      2  CA        92.7490   50.4750  123.9090 C.3   117  VAL117      0.1561
      3  C         93.0260   49.2220  124.7540 C.2   117  VAL117      0.2260
      4  O         92.1820   48.3420  124.8770 O.2   117  VAL117     -0.2867
      5  CB        93.2340   50.2430  122.4780 C.3   117  VAL117      0.0252
      6  CG1       92.6360   48.9590  121.9050 C.3   117  VAL117      0.0019
      7  CG2       92.8940   51.4590  121.5950 C.3   117  VAL117      0.0019
      8  N         90.9620   49.4400  127.8330 N.3   120  TRP120     -0.1227
      9  CA        89.5740   49.1440  127.4920 C.3   120  TRP120      0.1737
     10  C         89.2830   47.6440  127.6070 C.2   120  TRP120      0.2596
     11  O         88.2600   47.2540  128.1810 O.2   120  TRP120     -0.2718
     12  CB        89.1710   49.6070  126.0780 C.3   120  TRP120      0.0564
     13  CG        87.9220   48.8500  125.7100 C.ar  120  TRP120      0.0003
     14  CD1       87.8180   47.8120  124.8310 C.ar  120  TRP120      0.0946
     15  CD2       86.6270   48.9890  126.3180 C.ar  120  TRP120      0.0152
     16  NE1       86.5320   47.3200  124.8250 N.ar  120  TRP120     -0.2442
     17  CE2       85.7830   48.0250  125.7310 C.ar  120  TRP120      0.0810
     18  CE3       86.0940   49.8500  127.2840 C.ar  120  TRP120      0.0012
     19  CZ2       84.4390   47.8950  126.0820 C.ar  120  TRP120      0.0191
     20  CZ3       84.7550   49.7150  127.6340 C.ar  120  TRP120      0.0001
     21  CH2       83.9470   48.7470  127.0340 C.ar  120  TRP120      0.0015
     22  N         90.1640   46.8060  127.0580 N.am  121  THR121     -0.1953
     23  CA        89.8920   45.3650  127.0160 C.3   121  THR121      0.1897
     24  C         89.7940   44.7750  128.4120 C.2   121  THR121      0.2313
     25  O         89.1280   43.7580  128.6120 O.2   121  THR121     -0.2863
     26  CB        90.9750   44.5670  126.2540 C.3   121  THR121      0.1794
     27  OG1       92.1630   44.4580  127.0550 O.3   121  THR121     -0.2208
     28  CG2       91.2870   45.2280  124.9450 C.3   121  THR121      0.0378
     29  N         87.7300   54.5850  121.8280 N.3   201  PHE201     -0.1227
     30  CA        87.8060   53.8760  120.5420 C.3   201  PHE201      0.1736
     31  C         87.6840   52.3690  120.7490 C.2   201  PHE201      0.2596
     32  O         87.0500   51.6640  119.9650 O.2   201  PHE201     -0.2718
     33  CB        89.1180   54.2000  119.8220 C.3   201  PHE201      0.0547
     34  CG        89.3220   53.4330  118.5410 C.ar  201  PHE201     -0.0202
     35  CD1       88.6710   53.8100  117.3750 C.ar  201  PHE201     -0.0042
     36  CD2       90.1700   52.3420  118.4990 C.ar  201  PHE201     -0.0042
     37  CE1       88.8570   53.1070  116.2020 C.ar  201  PHE201     -0.0003
     38  CE2       90.3660   51.6450  117.3290 C.ar  201  PHE201     -0.0003
     39  CZ        89.7100   52.0290  116.1760 C.ar  201  PHE201     -0.0000
     40  N         88.3000   51.8890  121.8210 N.am  202  GLY202     -0.1957
     41  CA        88.2250   50.4940  122.1850 C.3   202  GLY202      0.1869
     42  C         86.8090   50.0950  122.5180 C.2   202  GLY202      0.2309
     43  O         86.3810   49.0050  122.1460 O.2   202  GLY202     -0.2863
     44  N         84.9250   49.7120  119.2420 N.3   205  CYS205     -0.1235
     45  CA        85.3000   48.4660  118.5920 C.3   205  CYS205      0.1677
     46  C         84.5970   47.2870  119.2520 C.2   205  CYS205      0.2270
     47  O         84.0970   46.4010  118.5650 O.2   205  CYS205     -0.2867
     48  CB        86.8150   48.2780  118.6230 C.3   205  CYS205      0.0956
     49  SG        87.7170   49.4790  117.6120 S.3   205  CYS205     -0.0801
     50  N         88.6430   34.6670  110.1200 N.3   221  PHE221     -0.1227
     51  CA        89.5280   34.8560  111.2630 C.3   221  PHE221      0.1736
     52  C         88.7530   35.2480  112.5300 C.2   221  PHE221      0.2595
     53  O         89.2230   35.0150  113.6430 O.2   221  PHE221     -0.2718
     54  CB        90.6230   35.8870  110.9380 C.3   221  PHE221      0.0547
     55  CG        90.1290   37.2960  110.7950 C.ar  221  PHE221     -0.0202
     56  CD1       89.5870   37.7380  109.5980 C.ar  221  PHE221     -0.0042
     57  CD2       90.2360   38.1930  111.8510 C.ar  221  PHE221     -0.0042
     58  CE1       89.1370   39.0470  109.4620 C.ar  221  PHE221     -0.0003
     59  CE2       89.7890   39.5030  111.7230 C.ar  221  PHE221     -0.0003
     60  CZ        89.2410   39.9290  110.5250 C.ar  221  PHE221     -0.0000
     61  N         87.5580   35.8080  112.3630 N.am  222  MET222     -0.1979
     62  CA        86.7080   36.1530  113.5070 C.3   222  MET222      0.1605
     63  C         85.6800   35.0740  113.8070 C.2   222  MET222      0.2287
     64  O         85.0250   35.1000  114.8450 O.2   222  MET222     -0.2864
     65  CB        85.9860   37.4850  113.2740 C.3   222  MET222      0.0413
     66  CG        86.8160   38.7050  113.6290 C.3   222  MET222      0.0598
     67  SD        86.0040   40.2420  113.1700 S.3   222  MET222     -0.1393
     68  CE        84.6170   40.2600  114.2930 C.3   222  MET222      0.0692
     69  N         85.8350   33.4350  117.0940 N.3   225  LEU225     -0.1245
     70  CA        85.5190   34.3320  118.1930 C.3   225  LEU225      0.1561
     71  C         83.9920   34.3620  118.3420 C.2   225  LEU225      0.2260
     72  O         83.4510   34.4770  119.4470 O.2   225  LEU225     -0.2867
     73  CB        86.0870   35.7260  117.9320 C.3   225  LEU225      0.0270
     74  CG        85.9280   36.7970  119.0150 C.3   225  LEU225      0.0019
     75  CD1       86.7260   36.4600  120.2690 C.3   225  LEU225      0.0001
     76  CD2       86.3430   38.1480  118.4650 C.3   225  LEU225      0.0001
     77  N         85.9360   40.9380  122.6760 N.3   244  THR244     -0.1203
     78  CA        86.8770   41.2880  121.5990 C.3   244  THR244      0.1994
     79  C         88.0220   40.2920  121.5510 C.2   244  THR244      0.2619
     80  O         88.7550   40.2370  120.5620 O.2   244  THR244     -0.2717
     81  CB        87.4740   42.6900  121.7410 C.3   244  THR244      0.1784
     82  OG1       88.1260   42.8030  123.0090 O.3   244  THR244     -0.2211
     83  CG2       86.3890   43.7390  121.6140 C.3   244  THR244      0.0376
     84  N         88.1790   39.5270  122.6350 N.am  245  SER245     -0.1937
     85  CA        89.1350   38.4110  122.7100 C.3   245  SER245      0.2055
     86  C         88.9600   37.6710  124.0260 C.2   245  SER245      0.2643
     87  O         88.3430   38.1970  124.9500 O.2   245  SER245     -0.2714
     88  CB        90.5850   38.8870  122.6070 C.3   245  SER245      0.2130
     89  OG        91.0380   39.3670  123.8650 O.3   245  SER245     -0.2179
     90  N         89.5300   36.4700  124.1200 N.am  246  TRP246     -0.1973
     91  CA        89.4890   35.7020  125.3610 C.3   246  TRP246      0.1640
     92  C         90.8010   35.8240  126.1230 C.2   246  TRP246      0.2290
     93  O         91.0680   35.0540  127.0430 O.2   246  TRP246     -0.2864
     94  CB        89.1930   34.2370  125.0820 C.3   246  TRP246      0.0576
     95  CG        90.1180   33.6350  124.1040 C.ar  246  TRP246      0.0006
     96  CD1       91.4190   33.2780  124.3180 C.ar  246  TRP246      0.0946
     97  CD2       89.8210   33.2890  122.7460 C.ar  246  TRP246      0.0152
     98  NE1       91.9500   32.7380  123.1710 N.ar  246  TRP246     -0.2442
     99  CE2       90.9900   32.7320  122.1900 C.ar  246  TRP246      0.0810
    100  CE3       88.6790   33.3980  121.9440 C.ar  246  TRP246      0.0012
    101  CZ2       91.0550   32.2900  120.8700 C.ar  246  TRP246      0.0191
    102  CZ3       88.7420   32.9520  120.6360 C.ar  246  TRP246      0.0001
    103  CH2       89.9210   32.4080  120.1110 C.ar  246  TRP246      0.0015
@<TRIPOS>BOND
     1    58    56   ar
     2    58    60   ar
     3    56    55   ar
     4    50    51    1
     5    60    59   ar
     6    55    54    1
     7    55    57   ar
     8    54    51    1
     9    51    52    1
    10    59    57   ar
    11    61    52   am
    12    61    62    1
    13    52    53    2
    14    67    66    1
    15    67    68    1
    16    65    62    1
    17    65    66    1
    18    62    63    1
    19    63    64    2
    20    39    37   ar
    21    39    38   ar
    22    37    35   ar
    23    69    70    1
    24    38    36   ar
    25    35    34   ar
    26    49    48    1
    27    73    70    1
    28    73    74    1
    29    70    71    1
    30    71    72    2
    31    76    74    1
    32    36    34   ar
    33    34    33    1
    34    47    46    2
    35    45    48    1
    36    45    44    1
    37    45    46    1
    38    74    75    1
    39    33    30    1
    40    32    31    2
    41   103   102   ar
    42   103   101   ar
    43    30    31    1
    44    30    29    1
    45    80    79    2
    46   102   100   ar
    47    31    40   am
    48   101    99   ar
    49    79    78    1
    50    79    84   am
    51     7     5    1
    52    78    81    1
    53    78    77    1
    54    83    81    1
    55    81    82    1
    56    40    41    1
    57     6     5    1
    58   100    97   ar
    59    43    42    2
    60    41    42    1
    61    99    97   ar
    62    99    98   ar
    63     5     2    1
    64    88    85    1
    65    88    89    1
    66    84    85    1
    67    85    86    1
    68    97    95   ar
    69    98    96   ar
    70     2     1    1
    71     2     3    1
    72    86    90   am
    73    86    87    2
    74    95    96   ar
    75    95    94    1
    76    90    91    1
    77     3     4    2
    78    16    14   ar
    79    16    17   ar
    80    14    13   ar
    81    28    26    1
    82    94    91    1
    83    91    92    1
    84    13    12    1
    85    13    15   ar
    86    17    19   ar
    87    17    15   ar
    88    12     9    1
    89    19    21   ar
    90    92    93    2
    91    26    23    1
    92    26    27    1
    93    15    18   ar
    94    23    22    1
    95    23    24    1
    96    21    20   ar
    97    22    10   am
    98    18    20   ar
    99     9    10    1
   100     9     8    1
   101    10    11    2
   102    24    25    2
