@<TRIPOS>MOLECULE
tmp/4zr1A06.pdb
 100 98 0 0 0
SMALL
GASTEIGER

@<TRIPOS>ATOM
      1  N         80.1670   58.2690  118.8260 N.3    89  TRP89      -0.1241
      2  CA        81.3770   58.3380  119.6470 C.3    89  TRP89       0.1605
      3  C         82.6990   58.5080  118.9070 C.2    89  TRP89       0.2264
      4  O         83.6420   59.0680  119.4640 O.2    89  TRP89      -0.2867
      5  CB        81.4380   57.1030  120.5390 C.3    89  TRP89       0.0550
      6  CG        80.2390   57.0350  121.4520 C.ar   89  TRP89       0.0003
      7  CD1       79.3380   56.0140  121.5500 C.ar   89  TRP89       0.0946
      8  CD2       79.7920   58.0500  122.3630 C.ar   89  TRP89       0.0152
      9  NE1       78.3740   56.3200  122.4800 N.ar   89  TRP89      -0.2442
     10  CE2       78.6260   57.5640  122.9890 C.ar   89  TRP89       0.0810
     11  CE3       80.2690   59.3170  122.7150 C.ar   89  TRP89       0.0012
     12  CZ2       77.9320   58.2950  123.9440 C.ar   89  TRP89       0.0191
     13  CZ3       79.5830   60.0420  123.6610 C.ar   89  TRP89       0.0001
     14  CH2       78.4230   59.5300  124.2680 C.ar   89  TRP89       0.0015
     15  N         83.9520   61.9080  119.0590 N.3    92  VAL92      -0.1245
     16  CA        84.5660   62.2440  120.3340 C.3    92  VAL92       0.1561
     17  C         85.9970   61.6800  120.3760 C.2    92  VAL92       0.2260
     18  O         86.9100   62.3500  120.8450 O.2    92  VAL92      -0.2867
     19  CB        83.7220   61.7280  121.5290 C.3    92  VAL92       0.0252
     20  CG1       84.4320   61.9990  122.8390 C.3    92  VAL92       0.0019
     21  CG2       82.3560   62.4150  121.5380 C.3    92  VAL92       0.0019
     22  N         89.3450   64.2700  120.8500 N.3    96  HIS96      -0.1241
     23  CA        90.2940   64.1430  121.9540 C.3    96  HIS96       0.1621
     24  C         91.6880   63.7500  121.4690 C.2    96  HIS96       0.2264
     25  O         92.6900   64.2100  122.0100 O.2    96  HIS96      -0.2867
     26  CB        89.7990   63.1310  122.9800 C.3    96  HIS96       0.0745
     27  CG        88.6870   63.6400  123.8440 C.ar   96  HIS96       0.0817
     28  ND1       87.3800   63.6980  123.4150 N.ar   96  HIS96      -0.2268
     29  CD2       88.6870   64.1040  125.1170 C.ar   96  HIS96       0.1154
     30  CE1       86.6230   64.1820  124.3840 C.ar   96  HIS96       0.1986
     31  NE2       87.3900   64.4310  125.4300 N.ar   96  HIS96      -0.2212
     32  N         75.4030   54.6620  128.2220 N.3   172  PHE172     -0.1227
     33  CA        76.8560   54.6750  128.1040 C.3   172  PHE172      0.1736
     34  C         77.4660   55.8800  128.8350 C.2   172  PHE172      0.2595
     35  O         78.4870   55.7570  129.5170 O.2   172  PHE172     -0.2718
     36  CB        77.3030   54.6730  126.6460 C.3   172  PHE172      0.0547
     37  CG        78.7910   54.8200  126.4960 C.ar  172  PHE172     -0.0202
     38  CD1       79.6310   53.7440  126.7520 C.ar  172  PHE172     -0.0042
     39  CD2       79.3560   56.0410  126.1580 C.ar  172  PHE172     -0.0042
     40  CE1       81.0020   53.8780  126.6640 C.ar  172  PHE172     -0.0003
     41  CE2       80.7340   56.1800  126.0600 C.ar  172  PHE172     -0.0003
     42  CZ        81.5560   55.0990  126.3170 C.ar  172  PHE172     -0.0000
     43  N         76.8210   57.0330  128.7020 N.am  173  VAL173     -0.1980
     44  CA        77.2720   58.2640  129.3400 C.3   173  VAL173      0.1595
     45  C         77.3620   58.1440  130.8690 C.2   173  VAL173      0.2287
     46  O         78.3330   58.5920  131.4800 O.2   173  VAL173     -0.2864
     47  CB        76.3390   59.4250  128.9610 C.3   173  VAL173      0.0276
     48  CG1       76.6470   60.6610  129.7860 C.3   173  VAL173      0.0022
     49  CG2       76.4440   59.7110  127.4630 C.3   173  VAL173      0.0022
     50  N         80.4290   55.7790  131.5270 N.3   176  CYS176     -0.1221
     51  CA        81.6810   56.3350  131.0610 C.3   176  CYS176      0.1808
     52  C         82.1390   57.5030  131.9180 C.2   176  CYS176      0.2601
     53  O         83.3350   57.7010  132.1130 O.2   176  CYS176     -0.2717
     54  CB        81.5370   56.7800  129.6070 C.3   176  CYS176      0.0970
     55  SG        83.0610   57.3390  128.8820 S.3   176  CYS176     -0.0800
     56  N         81.1790   58.2720  132.4250 N.am  177  ALA177     -0.1979
     57  CA        81.4720   59.5250  133.1170 C.3   177  ALA177      0.1597
     58  C         82.4850   59.3700  134.2600 C.2   177  ALA177      0.2287
     59  O         83.4280   60.1590  134.3420 O.2   177  ALA177     -0.2864
     60  CB        80.1900   60.1500  133.6210 C.3   177  ALA177      0.0319
     61  N         85.9530   58.9630  132.6860 N.3   180  TYR180     -0.1227
     62  CA        86.4250   60.2140  132.1060 C.3   180  TYR180      0.1736
     63  C         87.0260   61.1230  133.1710 C.2   180  TYR180      0.2595
     64  O         88.0910   61.7060  132.9760 O.2   180  TYR180     -0.2718
     65  CB        85.2740   60.9270  131.3900 C.3   180  TYR180      0.0548
     66  CG        85.6440   62.2370  130.7360 C.ar  180  TYR180     -0.0200
     67  CD1       86.1250   62.2660  129.4350 C.ar  180  TYR180     -0.0009
     68  CD2       85.5060   63.4470  131.4120 C.ar  180  TYR180     -0.0009
     69  CE1       86.4520   63.4660  128.8200 C.ar  180  TYR180      0.0417
     70  CE2       85.8450   64.6570  130.8020 C.ar  180  TYR180      0.0417
     71  CZ        86.3150   64.6560  129.5070 C.ar  180  TYR180      0.1957
     72  OH        86.6540   65.8410  128.8810 O.3   180  TYR180     -0.2866
     73  N         86.3390   61.2360  134.3000 N.am  181  LYS181     -0.1980
     74  CA        86.8300   62.0360  135.4120 C.3   181  LYS181      0.1596
     75  C         88.1140   61.4570  136.0060 C.2   181  LYS181      0.2287
     76  O         89.0430   62.1980  136.3370 O.2   181  LYS181     -0.2864
     77  CB        85.7470   62.1660  136.4890 C.3   181  LYS181      0.0298
     78  CG        84.4640   62.8040  135.9550 C.3   181  LYS181      0.0038
     79  CD        83.3290   62.7640  136.9650 C.3   181  LYS181      0.0206
     80  CE        82.0630   63.3700  136.3790 C.3   181  LYS181      0.1093
     81  NZ        81.2170   63.9890  137.4310 N.3   181  LYS181     -0.1314
     82  N         92.1800   58.7810  126.8880 N.3   196  PHE196     -0.1241
     83  CA        90.7350   58.6420  126.8270 C.3   196  PHE196      0.1605
     84  C         90.2690   58.3460  125.4040 C.2   196  PHE196      0.2264
     85  O         89.3430   57.5560  125.2070 O.2   196  PHE196     -0.2867
     86  CB        90.0280   59.9010  127.3420 C.3   196  PHE196      0.0534
     87  CG        88.5370   59.8290  127.2400 C.ar  196  PHE196     -0.0203
     88  CD1       87.8090   59.0220  128.1120 C.ar  196  PHE196     -0.0042
     89  CD2       87.8570   60.5470  126.2660 C.ar  196  PHE196     -0.0042
     90  CE1       86.4200   58.9380  128.0200 C.ar  196  PHE196     -0.0003
     91  CE2       86.4640   60.4720  126.1720 C.ar  196  PHE196     -0.0003
     92  CZ        85.7510   59.6600  127.0480 C.ar  196  PHE196     -0.0000
     93  N         88.0220   55.0800  124.5720 N.3   200  LEU200     -0.1245
     94  CA        86.7260   55.2800  123.9440 C.3   200  LEU200      0.1561
     95  C         86.6500   54.5260  122.6130 C.2   200  LEU200      0.2260
     96  O         85.6280   53.8860  122.3190 O.2   200  LEU200     -0.2867
     97  CB        86.4480   56.7700  123.7410 C.3   200  LEU200      0.0270
     98  CG        85.0690   57.0960  123.1710 C.3   200  LEU200      0.0019
     99  CD1       83.9980   56.5540  124.0750 C.3   200  LEU200      0.0001
    100  CD2       84.9200   58.5850  123.0090 C.3   200  LEU200      0.0001
@<TRIPOS>BOND
     1     1     2    1
     2     3     4    2
     3     3     2    1
     4    15    16    1
     5     2     5    1
     6    16    17    1
     7    16    19    1
     8    17    18    2
     9     5     6    1
    10    22    23    1
    11     6     7   ar
    12     6     8   ar
    13    24    23    1
    14    24    25    2
    15    19    21    1
    16    19    20    1
    17     7     9   ar
    18    23    26    1
    19    96    95    2
    20     8    11   ar
    21     8    10   ar
    22     9    10   ar
    23    95    94    1
    24    11    13   ar
    25    26    27    1
    26    10    12   ar
    27   100    98    1
    28    98    97    1
    29    98    99    1
    30    28    27   ar
    31    28    30   ar
    32    13    14   ar
    33    97    94    1
    34    27    29   ar
    35    12    14   ar
    36    94    93    1
    37    30    31   ar
    38    29    31   ar
    39    85    84    2
    40    84    83    1
    41    41    39   ar
    42    41    42   ar
    43    39    37   ar
    44    91    89   ar
    45    91    92   ar
    46    89    87   ar
    47    42    40   ar
    48    37    36    1
    49    37    38   ar
    50    36    33    1
    51    40    38   ar
    52    83    82    1
    53    83    86    1
    54    92    90   ar
    55    87    86    1
    56    87    88   ar
    57    49    47    1
    58    90    88   ar
    59    33    32    1
    60    33    34    1
    61    43    34   am
    62    43    44    1
    63    69    67   ar
    64    69    71   ar
    65    34    35    2
    66    72    71    1
    67    55    54    1
    68    47    44    1
    69    47    48    1
    70    44    45    1
    71    67    66   ar
    72    71    70   ar
    73    54    51    1
    74    66    65    1
    75    66    68   ar
    76    70    68   ar
    77    45    46    2
    78    51    50    1
    79    51    52    1
    80    65    62    1
    81    52    53    2
    82    52    56   am
    83    62    61    1
    84    62    63    1
    85    56    57    1
    86    64    63    2
    87    57    60    1
    88    57    58    1
    89    63    73   am
    90    58    59    2
    91    73    74    1
    92    74    75    1
    93    74    77    1
    94    78    77    1
    95    78    79    1
    96    75    76    2
    97    80    79    1
    98    80    81    1
