@<TRIPOS>MOLECULE
tmp/4zr1B04.pdb
 92 90 0 0 0
SMALL
GASTEIGER

@<TRIPOS>ATOM
      1  N         76.2610   72.6720  123.1890 N.3    82  TRP82      -0.1241
      2  CA        75.6900   73.1370  121.9290 C.3    82  TRP82       0.1605
      3  C         76.0950   72.2840  120.7180 C.2    82  TRP82       0.2264
      4  O         75.3130   72.1230  119.7880 O.2    82  TRP82      -0.2867
      5  CB        76.1040   74.5870  121.6850 C.3    82  TRP82       0.0550
      6  CG        77.5750   74.7430  121.4680 C.ar   82  TRP82       0.0003
      7  CD1       78.5240   74.9650  122.4160 C.ar   82  TRP82       0.0946
      8  CD2       78.2690   74.6730  120.2150 C.ar   82  TRP82       0.0152
      9  NE1       79.7680   75.0400  121.8370 N.ar   82  TRP82      -0.2442
     10  CE2       79.6370   74.8690  120.4850 C.ar   82  TRP82       0.0810
     11  CE3       77.8640   74.4730  118.8940 C.ar   82  TRP82       0.0012
     12  CZ2       80.5980   74.8660  119.4850 C.ar   82  TRP82       0.0191
     13  CZ3       78.8210   74.4640  117.9070 C.ar   82  TRP82       0.0001
     14  CH2       80.1700   74.6590  118.2050 C.ar   82  TRP82       0.0015
     15  N         74.3880   69.3880  116.3150 N.3    86  PRO86      -0.2116
     16  CA        74.9500   69.1850  114.9750 C.3    86  PRO86       0.1372
     17  C         75.6060   67.8100  114.7890 C.2    86  PRO86       0.2244
     18  O         75.3090   67.1530  113.7910 O.2    86  PRO86      -0.2868
     19  CB        76.0150   70.2840  114.8600 C.3    86  PRO86       0.0268
     20  CG        75.6530   71.2990  115.8480 C.3    86  PRO86       0.0207
     21  CD        74.9420   70.5960  116.9600 C.3    86  PRO86       0.0892
     22  N         73.1680   65.8140  112.1340 N.3    90  LEU90      -0.1245
     23  CA        73.5810   66.0830  110.7680 C.3    90  LEU90       0.1561
     24  C         73.9700   64.8090  110.0080 C.2    90  LEU90       0.2260
     25  O         73.6640   64.7050  108.8280 O.2    90  LEU90      -0.2867
     26  CB        74.7360   67.0730  110.7380 C.3    90  LEU90       0.0270
     27  CG        74.4110   68.5350  111.0120 C.3    90  LEU90       0.0019
     28  CD1       75.6730   69.3880  110.8470 C.3    90  LEU90       0.0001
     29  CD2       73.2990   69.0020  110.0950 C.3    90  LEU90       0.0001
     30  N         74.4970   77.2490  129.7500 N.3   162  LYS162     -0.1245
     31  CA        74.8700   76.8290  128.3920 C.3   162  LYS162      0.1561
     32  C         74.6800   75.3120  128.1360 C.2   162  LYS162      0.2260
     33  O         74.5380   74.8960  126.9900 O.2   162  LYS162     -0.2867
     34  CB        76.3100   77.2900  128.0750 C.3   162  LYS162      0.0271
     35  CG        77.4150   76.7960  129.0120 C.3   162  LYS162      0.0035
     36  CD        78.7910   77.3600  128.6160 C.3   162  LYS162      0.0206
     37  CE        79.9210   76.8530  129.5360 C.3   162  LYS162      0.1093
     38  NZ        81.2900   77.3020  129.1130 N.3   162  LYS162     -0.1314
     39  N         67.8590   71.0450  113.6570 N.3   204  VAL204     -0.1245
     40  CA        69.2230   71.3580  114.0550 C.3   204  VAL204      0.1561
     41  C         69.4920   72.8530  113.8890 C.2   204  VAL204      0.2260
     42  O         70.1240   73.4860  114.7370 O.2   204  VAL204     -0.2867
     43  CB        70.2470   70.5510  113.2480 C.3   204  VAL204      0.0252
     44  CG1       71.6490   71.0250  113.5630 C.3   204  VAL204      0.0019
     45  CG2       70.1020   69.0660  113.5580 C.3   204  VAL204      0.0019
     46  N         70.6160   75.2470  117.1950 N.3   208  GLU208     -0.1245
     47  CA        71.8640   76.0030  117.1120 C.3   208  GLU208      0.1567
     48  C         71.5230   77.4790  117.1000 C.2   208  GLU208      0.2260
     49  O         72.1750   78.2920  117.7580 O.2   208  GLU208     -0.2867
     50  CB        72.6520   75.6170  115.8700 C.3   208  GLU208      0.0388
     51  CG        73.1260   74.1910  115.9280 C.3   208  GLU208      0.1160
     52  CD        73.8940   73.9050  117.1960 C.2   208  GLU208      0.3649
     53  OE1       75.0110   74.4350  117.3440 O.co2 208  GLU208     -0.2457
     54  OE2       73.3690   73.1710  118.0560 O.co2 208  GLU208     -0.2457
     55  N         70.3870   78.4290  120.6110 N.3   211  PHE211     -0.1227
     56  CA        71.5470   78.5300  121.4820 C.3   211  PHE211      0.1736
     57  C         72.2880   79.8470  121.3120 C.2   211  PHE211      0.2595
     58  O         72.5450   80.5520  122.2920 O.2   211  PHE211     -0.2718
     59  CB        72.5220   77.3690  121.2490 C.3   211  PHE211      0.0547
     60  CG        73.7120   77.4150  122.1480 C.ar  211  PHE211     -0.0202
     61  CD1       73.6310   76.9300  123.4480 C.ar  211  PHE211     -0.0042
     62  CD2       74.9100   77.9740  121.7160 C.ar  211  PHE211     -0.0042
     63  CE1       74.7270   76.9820  124.2910 C.ar  211  PHE211     -0.0003
     64  CE2       76.0170   78.0340  122.5630 C.ar  211  PHE211     -0.0003
     65  CZ        75.9250   77.5400  123.8460 C.ar  211  PHE211     -0.0000
     66  N         72.6400   80.1810  120.0790 N.am  212  PHE212     -0.1976
     67  CA        73.4770   81.3590  119.8660 C.3   212  PHE212      0.1639
     68  C         72.7030   82.6590  120.0480 C.2   212  PHE212      0.2290
     69  O         73.3000   83.7070  120.2560 O.2   212  PHE212     -0.2864
     70  CB        74.1440   81.2880  118.4940 C.3   212  PHE212      0.0560
     71  CG        75.1660   80.1940  118.4080 C.ar  212  PHE212     -0.0200
     72  CD1       76.3090   80.2420  119.2000 C.ar  212  PHE212     -0.0042
     73  CD2       74.9710   79.1010  117.5820 C.ar  212  PHE212     -0.0042
     74  CE1       77.2420   79.2260  119.1540 C.ar  212  PHE212     -0.0003
     75  CE2       75.9020   78.0790  117.5270 C.ar  212  PHE212     -0.0003
     76  CZ        77.0370   78.1390  118.3140 C.ar  212  PHE212     -0.0000
     77  N         73.6810   83.1600  123.5520 N.3   215  HIS215     -0.1226
     78  CA        75.0880   83.1210  123.9470 C.3   215  HIS215      0.1752
     79  C         76.0800   83.7750  122.9940 C.2   215  HIS215      0.2596
     80  O         77.2880   83.5850  123.1380 O.2   215  HIS215     -0.2718
     81  CB        75.5160   81.6670  124.1780 C.3   215  HIS215      0.0759
     82  CG        74.9110   81.0560  125.4030 C.ar  215  HIS215      0.0818
     83  ND1       73.6960   80.4050  125.3910 N.ar  215  HIS215     -0.2268
     84  CD2       75.3390   81.0280  126.6860 C.ar  215  HIS215      0.1154
     85  CE1       73.4090   79.9890  126.6100 C.ar  215  HIS215      0.1986
     86  NE2       74.3930   80.3490  127.4140 N.ar  215  HIS215     -0.2212
     87  N         75.5950   84.5570  122.0400 N.am  216  SER216     -0.1952
     88  CA        76.5140   85.2220  121.1240 C.3   216  SER216      0.1924
     89  C         75.9930   86.5570  120.6210 C.2   216  SER216      0.2314
     90  O         74.7970   86.7160  120.3640 O.2   216  SER216     -0.2863
     91  CB        76.8310   84.3150  119.9300 C.3   216  SER216      0.2116
     92  OG        77.6260   83.2090  120.3260 O.3   216  SER216     -0.2180
@<TRIPOS>BOND
     1    25    24    2
     2    24    23    1
     3    29    27    1
     4    26    23    1
     5    26    27    1
     6    23    22    1
     7    28    27    1
     8    43    45    1
     9    43    44    1
    10    43    40    1
    11    39    40    1
    12    18    17    2
    13    41    40    1
    14    41    42    2
    15    17    16    1
    16    19    16    1
    17    19    20    1
    18    16    15    1
    19    20    21    1
    20    50    51    1
    21    50    47    1
    22    51    52    1
    23    15    21    1
    24    48    47    1
    25    48    49    2
    26    47    46    1
    27    52    53   ar
    28    52    54   ar
    29    75    73   ar
    30    75    76   ar
    31    73    71   ar
    32    13    14   ar
    33    13    11   ar
    34    14    12   ar
    35    76    74   ar
    36    71    70    1
    37    71    72   ar
    38    70    67    1
    39    11     8   ar
    40    74    72   ar
    41    12    10   ar
    42     4     3    2
    43    67    68    1
    44    67    66    1
    45    91    92    1
    46    91    88    1
    47    68    69    2
    48    66    57   am
    49     8    10   ar
    50     8     6   ar
    51    90    89    2
    52    10     9   ar
    53    55    56    1
    54    89    88    1
    55     3     2    1
    56    88    87    1
    57    59    56    1
    58    59    60    1
    59    57    56    1
    60    57    58    2
    61     6     5    1
    62     6     7   ar
    63     5     2    1
    64    62    60   ar
    65    62    64   ar
    66     9     7   ar
    67     2     1    1
    68    87    79   am
    69    60    61   ar
    70    64    65   ar
    71    79    80    2
    72    79    78    1
    73    61    63   ar
    74    77    78    1
    75    65    63   ar
    76    78    81    1
    77    81    82    1
    78    83    82   ar
    79    83    85   ar
    80    82    84   ar
    81    85    86   ar
    82    84    86   ar
    83    33    32    2
    84    34    31    1
    85    34    35    1
    86    32    31    1
    87    31    30    1
    88    36    35    1
    89    36    37    1
    90    38    37    1
