@<TRIPOS>MOLECULE
tmp/4zr1B01.pdb
 130 131 0 0 0
SMALL
GASTEIGER

@<TRIPOS>ATOM
      1  N         75.4210   63.6650  134.5370 N.3    76  PRO76      -0.2102
      2  CA        75.9380   63.8270  133.1720 C.3    76  PRO76       0.1504
      3  C         74.8640   63.9090  132.0940 C.2    76  PRO76       0.2575
      4  O         74.9650   64.7710  131.2270 O.2    76  PRO76      -0.2718
      5  CB        76.8030   62.5830  132.9930 C.3    76  PRO76       0.0282
      6  CG        77.3780   62.3820  134.3570 C.3    76  PRO76       0.0208
      7  CD        76.2420   62.7040  135.3040 C.3    76  PRO76       0.0893
      8  N         73.8390   63.0700  132.1760 N.am   77  LEU77      -0.1980
      9  CA        72.7380   63.0810  131.2140 C.3    77  LEU77       0.1596
     10  C         72.0340   64.4280  131.0540 C.2    77  LEU77       0.2287
     11  O         71.3450   64.6670  130.0580 O.2    77  LEU77      -0.2864
     12  CB        71.7110   62.0360  131.6180 C.3    77  LEU77       0.0297
     13  CG        72.1210   60.6250  131.2470 C.3    77  LEU77       0.0022
     14  CD1       71.0800   59.6520  131.7400 C.3    77  LEU77       0.0001
     15  CD2       72.2740   60.5570  129.7330 C.3    77  LEU77       0.0001
     16  N         73.4740   67.3900  130.9800 N.3    79  LYS79      -0.1231
     17  CA        74.3360   68.4440  130.4680 C.3    79  LYS79       0.1693
     18  C         74.6000   68.2310  128.9840 C.2    79  LYS79       0.2593
     19  O         75.3080   67.3130  128.6020 O.2    79  LYS79      -0.2718
     20  CB        75.6440   68.4950  131.2660 C.3    79  LYS79       0.0285
     21  CG        75.4710   68.9300  132.7350 C.3    79  LYS79       0.0035
     22  CD        76.7590   69.5340  133.2720 C.3    79  LYS79       0.0206
     23  CE        76.6840   69.8430  134.7620 C.3    79  LYS79       0.1093
     24  NZ        76.7160   68.6290  135.6280 N.3    79  LYS79      -0.1314
     25  N         74.0110   69.0710  128.1410 N.am   80  THR80      -0.1939
     26  CA        74.1600   68.9110  126.6990 C.3    80  THR80       0.2028
     27  C         74.8050   70.1500  126.0920 C.2    80  THR80       0.2642
     28  O         74.2010   71.2220  126.0590 O.2    80  THR80      -0.2714
     29  CB        72.8090   68.6400  126.0160 C.3    80  THR80       0.1808
     30  OG1       72.1800   67.5170  126.6490 O.3    80  THR80      -0.2208
     31  CG2       73.0160   68.3200  124.5440 C.3    80  THR80       0.0379
     32  N         76.0390   70.0020  125.6180 N.am   81  ALA81      -0.1977
     33  CA        76.7250   71.1150  124.9740 C.3    81  ALA81       0.1597
     34  C         76.0560   71.4440  123.6490 C.2    81  ALA81       0.2287
     35  O         75.3740   70.6020  123.0560 O.2    81  ALA81      -0.2864
     36  CB        78.1960   70.7910  124.7660 C.3    81  ALA81       0.0319
     37  N         77.3160   71.7490  120.7160 N.3    83  TRP83      -0.1227
     38  CA        77.7970   71.0050  119.5480 C.3    83  TRP83       0.1737
     39  C         77.1670   69.6210  119.4230 C.2    83  TRP83       0.2595
     40  O         77.2730   68.9840  118.3730 O.2    83  TRP83      -0.2718
     41  CB        79.3290   70.8690  119.5710 C.3    83  TRP83       0.0564
     42  CG        79.9160   70.4990  120.9050 C.ar   83  TRP83       0.0003
     43  CD1       80.4120   71.3600  121.8420 C.ar   83  TRP83       0.0946
     44  CD2       80.0940   69.1790  121.4410 C.ar   83  TRP83       0.0152
     45  NE1       80.8790   70.6610  122.9250 N.ar   83  TRP83      -0.2442
     46  CE2       80.6930   69.3220  122.7120 C.ar   83  TRP83       0.0810
     47  CE3       79.8010   67.8950  120.9760 C.ar   83  TRP83       0.0012
     48  CZ2       81.0130   68.2240  123.5260 C.ar   83  TRP83       0.0191
     49  CZ3       80.1130   66.7970  121.7910 C.ar   83  TRP83       0.0001
     50  CH2       80.7110   66.9700  123.0460 C.ar   83  TRP83       0.0015
     51  N         76.5130   69.1610  120.4850 N.am   84  VAL84      -0.1980
     52  CA        75.9540   67.8160  120.5020 C.3    84  VAL84       0.1595
     53  C         74.9060   67.6410  119.4080 C.2    84  VAL84       0.2287
     54  O         74.8690   66.6210  118.7190 O.2    84  VAL84      -0.2864
     55  CB        75.3500   67.4840  121.8890 C.3    84  VAL84       0.0276
     56  CG1       74.4720   66.2570  121.8150 C.3    84  VAL84       0.0022
     57  CG2       76.4680   67.2630  122.9050 C.3    84  VAL84       0.0022
     58  N         75.3270   64.9010  116.4810 N.3    88  ALA88      -0.1231
     59  CA        74.4230   63.7600  116.5690 C.3    88  ALA88       0.1694
     60  C         73.5270   63.6110  115.3370 C.2    88  ALA88       0.2592
     61  O         73.3320   62.4960  114.8650 O.2    88  ALA88      -0.2718
     62  CB        73.5590   63.8520  117.8180 C.3    88  ALA88       0.0304
     63  N         72.9830   64.7130  114.8110 N.am   89  TRP89      -0.1976
     64  CA        71.8880   64.6080  113.8350 C.3    89  TRP89       0.1640
     65  C         72.1960   64.9460  112.3720 C.2    89  TRP89       0.2290
     66  O         71.5290   64.4320  111.4610 O.2    89  TRP89      -0.2864
     67  CB        70.7170   65.4680  114.3140 C.3    89  TRP89       0.0576
     68  CG        70.3180   65.0440  115.6820 C.ar   89  TRP89       0.0006
     69  CD1       70.4140   65.7750  116.8260 C.ar   89  TRP89       0.0946
     70  CD2       69.8230   63.7560  116.0670 C.ar   89  TRP89       0.0152
     71  NE1       69.9820   65.0350  117.8980 N.ar   89  TRP89      -0.2442
     72  CE2       69.6140   63.7890  117.4620 C.ar   89  TRP89       0.0810
     73  CE3       69.5320   62.5760  115.3680 C.ar   89  TRP89       0.0012
     74  CZ2       69.1290   62.6920  118.1790 C.ar   89  TRP89       0.0191
     75  CZ3       69.0340   61.4840  116.0830 C.ar   89  TRP89       0.0001
     76  CH2       68.8410   61.5530  117.4740 C.ar   89  TRP89       0.0015
     77  N         74.6330   63.8310  110.6660 N.3    91  PRO91      -0.2102
     78  CA        74.8810   62.6060  109.8850 C.3    91  PRO91       0.1504
     79  C         73.5950   61.8650  109.5140 C.2    91  PRO91       0.2575
     80  O         73.5150   61.2770  108.4390 O.2    91  PRO91      -0.2718
     81  CB        75.7480   61.7580  110.8230 C.3    91  PRO91       0.0282
     82  CG        76.4320   62.7690  111.6970 C.3    91  PRO91       0.0208
     83  CD        75.3740   63.8110  111.9420 C.3    91  PRO91       0.0893
     84  N         72.5980   61.9070  110.3880 N.am   92  VAL92      -0.1980
     85  CA        71.2940   61.3550  110.0620 C.3    92  VAL92       0.1595
     86  C         70.6420   62.1410  108.9070 C.2    92  VAL92       0.2287
     87  O         70.0130   61.5510  108.0310 O.2    92  VAL92      -0.2864
     88  CB        70.3620   61.3480  111.3010 C.3    92  VAL92       0.0276
     89  CG1       69.0400   60.6720  110.9720 C.3    92  VAL92       0.0022
     90  CG2       71.0400   60.6400  112.4600 C.3    92  VAL92       0.0022
     91  N         74.5930   74.5030  129.1920 N.3   163  TYR163     -0.1241
     92  CA        74.3770   73.0580  129.0360 C.3   163  TYR163      0.1605
     93  C         72.9390   72.6000  129.2430 C.2   163  TYR163      0.2264
     94  O         72.6550   71.3980  129.2390 O.2   163  TYR163     -0.2867
     95  CB        75.2870   72.2820  129.9860 C.3   163  TYR163      0.0534
     96  CG        76.7420   72.5350  129.6860 C.ar  163  TYR163     -0.0201
     97  CD1       77.3650   71.9510  128.5860 C.ar  163  TYR163     -0.0009
     98  CD2       77.4900   73.3650  130.4910 C.ar  163  TYR163     -0.0009
     99  CE1       78.6970   72.1940  128.3130 C.ar  163  TYR163      0.0417
    100  CE2       78.8010   73.6170  130.2210 C.ar  163  TYR163      0.0417
    101  CZ        79.4070   73.0280  129.1410 C.ar  163  TYR163      0.1957
    102  OH        80.7290   73.2870  128.8880 O.3   163  TYR163     -0.2866
    103  N         68.6100   67.5760  124.9330 N.3   168  PRO168     -0.2103
    104  CA        69.3210   66.3130  125.0920 C.3   168  PRO168      0.1489
    105  C         68.8170   65.2870  124.0800 C.2   168  PRO168      0.2418
    106  O         67.6040   65.1820  123.8880 O.2   168  PRO168     -0.2734
    107  CB        68.9820   65.8910  126.5360 C.3   168  PRO168      0.0282
    108  CG        67.9100   66.7690  126.9800 C.3   168  PRO168      0.0208
    109  CD        68.0070   68.0320  126.1920 C.3   168  PRO168      0.0893
    110  N         69.7300   64.5620  123.4120 N.am  169  PRO169     -0.2718
    111  CA        69.2520   63.6090  122.4080 C.3   169  PRO169      0.1535
    112  C         68.2560   62.5830  122.9710 C.2   169  PRO169      0.2599
    113  O         67.3450   62.1520  122.2540 O.2   169  PRO169     -0.2715
    114  CB        70.5430   62.9410  121.9210 C.3   169  PRO169      0.0310
    115  CG        71.5980   64.0040  122.0860 C.3   169  PRO169      0.0237
    116  CD        71.1900   64.7790  123.3330 C.3   169  PRO169      0.0939
    117  N         68.4060   62.2290  124.2380 N.am  170  THR170     -0.1951
    118  CA        67.4580   61.3620  124.9440 C.3   170  THR170      0.1897
    119  C         66.0100   61.8500  124.8530 C.2   170  THR170      0.2313
    120  O         65.1130   61.1070  124.4470 O.2   170  THR170     -0.2863
    121  CB        67.8450   61.2510  126.4190 C.3   170  THR170      0.1794
    122  OG1       69.2070   60.8140  126.5150 O.3   170  THR170     -0.2208
    123  CG2       66.9330   60.2720  127.1490 C.3   170  THR170      0.0378
    124  N         64.7070   62.2310  120.9530 N.3   173  VAL173     -0.1245
    125  CA        64.2700   60.9980  120.3140 C.3   173  VAL173      0.1561
    126  C         62.8140   60.6610  120.6400 C.2   173  VAL173      0.2260
    127  O         62.0510   60.2620  119.7600 O.2   173  VAL173     -0.2867
    128  CB        65.1790   59.8350  120.7190 C.3   173  VAL173      0.0252
    129  CG1       64.4690   58.5130  120.5290 C.3   173  VAL173      0.0019
    130  CG2       66.4650   59.8830  119.9030 C.3   173  VAL173      0.0019
@<TRIPOS>BOND
     1    87    86    2
     2    80    79    2
     3    86    85    1
     4    79    78    1
     5    79    84   am
     6    78    77    1
     7    78    81    1
     8    85    84    1
     9    85    88    1
    10    77    83    1
    11    81    82    1
    12    89    88    1
    13    88    90    1
    14    66    65    2
    15    82    83    1
    16    65    64    1
    17    64    67    1
    18    64    63    1
    19    67    68    1
    20    63    60   am
    21    61    60    2
    22    60    59    1
    23    73    70   ar
    24    73    75   ar
    25    68    70   ar
    26    68    69   ar
    27    70    72   ar
    28    75    76   ar
    29    58    59    1
    30    59    62    1
    31    69    71   ar
    32    72    71   ar
    33    72    74   ar
    34    76    74   ar
    35    40    39    2
    36    54    53    2
    37    53    52    1
    38    39    38    1
    39    39    51   am
    40    38    41    1
    41    38    37    1
    42    41    42    1
    43   127   126    2
    44   130   128    1
    45   125   126    1
    46   125   128    1
    47   125   124    1
    48    51    52    1
    49    52    55    1
    50   129   128    1
    51    42    44   ar
    52    42    43   ar
    53    47    44   ar
    54    47    49   ar
    55    44    46   ar
    56    49    50   ar
    57    56    55    1
    58    43    45   ar
    59    55    57    1
    60   114   115    1
    61   114   111    1
    62   115   116    1
    63   113   112    2
    64   111   112    1
    65   111   110    1
    66    46    45   ar
    67    46    48   ar
    68   112   117   am
    69    50    48   ar
    70    35    34    2
    71   116   110    1
    72   110   105   am
    73    34    33    1
    74   106   105    2
    75   105   104    1
    76   117   118    1
    77   120   119    2
    78    31    29    1
    79    36    33    1
    80   119   118    1
    81   103   104    1
    82   103   109    1
    83   118   121    1
    84    33    32    1
    85   104   107    1
    86    32    27   am
    87    29    30    1
    88    29    26    1
    89    28    27    2
    90    27    26    1
    91   109   108    1
    92   121   122    1
    93   121   123    1
    94   107   108    1
    95    26    25    1
    96    25    18   am
    97    99    97   ar
    98    99   101   ar
    99    97    96   ar
   100    19    18    2
   101   102   101    1
   102    18    17    1
   103    92    91    1
   104    92    93    1
   105    92    95    1
   106   101   100   ar
   107    94    93    2
   108    96    95    1
   109    96    98   ar
   110    15    13    1
   111    11    10    2
   112   100    98   ar
   113    17    16    1
   114    17    20    1
   115    10     9    1
   116     9    12    1
   117     9     8    1
   118     4     3    2
   119    13    12    1
   120    13    14    1
   121    20    21    1
   122     3     8   am
   123     3     2    1
   124    21    22    1
   125     5     2    1
   126     5     6    1
   127     2     1    1
   128    22    23    1
   129     6     7    1
   130     1     7    1
   131    23    24    1
