@<TRIPOS>MOLECULE
tmp/4zrbA01.pdb
 74 71 0 0 0
SMALL
GASTEIGER

@<TRIPOS>ATOM
      1  N        -17.3000   26.3760   -1.3420 N.3    49  ASP49      -0.1239
      2  CA       -15.8850   26.5810   -1.6610 C.3    49  ASP49       0.1674
      3  C        -15.0190   26.5580   -0.4050 C.2    49  ASP49       0.2266
      4  O        -13.9550   25.9260   -0.3760 O.2    49  ASP49      -0.2867
      5  CB       -15.6990   27.9080   -2.4050 C.3    49  ASP49       0.1410
      6  CG       -14.2430   28.2080   -2.7180 C.2    49  ASP49       0.3668
      7  OD1      -13.6700   27.5500   -3.6120 O.co2  49  ASP49      -0.2456
      8  OD2      -13.6670   29.1030   -2.0670 O.co2  49  ASP49      -0.2456
      9  N         -3.8940   24.2010   -0.8410 N.3    63  GLY63      -0.1210
     10  CA        -4.3720   24.2480   -2.2080 C.3    63  GLY63       0.1956
     11  C         -5.2830   25.4170   -2.5320 C.2    63  GLY63       0.2612
     12  O         -5.7300   26.1440   -1.6450 O.2    63  GLY63      -0.2717
     13  N         -5.5460   25.5900   -3.8250 N.am   64  VAL64      -0.1965
     14  CA        -6.3940   26.6600   -4.3380 C.3    64  VAL64       0.1727
     15  C         -7.4590   26.0660   -5.2560 C.2    64  VAL64       0.2617
     16  O         -7.2350   25.0290   -5.8860 O.2    64  VAL64      -0.2715
     17  CB        -5.5880   27.7230   -5.1120 C.3    64  VAL64       0.0290
     18  CG1       -4.5760   28.4000   -4.1990 C.3    64  VAL64       0.0023
     19  CG2       -4.9030   27.1010   -6.3210 C.3    64  VAL64       0.0023
     20  N         -8.6330   26.6850   -5.3000 N.am   65  THR65      -0.1937
     21  CA        -9.6830   26.2030   -6.1890 C.3    65  THR65       0.2028
     22  C         -9.2820   26.4400   -7.6450 C.2    65  THR65       0.2642
     23  O         -8.9760   27.5680   -8.0410 O.2    65  THR65      -0.2714
     24  CB       -11.0260   26.8900   -5.9170 C.3    65  THR65       0.1808
     25  OG1      -11.2910   26.8840   -4.5090 O.3    65  THR65      -0.2208
     26  CG2      -12.1510   26.1740   -6.6630 C.3    65  THR65       0.0379
     27  N         -9.2650   25.3660   -8.4290 N.am   66  LEU66      -0.1977
     28  CA        -8.9280   25.4450   -9.8470 C.3    66  LEU66       0.1596
     29  C        -10.1870   25.5940  -10.6860 C.2    66  LEU66       0.2287
     30  O        -10.2380   26.3980  -11.6140 O.2    66  LEU66      -0.2864
     31  CB        -8.1430   24.2020  -10.2850 C.3    66  LEU66       0.0297
     32  CG        -7.7790   24.0510  -11.7680 C.3    66  LEU66       0.0022
     33  CD1       -6.7990   25.1150  -12.2250 C.3    66  LEU66       0.0001
     34  CD2       -7.2210   22.6640  -12.0550 C.3    66  LEU66       0.0001
     35  N         -1.4400   16.4990   -7.9350 N.3    94  THR94      -0.1218
     36  CA        -1.4870   17.9240   -8.2070 C.3    94  THR94       0.1862
     37  C         -2.9100   18.4650   -8.1310 C.2    94  THR94       0.2287
     38  O         -3.1230   19.6660   -7.9510 O.2    94  THR94      -0.2866
     39  CB        -0.8900   18.2080   -9.6000 C.3    94  THR94       0.1770
     40  OG1        0.3390   17.4850   -9.7470 O.3    94  THR94      -0.2211
     41  CG2       -0.6410   19.6910   -9.8110 C.3    94  THR94       0.0375
     42  N         -9.5400   21.1010   -7.0450 N.3   117  MET117     -0.1230
     43  CA        -8.6020   21.8680   -6.2400 C.3   117  MET117      0.1702
     44  C         -7.1900   21.5810   -6.7170 C.2   117  MET117      0.2592
     45  O         -6.8480   20.4370   -7.0070 O.2   117  MET117     -0.2718
     46  CB        -8.7440   21.5070   -4.7610 C.3   117  MET117      0.0401
     47  CG       -10.1790   21.5350   -4.2530 C.3   117  MET117      0.0596
     48  SD       -10.8860   23.1910   -4.2310 S.3   117  MET117     -0.1393
     49  CE        -9.9320   23.9510   -2.9160 C.3   117  MET117      0.0692
     50  N         -6.3690   22.6220   -6.7850 N.am  118  PHE118     -0.1962
     51  CA        -4.9750   22.4750   -7.1780 C.3   118  PHE118      0.1771
     52  C         -4.0960   22.4010   -5.9340 C.2   118  PHE118      0.2619
     53  O         -4.0630   23.3410   -5.1460 O.2   118  PHE118     -0.2715
     54  CB        -4.5680   23.6530   -8.0690 C.3   118  PHE118      0.0574
     55  CG        -3.2180   23.5050   -8.7110 C.ar  118  PHE118     -0.0200
     56  CD1       -3.1040   22.9890   -9.9920 C.ar  118  PHE118     -0.0042
     57  CD2       -2.0670   23.9060   -8.0520 C.ar  118  PHE118     -0.0042
     58  CE1       -1.8680   22.8620  -10.5980 C.ar  118  PHE118     -0.0003
     59  CE2       -0.8280   23.7750   -8.6520 C.ar  118  PHE118     -0.0003
     60  CZ        -0.7290   23.2540   -9.9260 C.ar  118  PHE118     -0.0000
     61  N         -3.3730   21.2980   -5.7600 N.am  119  VAL119     -0.1963
     62  CA        -2.5480   21.1410   -4.5670 C.3   119  VAL119      0.1727
     63  C         -1.3020   22.0080   -4.7030 C.2   119  VAL119      0.2616
     64  O         -0.5390   21.8730   -5.6590 O.2   119  VAL119     -0.2715
     65  CB        -2.1450   19.6720   -4.3340 C.3   119  VAL119      0.0290
     66  CG1       -1.4330   19.5220   -3.0000 C.3   119  VAL119      0.0023
     67  CG2       -3.3670   18.7670   -4.3920 C.3   119  VAL119      0.0023
     68  N         -1.0950   22.8970   -3.7380 N.am  120  THR120     -0.1951
     69  CA         0.0020   23.8540   -3.8210 C.3   120  THR120      0.1897
     70  C          1.0760   23.5560   -2.7890 C.2   120  THR120      0.2313
     71  O          2.1440   24.1650   -2.8080 O.2   120  THR120     -0.2863
     72  CB        -0.4820   25.3100   -3.6380 C.3   120  THR120      0.1794
     73  OG1       -1.1550   25.4400   -2.3800 O.3   120  THR120     -0.2208
     74  CG2       -1.4230   25.7150   -4.7680 C.3   120  THR120      0.0378
@<TRIPOS>BOND
     1    33    32    1
     2    34    32    1
     3    32    31    1
     4    30    29    2
     5    29    28    1
     6    58    56   ar
     7    58    60   ar
     8    31    28    1
     9    56    55   ar
    10    60    59   ar
    11    28    27    1
    12    41    39    1
    13    40    39    1
    14    39    36    1
    15    55    54    1
    16    55    57   ar
    17    59    57   ar
    18    27    22   am
    19    36    37    1
    20    36    35    1
    21    37    38    2
    22    54    51    1
    23    23    22    2
    24    22    21    1
    25    51    50    1
    26    51    52    1
    27    42    43    1
    28    45    44    2
    29    50    44   am
    30    44    43    1
    31    26    24    1
    32    19    17    1
    33    43    46    1
    34    21    24    1
    35    21    20    1
    36    52    61   am
    37    52    53    2
    38    24    25    1
    39    16    15    2
    40    61    62    1
    41    64    63    2
    42    20    15   am
    43    15    14    1
    44    17    14    1
    45    17    18    1
    46    74    72    1
    47    46    47    1
    48    63    62    1
    49    63    68   am
    50    62    65    1
    51    67    65    1
    52    14    13    1
    53    65    66    1
    54    47    48    1
    55    48    49    1
    56    13    11   am
    57    69    68    1
    58    69    72    1
    59    69    70    1
    60    72    73    1
    61     7     6   ar
    62    71    70    2
    63     6     5    1
    64     6     8   ar
    65    11    10    1
    66    11    12    2
    67     5     2    1
    68    10     9    1
    69     2     1    1
    70     2     3    1
    71     3     4    2
