@<TRIPOS>MOLECULE
tmp/4zrbA00.pdb
 92 88 0 0 0
SMALL
GASTEIGER

@<TRIPOS>ATOM
      1  N        -29.9390   37.8280   -1.3580 N.3    34  ASN34      -0.1240
      2  CA       -29.9260   38.6520   -2.5590 C.3    34  ASN34       0.1653
      3  C        -31.0760   39.6580   -2.5400 C.2    34  ASN34       0.2266
      4  O        -31.8420   39.7020   -1.5720 O.2    34  ASN34      -0.2867
      5  CB       -29.9840   37.7610   -3.8110 C.3    34  ASN34       0.1155
      6  CG       -31.2310   36.8800   -3.8660 C.2    34  ASN34       0.2627
      7  OD1      -32.2590   37.1760   -3.2530 O.2    34  ASN34      -0.2716
      8  ND2      -31.1350   35.7800   -4.6080 N.am   34  ASN34      -0.0877
      9  N        -33.7570   39.5450   -3.9640 N.3    36  TYR36      -0.1241
     10  CA       -35.0680   38.9050   -4.0000 C.3    36  TYR36       0.1605
     11  C        -35.4180   38.3110   -2.6340 C.2    36  TYR36       0.2264
     12  O        -36.4790   37.7130   -2.4660 O.2    36  TYR36      -0.2867
     13  CB       -35.1160   37.7950   -5.0530 C.3    36  TYR36       0.0534
     14  CG       -34.8190   38.2300   -6.4740 C.ar   36  TYR36      -0.0201
     15  CD1      -35.6620   39.1010   -7.1550 C.ar   36  TYR36      -0.0009
     16  CD2      -33.7240   37.7130   -7.1560 C.ar   36  TYR36      -0.0009
     17  CE1      -35.3880   39.4840   -8.4640 C.ar   36  TYR36       0.0417
     18  CE2      -33.4500   38.0750   -8.4610 C.ar   36  TYR36       0.0417
     19  CZ       -34.2780   38.9640   -9.1110 C.ar   36  TYR36       0.1957
     20  OH       -33.9920   39.3230  -10.4100 O.3    36  TYR36      -0.2866
     21  N        -33.8130   35.8930   -1.0360 N.3    38  ASN38      -0.1225
     22  CA       -33.3480   34.5140   -0.8890 C.3    38  ASN38       0.1785
     23  C        -31.8370   34.4520   -0.7240 C.2    38  ASN38       0.2597
     24  O        -31.1390   35.3950   -1.0850 O.2    38  ASN38      -0.2718
     25  CB       -33.7750   33.6550   -2.0840 C.3    38  ASN38       0.1169
     26  CG       -35.2780   33.4730   -2.1640 C.2    38  ASN38       0.2627
     27  OD1      -35.9710   33.4820   -1.1480 O.2    38  ASN38      -0.2716
     28  ND2      -35.7860   33.2980   -3.3760 N.am   38  ASN38      -0.0877
     29  N        -31.3410   33.3520   -0.1660 N.am   39  ALA39      -0.1979
     30  CA       -29.9010   33.1340   -0.0460 C.3    39  ALA39       0.1597
     31  C        -29.2190   33.3070   -1.4000 C.2    39  ALA39       0.2287
     32  O        -29.5570   32.6300   -2.3690 O.2    39  ALA39      -0.2864
     33  CB       -29.6120   31.7490    0.5200 C.3    39  ALA39       0.0319
     34  N        -26.7780   33.2480   -4.5620 N.3    41  GLY41      -0.1225
     35  CA       -26.0590   32.1640   -5.2140 C.3    41  GLY41       0.1811
     36  C        -24.5870   32.1420   -4.8580 C.2    41  GLY41       0.2280
     37  O        -23.9810   31.0760   -4.6870 O.2    41  GLY41      -0.2866
     38  N        -24.1420   30.8000   -1.1970 N.3    44  LEU44      -0.1245
     39  CA       -24.2030   29.3390   -1.1570 C.3    44  LEU44       0.1561
     40  C        -22.9260   28.7270   -1.7300 C.2    44  LEU44       0.2260
     41  O        -22.3320   27.7950   -1.1420 O.2    44  LEU44      -0.2867
     42  CB       -25.4290   28.8330   -1.9270 C.3    44  LEU44       0.0270
     43  CG       -26.8080   29.1990   -1.3650 C.3    44  LEU44       0.0019
     44  CD1      -27.9150   28.7290   -2.2920 C.3    44  LEU44       0.0001
     45  CD2      -26.9990   28.6140    0.0270 C.3    44  LEU44       0.0001
     46  N        -28.0100   24.5680   -8.3080 N.3    72  TYR72      -0.1227
     47  CA       -28.8910   25.1010   -7.2820 C.3    72  TYR72       0.1736
     48  C        -30.2460   24.4110   -7.3930 C.2    72  TYR72       0.2595
     49  O        -30.9640   24.5780   -8.3780 O.2    72  TYR72      -0.2718
     50  CB       -29.0350   26.6140   -7.4320 C.3    72  TYR72       0.0548
     51  CG       -27.7350   27.3700   -7.2690 C.ar   72  TYR72      -0.0200
     52  CD1      -27.2670   27.7210   -6.0110 C.ar   72  TYR72      -0.0009
     53  CD2      -26.9670   27.7160   -8.3740 C.ar   72  TYR72      -0.0009
     54  CE1      -26.0800   28.4100   -5.8560 C.ar   72  TYR72       0.0417
     55  CE2      -25.7730   28.4020   -8.2270 C.ar   72  TYR72       0.0417
     56  CZ       -25.3370   28.7490   -6.9670 C.ar   72  TYR72       0.1957
     57  OH       -24.1570   29.4340   -6.8130 O.3    72  TYR72      -0.2866
     58  N        -30.6060   23.6640   -6.3570 N.am   73  LEU73      -0.1966
     59  CA       -31.7460   22.7600   -6.4250 C.3    73  LEU73       0.1728
     60  C        -32.9750   23.3410   -5.7430 C.2    73  LEU73       0.2616
     61  O        -34.0880   23.2220   -6.2460 O.2    73  LEU73      -0.2715
     62  CB       -31.3810   21.4140   -5.8010 C.3    73  LEU73       0.0311
     63  CG       -30.0550   20.8530   -6.3150 C.3    73  LEU73       0.0022
     64  CD1      -29.6380   19.6180   -5.5390 C.3    73  LEU73       0.0001
     65  CD2      -30.1640   20.5500   -7.8020 C.3    73  LEU73       0.0001
     66  N        -32.7640   23.9490   -4.5840 N.am   74  LYS74      -0.1963
     67  CA       -33.8500   24.5280   -3.8090 C.3    74  LYS74       0.1728
     68  C        -33.3750   25.8110   -3.1460 C.2    74  LYS74       0.2616
     69  O        -32.2560   25.8760   -2.6390 O.2    74  LYS74      -0.2715
     70  CB       -34.3480   23.5260   -2.7650 C.3    74  LYS74       0.0311
     71  CG       -35.3940   24.0520   -1.8020 C.3    74  LYS74       0.0038
     72  CD       -35.8310   22.9490   -0.8430 C.3    74  LYS74       0.0206
     73  CE       -36.7910   23.4690    0.2150 C.3    74  LYS74       0.1093
     74  NZ       -38.0830   23.9190   -0.3730 N.3    74  LYS74      -0.1314
     75  N        -34.2300   26.8270   -3.1490 N.am   75  ALA75      -0.1963
     76  CA       -33.8680   28.1250   -2.6010 C.3    75  ALA75       0.1728
     77  C        -33.5550   28.0400   -1.1110 C.2    75  ALA75       0.2617
     78  O        -34.2210   27.3200   -0.3650 O.2    75  ALA75      -0.2715
     79  CB       -34.9840   29.1320   -2.8500 C.3    75  ALA75       0.0334
     80  N        -32.5320   28.7770   -0.6900 N.am   76  GLY76      -0.1940
     81  CA       -32.2420   28.9470    0.7200 C.3    76  GLY76       0.2014
     82  C        -33.0030   30.1430    1.2570 C.2    76  GLY76       0.2638
     83  O        -33.1240   31.1620    0.5780 O.2    76  GLY76      -0.2714
     84  N        -33.5120   30.0170    2.4780 N.am   77  LYS77      -0.1977
     85  CA       -34.3310   31.0570    3.0900 C.3    77  LYS77       0.1596
     86  C        -33.7190   31.5820    4.3780 C.2    77  LYS77       0.2287
     87  O        -32.9300   30.8970    5.0250 O.2    77  LYS77      -0.2864
     88  CB       -35.7400   30.5320    3.3860 C.3    77  LYS77       0.0298
     89  CG       -36.5020   29.9760    2.1970 C.3    77  LYS77       0.0038
     90  CD       -36.8650   31.0820    1.2180 C.3    77  LYS77       0.0206
     91  CE       -37.8950   30.6070    0.2050 C.3    77  LYS77       0.1093
     92  NZ       -38.3160   31.7020   -0.7140 N.3    77  LYS77      -0.1314
@<TRIPOS>BOND
     1    20    19    1
     2    19    17   ar
     3    19    18   ar
     4    17    15   ar
     5    18    16   ar
     6    49    48    2
     7    53    55   ar
     8    53    51   ar
     9    46    47    1
    10    55    56   ar
    11    65    63    1
    12    50    47    1
    13    50    51    1
    14    48    47    1
    15    48    58   am
    16    51    52   ar
    17    16    14   ar
    18    15    14   ar
    19    56    57    1
    20    56    54   ar
    21    14    13    1
    22    59    58    1
    23    59    62    1
    24    59    60    1
    25    63    62    1
    26    63    64    1
    27    61    60    2
    28    52    54   ar
    29    60    66   am
    30    35    36    1
    31    35    34    1
    32    13    10    1
    33    36    37    2
    34     8     6   am
    35    66    67    1
    36    10     9    1
    37    10    11    1
    38     6     5    1
    39     6     7    2
    40     5     2    1
    41    67    68    1
    42    67    70    1
    43    28    26   am
    44    75    68   am
    45    75    76    1
    46    68    69    2
    47    79    76    1
    48    70    71    1
    49    11    12    2
    50    76    77    1
    51     2     3    1
    52     2     1    1
    53     3     4    2
    54    32    31    2
    55    44    43    1
    56    26    25    1
    57    26    27    2
    58    25    22    1
    59    42    43    1
    60    42    39    1
    61    71    72    1
    62    40    39    1
    63    40    41    2
    64    31    30    1
    65    43    45    1
    66    38    39    1
    67    77    80   am
    68    77    78    2
    69    24    23    2
    70    21    22    1
    71    22    23    1
    72    72    73    1
    73    23    29   am
    74    92    91    1
    75    80    81    1
    76    74    73    1
    77    29    30    1
    78    30    33    1
    79    91    90    1
    80    83    82    2
    81    81    82    1
    82    90    89    1
    83    82    84   am
    84    89    88    1
    85    84    85    1
    86    85    88    1
    87    85    86    1
    88    86    87    2
