@<TRIPOS>MOLECULE
tmp/4zreA00.pdb
 78 72 0 0 0
SMALL
GASTEIGER

@<TRIPOS>ATOM
      1  N          9.6720    6.6420   -4.4020 N.3   202  ARG202     -0.1245
      2  CA         8.8960    7.9120   -4.4820 C.3   202  ARG202      0.1563
      3  C          7.6240    7.9520   -3.6290 C.2   202  ARG202      0.2260
      4  O          6.8010    8.8540   -3.7680 O.2   202  ARG202     -0.2867
      5  CB         8.5700    8.2350   -5.9380 C.3   202  ARG202      0.0307
      6  CG         9.8450    8.4280   -6.7340 C.3   202  ARG202      0.0489
      7  CD         9.5740    8.6880   -8.1790 C.3   202  ARG202      0.2205
      8  NE         8.7950    9.8950   -8.4130 N.pl3 202  ARG202     -0.0865
      9  CZ         8.0370   10.1140   -9.4850 C.cat 202  ARG202      0.5346
     10  NH1        7.8900    9.1860  -10.4290 N.pl3 202  ARG202      0.1354
     11  NH2        7.3780   11.2570   -9.6230 N.pl3 202  ARG202      0.1354
     12  N         13.6180    3.2690   -6.2520 N.3   227  GLY227     -0.1210
     13  CA        12.5110    2.4440   -5.7990 C.3   227  GLY227      0.1956
     14  C         12.5740    1.0540   -6.4020 C.2   227  GLY227      0.2611
     15  O         12.8600    0.9220   -7.5870 O.2   227  GLY227     -0.2717
     16  N         12.3220    0.0230   -5.5790 N.am  228  ASN228     -0.1974
     17  CA        12.3620   -1.3690   -5.9570 C.3   228  ASN228      0.1688
     18  C         13.7700   -1.8980   -6.2350 C.2   228  ASN228      0.2292
     19  O         13.8510   -3.0290   -6.6260 O.2   228  ASN228     -0.2864
     20  CB        11.4600   -1.7200   -7.1420 C.3   228  ASN228      0.1181
     21  CG         9.9990   -1.3600   -6.9130 C.2   228  ASN228      0.2629
     22  OD1        9.5680   -1.1120   -5.7710 O.2   228  ASN228     -0.2716
     23  ND2        9.2240   -1.3310   -7.9870 N.am  228  ASN228     -0.0877
     24  N          5.5310   10.7700   -5.9240 N.3   250  GLU250     -0.1245
     25  CA         4.4560   10.4320   -6.8140 C.3   250  GLU250      0.1567
     26  C          3.1890   10.3760   -5.9420 C.2   250  GLU250      0.2260
     27  O          3.2720   10.0780   -4.7560 O.2   250  GLU250     -0.2867
     28  CB         4.7030    9.0700   -7.4850 C.3   250  GLU250      0.0388
     29  CG         4.7250    7.8810   -6.5020 C.3   250  GLU250      0.1160
     30  CD         5.2750    6.5690   -7.0990 C.2   250  GLU250      0.3649
     31  OE1        5.7180    6.5890   -8.2720 O.co2 250  GLU250     -0.2457
     32  OE2        5.3500    5.5360   -6.3870 O.co2 250  GLU250     -0.2457
     33  N          2.3750    3.1470   -6.1760 N.3   254  ASP254     -0.1225
     34  CA         3.2220    2.1740   -6.8810 C.3   254  ASP254      0.1805
     35  C          4.4420    1.7740   -6.0430 C.2   254  ASP254      0.2597
     36  O          4.5530    0.6170   -5.6530 O.2   254  ASP254     -0.2718
     37  CB         3.7020    2.7280   -8.2370 C.3   254  ASP254      0.1424
     38  CG         2.5730    2.8840   -9.2840 C.2   254  ASP254      0.3668
     39  OD1        1.4240    2.5300   -9.0050 O.co2 254  ASP254     -0.2456
     40  OD2        2.8940    3.4280  -10.3810 O.co2 254  ASP254     -0.2456
     41  N          5.3360    2.7300   -5.7540 N.am  255  ASP255     -0.1974
     42  CA         6.5010    2.4530   -4.8840 C.3   255  ASP255      0.1709
     43  C          6.1230    2.0650   -3.4510 C.2   255  ASP255      0.2293
     44  O          6.7680    1.1980   -2.8390 O.2   255  ASP255     -0.2864
     45  CB         7.4540    3.6410   -4.8770 C.3   255  ASP255      0.1436
     46  CG         8.2460    3.7690   -6.1680 C.2   255  ASP255      0.3671
     47  OD1        7.9960    3.0010   -7.1170 O.co2 255  ASP255     -0.2456
     48  OD2        9.1170    4.6520   -6.2270 O.co2 255  ASP255     -0.2456
     49  N          3.5820    0.2840   -2.6100 N.3   257  GLN257     -0.1231
     50  CA         3.2570   -1.1350   -2.7990 C.3   257  GLN257      0.1698
     51  C          4.3280   -1.8590   -3.6150 C.2   257  GLN257      0.2593
     52  O          4.0210   -2.7880   -4.3940 O.2   257  GLN257     -0.2718
     53  CB         1.8890   -1.2420   -3.4730 C.3   257  GLN257      0.0381
     54  CG         0.8070   -0.6460   -2.5920 C.3   257  GLN257      0.0905
     55  CD        -0.5690   -0.6910   -3.1970 C.2   257  GLN257      0.2608
     56  OE1       -0.7500   -0.9030   -4.3780 O.2   257  GLN257     -0.2717
     57  NE2       -1.5320   -0.4750   -2.3900 N.am  257  GLN257     -0.0878
     58  N          5.5920   -1.4820   -3.3980 N.am  258  GLY258     -0.1942
     59  CA         6.6970   -2.0150   -4.2050 C.3   258  GLY258      0.2014
     60  C          7.4740   -3.1580   -3.5990 C.2   258  GLY258      0.2638
     61  O          6.9470   -3.9500   -2.8290 O.2   258  GLY258     -0.2714
     62  N          8.7530   -3.2160   -3.9740 N.am  259  ILE259     -0.1977
     63  CA         9.6350   -4.3220   -3.6890 C.3   259  ILE259      0.1596
     64  C         10.6440   -3.8140   -2.6990 C.2   259  ILE259      0.2287
     65  O         11.3300   -2.8590   -2.9760 O.2   259  ILE259     -0.2864
     66  CB        10.3950   -4.8530   -4.9450 C.3   259  ILE259      0.0276
     67  CG1        9.4390   -5.1510   -6.0960 C.3   259  ILE259      0.0022
     68  CG2       11.1400   -6.1450   -4.6370 C.3   259  ILE259      0.0022
     69  CD1        8.4770   -6.2550   -5.7940 C.3   259  ILE259      0.0001
     70  N          7.7970   -8.2800   -2.3430 N.3   264  GLN264     -0.1245
     71  CA         6.7480   -7.3480   -2.6880 C.3   264  GLN264      0.1566
     72  C          5.7350   -7.1780   -1.5560 C.2   264  GLN264      0.2260
     73  O          5.2050   -8.1660   -1.0560 O.2   264  GLN264     -0.2867
     74  CB         6.0130   -7.8070   -3.9380 C.3   264  GLN264      0.0367
     75  CG         5.1400   -6.6920   -4.5150 C.3   264  GLN264      0.0905
     76  CD         4.2520   -7.1870   -5.6250 C.2   264  GLN264      0.2608
     77  OE1        4.3490   -6.7160   -6.7710 O.2   264  GLN264     -0.2717
     78  NE2        3.4720   -8.1870   -5.3310 N.am  264  GLN264     -0.0878
@<TRIPOS>BOND
     1    10     9    1
     2    40    38   ar
     3    11     9    1
     4     9     8    2
     5    38    39   ar
     6    38    37    1
     7     8     7    1
     8    31    30   ar
     9    37    34    1
    10     7     6    1
    11    23    21   am
    12    15    14    2
    13    28    25    1
    14    28    29    1
    15    20    21    1
    16    20    17    1
    17    47    46   ar
    18    30    29    1
    19    30    32   ar
    20    21    22    2
    21    34    33    1
    22    34    35    1
    23    25    26    1
    24    25    24    1
    25    77    76    2
    26     6     5    1
    27    19    18    2
    28    14    13    1
    29    14    16   am
    30    12    13    1
    31    18    17    1
    32    48    46   ar
    33    46    45    1
    34    67    69    1
    35    67    66    1
    36    35    41   am
    37    35    36    2
    38    17    16    1
    39    26    27    2
    40     5     2    1
    41    41    42    1
    42    76    78   am
    43    76    75    1
    44    66    68    1
    45    66    63    1
    46    42    45    1
    47    42    43    1
    48    75    74    1
    49     2     1    1
    50     2     3    1
    51    52    51    2
    52    56    55    2
    53    59    60    1
    54    59    58    1
    55    62    63    1
    56    62    60   am
    57    74    71    1
    58     4     3    2
    59    63    64    1
    60    51    58   am
    61    51    50    1
    62    60    61    2
    63    53    50    1
    64    53    54    1
    65    43    44    2
    66    55    54    1
    67    55    57   am
    68    65    64    2
    69    50    49    1
    70    71    70    1
    71    71    72    1
    72    72    73    2
