@<TRIPOS>MOLECULE
tmp/4zrnA01.pdb
 206 197 0 0 0
SMALL
GASTEIGER

@<TRIPOS>ATOM
      1  N        -31.0840   16.5150   35.8000 N.3    77  ALA77      -0.1245
      2  CA       -30.1870   15.3930   35.5020 C.3    77  ALA77       0.1562
      3  C        -30.8190   14.0050   35.6390 C.2    77  ALA77       0.2260
      4  O        -30.1800   12.9900   35.3200 O.2    77  ALA77      -0.2867
      5  CB       -28.9340   15.4870   36.3640 C.3    77  ALA77       0.0290
      6  N        -33.2770   11.1860   34.3920 N.3    79  VAL79      -0.1245
      7  CA       -34.0330   10.7250   33.2240 C.3    79  VAL79       0.1561
      8  C        -35.5170   10.5310   33.5600 C.2    79  VAL79       0.2260
      9  O        -36.4040   10.8830   32.7780 O.2    79  VAL79      -0.2867
     10  CB       -33.4590    9.3990   32.6710 C.3    79  VAL79       0.0252
     11  CG1      -34.2610    8.9280   31.4590 C.3    79  VAL79       0.0019
     12  CG2      -31.9810    9.5580   32.3210 C.3    79  VAL79       0.0019
     13  N        -24.1740   13.4140   27.7410 N.3   117  THR117     -0.1218
     14  CA       -24.3950   12.0480   28.2030 C.3   117  THR117      0.1862
     15  C        -24.0890   11.0280   27.1120 C.2   117  THR117      0.2287
     16  O        -24.4280   11.2400   25.9400 O.2   117  THR117     -0.2866
     17  CB       -25.8540   11.8550   28.6610 C.3   117  THR117      0.1770
     18  OG1      -26.0980   10.4680   28.9250 O.3   117  THR117     -0.2211
     19  CG2      -26.8260   12.3300   27.5700 C.3   117  THR117      0.0375
     20  N        -24.8290    7.4680   27.7080 N.3   119  GLY119     -0.1210
     21  CA       -25.8820    6.4690   27.8450 C.3   119  GLY119      0.1956
     22  C        -27.2310    6.8270   27.2430 C.2   119  GLY119      0.2611
     23  O        -27.9010    5.9660   26.6730 O.2   119  GLY119     -0.2717
     24  N        -27.6260    8.0940   27.3390 N.am  120  ALA120     -0.1979
     25  CA       -28.9540    8.5090   26.8890 C.3   120  ALA120      0.1597
     26  C        -28.9400    9.0500   25.4640 C.2   120  ALA120      0.2287
     27  O        -29.9750    9.4600   24.9240 O.2   120  ALA120     -0.2864
     28  CB       -29.5330    9.5380   27.8340 C.3   120  ALA120      0.0319
     29  N        -34.5150   13.6710   28.3980 N.3   143  TYR143     -0.1241
     30  CA       -33.1740   14.0480   28.8320 C.3   143  TYR143      0.1605
     31  C        -32.1450   13.8560   27.7140 C.2   143  TYR143      0.2264
     32  O        -31.3660   14.7570   27.4260 O.2   143  TYR143     -0.2867
     33  CB       -32.7990   13.2290   30.0660 C.3   143  TYR143      0.0534
     34  CG       -31.3610   13.3360   30.5100 C.ar  143  TYR143     -0.0201
     35  CD1      -30.4560   12.3290   30.2150 C.ar  143  TYR143     -0.0009
     36  CD2      -30.9130   14.4270   31.2500 C.ar  143  TYR143     -0.0009
     37  CE1      -29.1470   12.3960   30.6330 C.ar  143  TYR143      0.0417
     38  CE2      -29.5880   14.5160   31.6670 C.ar  143  TYR143      0.0417
     39  CZ       -28.7130   13.4810   31.3520 C.ar  143  TYR143      0.1957
     40  OH       -27.3990   13.5160   31.7460 O.3   143  TYR143     -0.2866
     41  N        -20.5530   11.8320   29.3700 N.3   170  TYR170     -0.1227
     42  CA       -20.1600   10.9440   30.4750 C.3   170  TYR170      0.1736
     43  C        -20.8840    9.6100   30.3920 C.2   170  TYR170      0.2595
     44  O        -22.0180    9.5350   29.9110 O.2   170  TYR170     -0.2718
     45  CB       -20.4790   11.5620   31.8470 C.3   170  TYR170      0.0548
     46  CG       -19.9450   12.9580   32.0800 C.ar  170  TYR170     -0.0200
     47  CD1      -18.7180   13.3650   31.5500 C.ar  170  TYR170     -0.0009
     48  CD2      -20.6650   13.8680   32.8440 C.ar  170  TYR170     -0.0009
     49  CE1      -18.2320   14.6510   31.7700 C.ar  170  TYR170      0.0417
     50  CE2      -20.1840   15.1490   33.0780 C.ar  170  TYR170      0.0417
     51  CZ       -18.9660   15.5350   32.5330 C.ar  170  TYR170      0.1957
     52  OH       -18.4980   16.8150   32.7530 O.3   170  TYR170     -0.2866
     53  N        -20.2300    8.5650   30.8920 N.am  171  ALA171     -0.1966
     54  CA       -20.8640    7.2650   31.0930 C.3   171  ALA171      0.1728
     55  C        -21.6320    7.3360   32.4170 C.2   171  ALA171      0.2616
     56  O        -22.2310    8.3690   32.7290 O.2   171  ALA171     -0.2715
     57  CB       -19.8040    6.1650   31.1170 C.3   171  ALA171      0.0334
     58  N        -21.6310    6.2670   33.2090 N.am  172  ASN172     -0.1958
     59  CA       -22.3030    6.3390   34.5110 C.3   172  ASN172      0.1819
     60  C        -21.3590    6.8270   35.6080 C.2   172  ASN172      0.2621
     61  O        -20.5190    6.0650   36.0690 O.2   172  ASN172     -0.2715
     62  CB       -22.8810    4.9740   34.9100 C.3   172  ASN172      0.1195
     63  CG       -24.1000    4.5920   34.0930 C.2   172  ASN172      0.2630
     64  OD1      -24.0910    4.6750   32.8670 O.2   172  ASN172     -0.2716
     65  ND2      -25.1610    4.1810   34.7740 N.am  172  ASN172     -0.0877
     66  N        -21.5110    8.0800   36.0440 N.am  173  VAL173     -0.1977
     67  CA       -20.5680    8.6880   36.9860 C.3   173  VAL173      0.1596
     68  C        -20.9800    8.3800   38.4240 C.2   173  VAL173      0.2287
     69  O        -22.1580    8.4310   38.7610 O.2   173  VAL173     -0.2864
     70  CB       -20.4720   10.2230   36.7930 C.3   173  VAL173      0.0276
     71  CG1      -19.3140   10.8010   37.6180 C.3   173  VAL173      0.0022
     72  CG2      -20.2810   10.5600   35.3120 C.3   173  VAL173      0.0022
     73  N        -22.5060   11.9090   45.5290 N.3   178  GLN178     -0.1245
     74  CA       -23.6320   11.5150   44.7010 C.3   178  GLN178      0.1566
     75  C        -24.8020   11.2680   45.6370 C.2   178  GLN178      0.2260
     76  O        -24.6530   10.5960   46.6460 O.2   178  GLN178     -0.2867
     77  CB       -23.3380   10.2610   43.8830 C.3   178  GLN178      0.0367
     78  CG       -24.5580    9.8530   43.0460 C.3   178  GLN178      0.0905
     79  CD       -24.2430    8.8220   41.9890 C.2   178  GLN178      0.2608
     80  OE1      -23.6860    7.7650   42.2870 O.2   178  GLN178     -0.2717
     81  NE2      -24.5960    9.1250   40.7380 N.am  178  GLN178     -0.0878
     82  N        -31.5610    8.8460   42.2530 N.3   184  ALA184     -0.1231
     83  CA       -30.1570    8.5430   42.4870 C.3   184  ALA184      0.1694
     84  C        -29.5720    7.5110   41.5220 C.2   184  ALA184      0.2593
     85  O        -30.2960    6.6920   40.9470 O.2   184  ALA184     -0.2718
     86  CB       -29.9810    8.0740   43.9230 C.3   184  ALA184      0.0304
     87  N        -28.2520    7.5570   41.3570 N.am  185  GLY185     -0.1942
     88  CA       -27.5450    6.5160   40.6520 C.3   185  GLY185      0.2014
     89  C        -27.4600    5.2730   41.5210 C.2   185  GLY185      0.2638
     90  O        -27.4050    5.3450   42.7560 O.2   185  GLY185     -0.2714
     91  N        -27.4290    4.1250   40.8600 N.am  186  VAL186     -0.1977
     92  CA       -27.4210    2.8310   41.5350 C.3   186  VAL186      0.1596
     93  C        -26.2350    2.6280   42.5070 C.2   186  VAL186      0.2287
     94  O        -26.3630    1.9130   43.5120 O.2   186  VAL186     -0.2864
     95  CB       -27.4790    1.6990   40.4930 C.3   186  VAL186      0.0276
     96  CG1      -26.2140    1.7230   39.6010 C.3   186  VAL186      0.0022
     97  CG2      -27.6710    0.3510   41.1720 C.3   186  VAL186      0.0022
     98  N        -27.3240    4.3790   45.6830 N.3   189  ILE189     -0.1231
     99  CA       -28.4510    3.6650   46.2710 C.3   189  ILE189      0.1692
    100  C        -27.9650    2.3810   46.9340 C.2   189  ILE189      0.2592
    101  O        -28.2220    2.1680   48.1160 O.2   189  ILE189     -0.2718
    102  CB       -29.5360    3.3350   45.2360 C.3   189  ILE189      0.0266
    103  CG1      -30.2000    4.6240   44.7340 C.3   189  ILE189      0.0019
    104  CG2      -30.5780    2.3920   45.8460 C.3   189  ILE189      0.0020
    105  CD1      -31.1200    4.4290   43.5180 C.3   189  ILE189      0.0001
    106  N        -27.2400    1.5450   46.1940 N.am  190  PHE190     -0.1976
    107  CA       -26.7290    0.2900   46.7620 C.3   190  PHE190      0.1639
    108  C        -25.8640    0.5140   48.0080 C.2   190  PHE190      0.2290
    109  O        -26.0340   -0.1740   49.0220 O.2   190  PHE190     -0.2864
    110  CB       -25.9190   -0.5020   45.7260 C.3   190  PHE190      0.0560
    111  CG       -26.7590   -1.2410   44.7140 C.ar  190  PHE190     -0.0200
    112  CD1      -26.1550   -2.1090   43.8090 C.ar  190  PHE190     -0.0042
    113  CD2      -28.1350   -1.0530   44.6530 C.ar  190  PHE190     -0.0042
    114  CE1      -26.9060   -2.7960   42.8670 C.ar  190  PHE190     -0.0003
    115  CE2      -28.9010   -1.7360   43.7180 C.ar  190  PHE190     -0.0003
    116  CZ       -28.2820   -2.6110   42.8200 C.ar  190  PHE190     -0.0000
    117  N        -32.8800   -3.5060   45.9290 N.3   201  HIS201     -0.1226
    118  CA       -33.6610   -3.9650   44.7790 C.3   201  HIS201      0.1752
    119  C        -32.8770   -3.9720   43.4680 C.2   201  HIS201      0.2596
    120  O        -32.1590   -3.0210   43.1590 O.2   201  HIS201     -0.2718
    121  CB       -34.9060   -3.1010   44.6180 C.3   201  HIS201      0.0759
    122  CG       -35.8330   -3.1730   45.7890 C.ar  201  HIS201      0.0818
    123  ND1      -36.6820   -2.1420   46.1350 N.ar  201  HIS201     -0.2268
    124  CD2      -36.0440   -4.1540   46.6980 C.ar  201  HIS201      0.1154
    125  CE1      -37.3780   -2.4880   47.2010 C.ar  201  HIS201      0.1986
    126  NE2      -37.0100   -3.7050   47.5660 N.ar  201  HIS201     -0.2212
    127  N        -33.0230   -5.0460   42.6970 N.am  202  ILE202     -0.1966
    128  CA       -32.4750   -5.1030   41.3430 C.3   202  ILE202      0.1727
    129  C        -33.6260   -5.2290   40.3430 C.2   202  ILE202      0.2616
    130  O        -34.4910   -6.0960   40.4900 O.2   202  ILE202     -0.2715
    131  CB       -31.4930   -6.2730   41.1930 C.3   202  ILE202      0.0290
    132  CG1      -30.2860   -6.0680   42.1180 C.3   202  ILE202      0.0022
    133  CG2      -31.0480   -6.4120   39.7410 C.3   202  ILE202      0.0023
    134  CD1      -29.1910   -7.1300   41.9690 C.3   202  ILE202      0.0001
    135  N        -33.6460   -4.3490   39.3450 N.am  203  PHE203     -0.1974
    136  CA       -34.7650   -4.2600   38.3990 C.3   203  PHE203      0.1639
    137  C        -34.5770   -5.2250   37.2310 C.2   203  PHE203      0.2290
    138  O        -33.4960   -5.2980   36.6490 O.2   203  PHE203     -0.2864
    139  CB       -34.9030   -2.8160   37.8860 C.3   203  PHE203      0.0560
    140  CG       -35.1180   -1.8050   38.9850 C.ar  203  PHE203     -0.0200
    141  CD1      -35.9800   -2.0820   40.0390 C.ar  203  PHE203     -0.0042
    142  CD2      -34.4510   -0.5870   38.9710 C.ar  203  PHE203     -0.0042
    143  CE1      -36.1790   -1.1520   41.0590 C.ar  203  PHE203     -0.0003
    144  CE2      -34.6390    0.3460   39.9920 C.ar  203  PHE203     -0.0003
    145  CZ       -35.5040    0.0650   41.0310 C.ar  203  PHE203     -0.0000
    146  N        -28.3900   -5.7470   32.9920 N.3   208  TYR208     -0.1241
    147  CA       -28.1280   -4.4630   32.3460 C.3   208  TYR208      0.1605
    148  C        -26.6730   -4.0810   32.5510 C.2   208  TYR208      0.2264
    149  O        -26.1720   -4.0850   33.6760 O.2   208  TYR208     -0.2867
    150  CB       -29.0680   -3.3900   32.9080 C.3   208  TYR208      0.0534
    151  CG       -30.4990   -3.7860   32.6640 C.ar  208  TYR208     -0.0201
    152  CD1      -31.1370   -3.4320   31.4840 C.ar  208  TYR208     -0.0009
    153  CD2      -31.1870   -4.5890   33.5750 C.ar  208  TYR208     -0.0009
    154  CE1      -32.4380   -3.8290   31.2230 C.ar  208  TYR208      0.0417
    155  CE2      -32.4870   -4.9970   33.3280 C.ar  208  TYR208      0.0417
    156  CZ       -33.1040   -4.6160   32.1440 C.ar  208  TYR208      0.1957
    157  OH       -34.3970   -5.0030   31.8720 O.3   208  TYR208     -0.2866
    158  N        -23.5580   -1.4030   32.2990 N.3   210  ARG210     -0.1245
    159  CA       -23.2330    0.0200   32.2830 C.3   210  ARG210      0.1563
    160  C        -21.7270    0.2180   32.4140 C.2   210  ARG210      0.2260
    161  O        -21.0040   -0.7100   32.7910 O.2   210  ARG210     -0.2867
    162  CB       -23.9540    0.7550   33.4220 C.3   210  ARG210      0.0307
    163  CG       -25.4810    0.7810   33.3090 C.3   210  ARG210      0.0489
    164  CD       -25.9620    1.6580   32.1510 C.3   210  ARG210      0.2205
    165  NE       -27.4290    1.7280   32.0700 N.pl3 210  ARG210     -0.0865
    166  CZ       -28.1880    0.8300   31.4430 C.cat 210  ARG210      0.5346
    167  NH1      -27.6260   -0.2060   30.8410 N.pl3 210  ARG210      0.1354
    168  NH2      -29.5060    0.9640   31.4080 N.pl3 210  ARG210      0.1354
    169  N        -19.1820    2.2880   34.4670 N.3   212  TYR212     -0.1241
    170  CA       -19.0570    3.1000   35.6810 C.3   212  TYR212      0.1605
    171  C        -17.7230    3.8430   35.7360 C.2   212  TYR212      0.2264
    172  O        -16.6550    3.2310   35.8240 O.2   212  TYR212     -0.2867
    173  CB       -19.2730    2.2350   36.9450 C.3   212  TYR212      0.0534
    174  CG       -20.6730    1.6700   36.9820 C.ar  212  TYR212     -0.0201
    175  CD1      -21.7500    2.4670   37.3560 C.ar  212  TYR212     -0.0009
    176  CD2      -20.9310    0.3690   36.5790 C.ar  212  TYR212     -0.0009
    177  CE1      -23.0550    1.9740   37.3460 C.ar  212  TYR212      0.0417
    178  CE2      -22.2290   -0.1380   36.5820 C.ar  212  TYR212      0.0417
    179  CZ       -23.2810    0.6730   36.9610 C.ar  212  TYR212      0.1957
    180  OH       -24.5660    0.1860   36.9500 O.3   212  TYR212     -0.2866
    181  N        -25.6060   -5.0180   36.5900 N.3   244  VAL244     -0.1245
    182  CA       -26.0840   -4.6270   37.9150 C.3   244  VAL244      0.1561
    183  C        -25.8040   -5.7620   38.9190 C.2   244  VAL244      0.2260
    184  O        -25.4180   -5.5180   40.0720 O.2   244  VAL244     -0.2867
    185  CB       -27.5860   -4.2580   37.8930 C.3   244  VAL244      0.0252
    186  CG1      -28.0590   -3.8610   39.2800 C.3   244  VAL244      0.0019
    187  CG2      -27.8430   -3.1000   36.9050 C.3   244  VAL244      0.0019
    188  N        -37.2070   -1.8190   34.8260 N.3   267  ARG267     -0.1245
    189  CA       -37.5160   -0.4000   34.8530 C.3   267  ARG267      0.1563
    190  C        -37.7540    0.0610   33.4220 C.2   267  ARG267      0.2260
    191  O        -36.9390   -0.2090   32.5330 O.2   267  ARG267     -0.2867
    192  CB       -36.3600    0.3770   35.4900 C.3   267  ARG267      0.0307
    193  CG       -36.7090    1.7790   35.9670 C.3   267  ARG267      0.0489
    194  CD       -35.5730    2.3410   36.8290 C.3   267  ARG267      0.2205
    195  NE       -34.3560    2.5470   36.0470 N.pl3 267  ARG267     -0.0865
    196  CZ       -33.2480    3.1090   36.5180 C.cat 267  ARG267      0.5346
    197  NH1      -33.1940    3.5070   37.7800 N.pl3 267  ARG267      0.1354
    198  NH2      -32.1910    3.2740   35.7230 N.pl3 267  ARG267      0.1354
    199  N        -35.0460    1.4720   30.3690 N.3   270  ASP270     -0.1239
    200  CA       -33.6530    1.0400   30.5360 C.3   270  ASP270      0.1674
    201  C        -33.0500    0.4790   29.2490 C.2   270  ASP270      0.2266
    202  O        -33.5090   -0.5430   28.7370 O.2   270  ASP270     -0.2867
    203  CB       -33.5380   -0.0480   31.6160 C.3   270  ASP270      0.1410
    204  CG       -33.4920    0.5090   33.0190 C.2   270  ASP270      0.3668
    205  OD1      -33.7320    1.7270   33.1900 O.co2 270  ASP270     -0.2456
    206  OD2      -33.2300   -0.2920   33.9580 O.co2 270  ASP270     -0.2456
@<TRIPOS>BOND
     1    27    26    2
     2    26    25    1
     3    16    15    2
     4    23    22    2
     5    25    24    1
     6    25    28    1
     7    15    14    1
     8    22    24   am
     9    22    21    1
    10    32    31    2
    11    19    17    1
    12    20    21    1
    13    31    30    1
    14    13    14    1
    15    14    17    1
    16    29    30    1
    17    17    18    1
    18   202   201    2
    19    30    33    1
    20   201   200    1
    21    41    42    1
    22    44    43    2
    23    33    34    1
    24    35    34   ar
    25    35    37   ar
    26   199   200    1
    27    43    42    1
    28    43    53   am
    29    42    45    1
    30    34    36   ar
    31   200   203    1
    32    37    39   ar
    33   167   166    1
    34    53    54    1
    35    54    57    1
    36    54    55    1
    37   154   152   ar
    38   154   156   ar
    39    36    38   ar
    40    39    38   ar
    41    39    40    1
    42   168   166    1
    43   166   165    2
    44    11    10    1
    45   152   151   ar
    46    47    49   ar
    47    47    46   ar
    48   203   204    1
    49    49    51   ar
    50    45    46    1
    51   157   156    1
    52   165   164    1
    53    46    48   ar
    54   156   155   ar
    55   164   163    1
    56   159   158    1
    57   159   160    1
    58   159   162    1
    59    12    10    1
    60   147   148    1
    61   147   150    1
    62   147   146    1
    63   160   161    2
    64    55    56    2
    65    55    58   am
    66   191   190    2
    67    51    52    1
    68    51    50   ar
    69   148   149    2
    70   151   150    1
    71   151   153   ar
    72    10     7    1
    73     9     8    2
    74    48    50   ar
    75    64    63    2
    76   204   205   ar
    77   204   206   ar
    78    58    59    1
    79     7     8    1
    80     7     6    1
    81   163   162    1
    82   155   153   ar
    83   190   189    1
    84    63    65   am
    85    63    62    1
    86   169   170    1
    87    59    62    1
    88    59    60    1
    89   188   189    1
    90   189   192    1
    91    72    70    1
    92     4     3    2
    93   192   193    1
    94     2     3    1
    95     2     1    1
    96     2     5    1
    97    60    66   am
    98    60    61    2
    99   170   171    1
   100   170   173    1
   101   198   196    1
   102   171   172    2
   103   193   194    1
   104    66    67    1
   105   195   196    2
   106   195   194    1
   107   196   197    1
   108   176   178   ar
   109   176   174   ar
   110   178   179   ar
   111   181   182    1
   112   138   137    2
   113    70    67    1
   114    70    71    1
   115   187   185    1
   116   173   174    1
   117   180   179    1
   118   179   177   ar
   119   174   175   ar
   120    67    68    1
   121   137   136    1
   122   177   175   ar
   123   139   136    1
   124   139   140    1
   125   185   182    1
   126   185   186    1
   127   182   183    1
   128   136   135    1
   129    68    69    2
   130   183   184    2
   131   142   140   ar
   132   142   144   ar
   133   140   141   ar
   134   135   129   am
   135    96    95    1
   136   133   131    1
   137   144   145   ar
   138   141   143   ar
   139   129   130    2
   140   129   128    1
   141    95    97    1
   142    95    92    1
   143    88    87    1
   144    88    89    1
   145    81    79   am
   146    91    89   am
   147    91    92    1
   148    85    84    2
   149   145   143   ar
   150   131   128    1
   151   131   132    1
   152   128   127    1
   153    87    84   am
   154    89    90    2
   155    84    83    1
   156    92    93    1
   157   134   132    1
   158    79    80    2
   159    79    78    1
   160    82    83    1
   161    83    86    1
   162    93    94    2
   163   127   119   am
   164   116   114   ar
   165   116   115   ar
   166   114   112   ar
   167    78    77    1
   168   120   119    2
   169   119   118    1
   170   105   103    1
   171   115   113   ar
   172   112   111   ar
   173    77    74    1
   174   121   118    1
   175   121   122    1
   176   113   111   ar
   177    74    73    1
   178    74    75    1
   179   111   110    1
   180   103   102    1
   181   118   117    1
   182   102   104    1
   183   102    99    1
   184    75    76    2
   185    98    99    1
   186   110   107    1
   187   122   123   ar
   188   122   124   ar
   189   123   125   ar
   190   106   107    1
   191   106   100   am
   192    99   100    1
   193   124   126   ar
   194   107   108    1
   195   100   101    2
   196   125   126   ar
   197   108   109    2
