@<TRIPOS>MOLECULE
tmp/4zroB00.pdb
 195 193 0 0 0
SMALL
GASTEIGER

@<TRIPOS>ATOM
      1  N         30.5220   39.6880    3.8980 N.3    25  ASN25      -0.1225
      2  CA        31.5470   38.7270    4.2740 C.3    25  ASN25       0.1785
      3  C         31.4520   38.3800    5.7530 C.2    25  ASN25       0.2597
      4  O         31.2780   39.2550    6.6060 O.2    25  ASN25      -0.2718
      5  CB        32.9500   39.2650    3.9240 C.3    25  ASN25       0.1169
      6  CG        33.1710   39.3940    2.4160 C.2    25  ASN25       0.2627
      7  OD1       32.6200   38.6260    1.6280 O.2    25  ASN25      -0.2716
      8  ND2       33.9790   40.3670    2.0170 N.am   25  ASN25      -0.0877
      9  N         31.5370   37.0910    6.0540 N.am   26  VAL26      -0.1966
     10  CA        31.5590   36.6380    7.4440 C.3    26  VAL26       0.1727
     11  C         32.6630   35.6040    7.6130 C.2    26  VAL26       0.2616
     12  O         32.7090   34.5960    6.9010 O.2    26  VAL26      -0.2715
     13  CB        30.2040   36.0380    7.8830 C.3    26  VAL26       0.0290
     14  CG1       30.2380   35.6410    9.3770 C.3    26  VAL26       0.0023
     15  CG2       29.0700   37.0410    7.6410 C.3    26  VAL26       0.0023
     16  N         33.5800   35.8670    8.5320 N.am   27  LEU27      -0.1977
     17  CA        34.5790   34.8660    8.8690 C.3    27  LEU27       0.1596
     18  C         34.9670   34.9600   10.3400 C.2    27  LEU27       0.2287
     19  O         34.2810   35.6140   11.1280 O.2    27  LEU27      -0.2864
     20  CB        35.8060   35.0110    7.9730 C.3    27  LEU27       0.0297
     21  CG        36.2840   36.4300    7.6580 C.3    27  LEU27       0.0022
     22  CD1       36.8100   37.1430    8.9040 C.3    27  LEU27       0.0001
     23  CD2       37.3590   36.3800    6.5760 C.3    27  LEU27       0.0001
     24  N         40.7400   40.0240    3.6960 N.3    41  HIS41      -0.1241
     25  CA        39.7400   39.9700    2.6240 C.3    41  HIS41       0.1621
     26  C         38.2980   40.0010    3.1720 C.2    41  HIS41       0.2264
     27  O         37.3470   39.9970    2.4020 O.2    41  HIS41      -0.2867
     28  CB        39.9670   38.7700    1.6730 C.3    41  HIS41       0.0745
     29  CG        39.8320   37.3990    2.2830 C.ar   41  HIS41       0.0817
     30  ND1       38.6600   36.9320    2.8380 N.ar   41  HIS41      -0.2268
     31  CD2       40.6930   36.3490    2.3060 C.ar   41  HIS41       0.1154
     32  CE1       38.8200   35.6790    3.2220 C.ar   41  HIS41       0.1986
     33  NE2       40.0460   35.2980    2.9050 N.ar   41  HIS41      -0.2212
     34  N         34.8830   39.1770   -3.5430 N.3    47  THR47      -0.1218
     35  CA        35.9550   38.1970   -3.3810 C.3    47  THR47       0.1862
     36  C         36.0560   37.2410   -4.5650 C.2    47  THR47       0.2287
     37  O         36.8090   36.2700   -4.5200 O.2    47  THR47      -0.2866
     38  CB        35.7720   37.3650   -2.1020 C.3    47  THR47       0.1770
     39  OG1       34.5040   36.7030   -2.1420 O.3    47  THR47      -0.2211
     40  CG2       35.8490   38.2620   -0.8680 C.3    47  THR47       0.0375
     41  N         41.2920   42.0350   -6.1980 N.3    51  ILE51      -0.1245
     42  CA        40.9780   42.9490   -5.1050 C.3    51  ILE51       0.1561
     43  C         42.0720   44.0000   -4.9300 C.2    51  ILE51       0.2260
     44  O         43.2570   43.6740   -4.8530 O.2    51  ILE51      -0.2867
     45  CB        40.7870   42.1790   -3.7720 C.3    51  ILE51       0.0252
     46  CG1       39.8020   41.0160   -3.9600 C.3    51  ILE51       0.0019
     47  CG2       40.3400   43.1250   -2.6600 C.3    51  ILE51       0.0019
     48  CD1       39.9300   39.9120   -2.8980 C.3    51  ILE51       0.0001
     49  N         38.6420   22.7120    4.9040 N.3   139  PHE139     -0.1227
     50  CA        38.0900   24.0400    5.0900 C.3   139  PHE139      0.1736
     51  C         37.0210   24.2730    4.0440 C.2   139  PHE139      0.2595
     52  O         37.1990   23.9530    2.8730 O.2   139  PHE139     -0.2718
     53  CB        39.1600   25.1310    4.9650 C.3   139  PHE139      0.0547
     54  CG        40.2670   25.0360    5.9610 C.ar  139  PHE139     -0.0202
     55  CD1       41.3800   24.2640    5.7010 C.ar  139  PHE139     -0.0042
     56  CD2       40.2200   25.7620    7.1300 C.ar  139  PHE139     -0.0042
     57  CE1       42.4290   24.2050    6.5960 C.ar  139  PHE139     -0.0003
     58  CE2       41.2580   25.6970    8.0650 C.ar  139  PHE139     -0.0003
     59  CZ        42.3630   24.9320    7.7980 C.ar  139  PHE139     -0.0000
     60  N         35.9190   24.8520    4.4760 N.am  140  ILE140     -0.1966
     61  CA        34.8370   25.1960    3.5880 C.3   140  ILE140      0.1727
     62  C         34.5130   26.6860    3.7410 C.2   140  ILE140      0.2616
     63  O         35.1440   27.3800    4.5520 O.2   140  ILE140     -0.2715
     64  CB        33.6250   24.3320    3.9020 C.3   140  ILE140      0.0290
     65  CG1       33.2100   24.5430    5.3630 C.3   140  ILE140      0.0022
     66  CG2       33.9660   22.8590    3.6720 C.3   140  ILE140      0.0023
     67  CD1       31.7870   24.0850    5.6640 C.3   140  ILE140      0.0001
     68  N         33.5520   27.1860    2.9670 N.am  141  ALA141     -0.1963
     69  CA        33.0730   28.5560    3.1530 C.3   141  ALA141      0.1728
     70  C         32.6960   28.7850    4.6220 C.2   141  ALA141      0.2617
     71  O         32.0740   27.9300    5.2480 O.2   141  ALA141     -0.2715
     72  CB        31.8810   28.8460    2.2390 C.3   141  ALA141      0.0334
     73  N         33.1030   29.9270    5.1720 N.am  142  GLY142     -0.1940
     74  CA        32.7770   30.2810    6.5380 C.3   142  GLY142      0.2014
     75  C         33.9120   29.9990    7.5120 C.2   142  GLY142      0.2640
     76  O         33.8410   30.4070    8.6670 O.2   142  GLY142     -0.2714
     77  N         34.9580   29.3150    7.0480 N.am  143  THR143     -0.1936
     78  CA        36.0570   28.9030    7.9250 C.3   143  THR143      0.2028
     79  C         37.3190   29.7420    7.8230 C.2   143  THR143      0.2642
     80  O         38.3240   29.4180    8.4460 O.2   143  THR143     -0.2714
     81  CB        36.4820   27.4440    7.6580 C.3   143  THR143      0.1808
     82  OG1       37.0200   27.3350    6.3310 O.3   143  THR143     -0.2208
     83  CG2       35.3040   26.4920    7.8340 C.3   143  THR143      0.0379
     84  N         37.3030   30.7800    6.9980 N.am  144  CYS144     -0.1967
     85  CA        38.4370   31.6860    6.9670 C.3   144  CYS144      0.1712
     86  C         38.6330   32.3190    8.3320 C.2   144  CYS144      0.2296
     87  O         37.6710   32.5670    9.0620 O.2   144  CYS144     -0.2864
     88  CB        38.2490   32.7680    5.9130 C.3   144  CYS144      0.0983
     89  SG        38.7430   32.1620    4.3090 S.3   144  CYS144     -0.0798
     90  N         43.6470   30.9100    8.5760 N.3   162  HIS162     -0.1226
     91  CA        43.2510   30.3800    7.2790 C.3   162  HIS162      0.1752
     92  C         42.7500   31.4410    6.2950 C.2   162  HIS162      0.2596
     93  O         41.9230   32.2660    6.6610 O.2   162  HIS162     -0.2718
     94  CB        42.1570   29.3190    7.4180 C.3   162  HIS162      0.0759
     95  CG        41.8550   28.6570    6.1110 C.ar  162  HIS162      0.0818
     96  ND1       42.8080   27.9560    5.4120 N.ar  162  HIS162     -0.2268
     97  CD2       40.7470   28.6790    5.3280 C.ar  162  HIS162      0.1154
     98  CE1       42.2880   27.5240    4.2730 C.ar  162  HIS162      0.1986
     99  NE2       41.0390   27.9460    4.2030 N.ar  162  HIS162     -0.2212
    100  N         43.2270   31.3840    5.0460 N.am  163  HIS163     -0.1961
    101  CA        42.7960   32.3520    4.0180 C.3   163  HIS163      0.1787
    102  C         42.0820   31.7600    2.7910 C.2   163  HIS163      0.2620
    103  O         41.0800   32.3210    2.3280 O.2   163  HIS163     -0.2715
    104  CB        43.9910   33.1800    3.5280 C.3   163  HIS163      0.0785
    105  CG        44.4480   34.2200    4.5090 C.ar  163  HIS163      0.0821
    106  ND1       44.2620   35.5750    4.3050 N.ar  163  HIS163     -0.2267
    107  CD2       45.0610   34.1030    5.7070 C.ar  163  HIS163      0.1154
    108  CE1       44.7510   36.2410    5.3330 C.ar  163  HIS163      0.1986
    109  NE2       45.2470   35.3740    6.2000 N.ar  163  HIS163     -0.2212
    110  N         42.5890   30.6630    2.2340 N.am  164  LEU164     -0.1963
    111  CA        42.0790   30.2380    0.9180 C.3   164  LEU164      0.1728
    112  C         42.4120   28.8020    0.5370 C.2   164  LEU164      0.2616
    113  O         43.2370   28.1370    1.1790 O.2   164  LEU164     -0.2715
    114  CB        42.6080   31.1850   -0.1760 C.3   164  LEU164      0.0311
    115  CG        44.1310   31.2010   -0.3840 C.3   164  LEU164      0.0022
    116  CD1       44.5800   30.1640   -1.3940 C.3   164  LEU164      0.0001
    117  CD2       44.6400   32.5750   -0.7730 C.3   164  LEU164      0.0001
    118  N         41.7830   28.3480   -0.5430 N.am  165  GLU165     -0.1963
    119  CA        42.0340   27.0240   -1.0900 C.3   165  GLU165      0.1733
    120  C         42.5000   27.1360   -2.5520 C.2   165  GLU165      0.2616
    121  O         41.8620   27.7940   -3.3740 O.2   165  GLU165     -0.2715
    122  CB        40.7760   26.1600   -0.9850 C.3   165  GLU165      0.0429
    123  CG        40.9030   24.7440   -1.5480 C.3   165  GLU165      0.1163
    124  CD        39.6970   23.8720   -1.2170 C.2   165  GLU165      0.3649
    125  OE1       39.1340   24.0160   -0.1130 O.co2 165  GLU165     -0.2457
    126  OE2       39.3040   23.0430   -2.0580 O.co2 165  GLU165     -0.2457
    127  N         43.6210   26.4980   -2.8600 N.am  166  LEU166     -0.1963
    128  CA        44.1610   26.4870   -4.2190 C.3   166  LEU166      0.1728
    129  C         43.3020   25.6290   -5.1540 C.2   166  LEU166      0.2616
    130  O         42.4800   24.8330   -4.7000 O.2   166  LEU166     -0.2715
    131  CB        45.6020   25.9670   -4.2210 C.3   166  LEU166      0.0311
    132  CG        46.6640   26.7740   -3.4710 C.3   166  LEU166      0.0022
    133  CD1       48.0410   26.1620   -3.6560 C.3   166  LEU166      0.0001
    134  CD2       46.6600   28.2280   -3.8940 C.3   166  LEU166      0.0001
    135  N         43.5040   25.7860   -6.4590 N.am  167  GLY167     -0.1955
    136  CA        42.7590   25.0150   -7.4350 C.3   167  GLY167      0.1869
    137  C         42.9320   23.5190   -7.2600 C.2   167  GLY167      0.2309
    138  O         42.0170   22.7530   -7.5430 O.2   167  GLY167     -0.2863
    139  N         45.4050   23.8530    1.0210 N.3   171  HIS171     -0.1241
    140  CA        44.9580   24.9720    1.8360 C.3   171  HIS171      0.1621
    141  C         46.0770   25.9040    2.2370 C.2   171  HIS171      0.2264
    142  O         47.1900   25.4790    2.5590 O.2   171  HIS171     -0.2867
    143  CB        44.2310   24.4460    3.0730 C.3   171  HIS171      0.0745
    144  CG        42.9770   23.7120    2.7320 C.ar  171  HIS171      0.0817
    145  ND1       42.8180   22.3640    2.9560 N.ar  171  HIS171     -0.2268
    146  CD2       41.8520   24.1280    2.1060 C.ar  171  HIS171      0.1154
    147  CE1       41.6270   21.9890    2.5240 C.ar  171  HIS171      0.1986
    148  NE2       41.0250   23.0390    1.9980 N.ar  171  HIS171     -0.2212
    149  N         46.4890   36.7160   -1.4130 N.3   186  ASP186     -0.1225
    150  CA        45.1110   36.5840   -0.9700 C.3   186  ASP186      0.1805
    151  C         44.1940   37.1970   -2.0120 C.2   186  ASP186      0.2598
    152  O         43.5470   38.2210   -1.7750 O.2   186  ASP186     -0.2718
    153  CB        44.9030   37.2110    0.4280 C.3   186  ASP186      0.1424
    154  CG        45.3900   38.6560    0.5320 C.2   186  ASP186      0.3668
    155  OD1       44.9410   39.3600    1.4590 O.co2 186  ASP186     -0.2456
    156  OD2       46.2060   39.0990   -0.2970 O.co2 186  ASP186     -0.2456
    157  N         44.1570   36.5300   -3.1690 N.am  187  GLN187     -0.1966
    158  CA        43.4180   36.9550   -4.3600 C.3   187  GLN187      0.1718
    159  C         42.7220   35.7500   -4.9800 C.2   187  GLN187      0.2458
    160  O         43.2650   34.6480   -4.9400 O.2   187  GLN187     -0.2730
    161  CB        44.3570   37.5750   -5.4090 C.3   187  GLN187      0.0407
    162  CG        45.0210   38.8550   -4.9940 C.3   187  GLN187      0.0908
    163  CD        44.1070   40.0560   -5.1010 C.2   187  GLN187      0.2608
    164  OE1       43.0220   39.9860   -5.6910 O.2   187  GLN187     -0.2717
    165  NE2       44.5420   41.1730   -4.5290 N.am  187  GLN187     -0.0878
    166  N         41.5430   35.9540   -5.5940 N.am  188  PRO188     -0.2716
    167  CA        40.8550   34.8020   -6.1810 C.3   188  PRO188      0.1536
    168  C         41.4200   34.4420   -7.5550 C.2   188  PRO188      0.2599
    169  O         40.6730   34.2190   -8.4950 O.2   188  PRO188     -0.2715
    170  CB        39.4010   35.2760   -6.2780 C.3   188  PRO188      0.0310
    171  CG        39.5000   36.7520   -6.4390 C.3   188  PRO188      0.0237
    172  CD        40.7580   37.1970   -5.7250 C.3   188  PRO188      0.0939
    173  N         42.7370   34.3620   -7.6440 N.am  189  SER189     -0.1936
    174  CA        43.4200   34.1370   -8.9030 C.3   189  SER189      0.2055
    175  C         44.0220   32.7530   -8.9410 C.2   189  SER189      0.2643
    176  O         44.2580   32.1440   -7.8890 O.2   189  SER189     -0.2714
    177  CB        44.5160   35.1700   -9.0880 C.3   189  SER189      0.2130
    178  OG        45.4910   35.0020   -8.0770 O.3   189  SER189     -0.2179
    179  N         44.2980   32.2630  -10.1450 N.am  190  MET190     -0.1962
    180  CA        44.9260   30.9590  -10.2980 C.3   190  MET190      0.1736
    181  C         46.3290   30.9720   -9.6960 C.2   190  MET190      0.2616
    182  O         47.1100   31.8730   -9.9730 O.2   190  MET190     -0.2715
    183  CB        44.9790   30.5680  -11.7790 C.3   190  MET190      0.0427
    184  CG        45.5860   29.1980  -12.0530 C.3   190  MET190      0.0599
    185  SD        45.2570   28.6630  -13.7600 S.3   190  MET190     -0.1393
    186  CE        46.1030   27.0820  -13.7830 C.3   190  MET190      0.0692
    187  N         46.6470   29.9990   -8.8480 N.am  191  GLN191     -0.1977
    188  CA        47.9870   29.9420   -8.2670 C.3   191  GLN191      0.1601
    189  C         48.5080   28.5080   -8.1690 C.2   191  GLN191      0.2287
    190  O         47.8650   27.6410   -7.5730 O.2   191  GLN191     -0.2864
    191  CB        47.9950   30.6100   -6.8820 C.3   191  GLN191      0.0394
    192  CG        47.8540   32.1200   -6.9390 C.3   191  GLN191      0.0908
    193  CD        47.7730   32.7600   -5.5680 C.2   191  GLN191      0.2608
    194  OE1       48.7860   32.9340   -4.8890 O.2   191  GLN191     -0.2717
    195  NE2       46.5670   33.1300   -5.1620 N.am  191  GLN191     -0.0878
@<TRIPOS>BOND
     1   186   185    1
     2   185   184    1
     3   184   183    1
     4   183   180    1
     5   180   179    1
     6   180   181    1
     7   179   175   am
     8   182   181    2
     9   181   187   am
    10   177   174    1
    11   177   178    1
    12   175   174    1
    13   175   176    2
    14   174   173    1
    15   187   188    1
    16   169   168    2
    17   188   189    1
    18   188   191    1
    19   189   190    2
    20   173   168   am
    21   168   167    1
    22   138   137    2
    23   136   137    1
    24   136   135    1
    25   192   191    1
    26   192   193    1
    27   135   129   am
    28   171   170    1
    29   171   172    1
    30   170   167    1
    31    41    42    1
    32   167   166    1
    33   172   166    1
    34   164   163    2
    35   166   159   am
    36   193   195   am
    37   193   194    2
    38   161   162    1
    39   161   158    1
    40   129   130    2
    41   129   128    1
    42    42    43    1
    43    42    45    1
    44   163   162    1
    45   163   165   am
    46   159   160    2
    47   159   158    1
    48    43    44    2
    49    36    37    2
    50    36    35    1
    51   158   157    1
    52   131   128    1
    53   131   132    1
    54   128   127    1
    55    46    45    1
    56    46    48    1
    57   134   132    1
    58    45    47    1
    59   133   132    1
    60    34    35    1
    61    35    38    1
    62   121   120    2
    63   157   151   am
    64   127   120   am
    65   120   119    1
    66    39    38    1
    67    38    40    1
    68   126   124   ar
    69   151   152    2
    70   151   150    1
    71   123   124    1
    72   123   122    1
    73   149   150    1
    74   116   115    1
    75   124   125   ar
    76   119   122    1
    77   119   118    1
    78   150   153    1
    79   117   115    1
    80   118   112   am
    81   115   114    1
    82   156   154   ar
    83   114   111    1
    84   153   154    1
    85   154   155   ar
    86   112   111    1
    87   112   113    2
    88   111   110    1
    89   139   140    1
    90     7     6    2
    91    28    29    1
    92    28    25    1
    93   140   141    1
    94   140   143    1
    95   148   146   ar
    96   148   147   ar
    97     8     6   am
    98   146   144   ar
    99   110   102   am
   100   141   142    2
   101    72    69    1
   102    29    31   ar
   103    29    30   ar
   104    31    33   ar
   105   103   102    2
   106    27    26    2
   107     6     5    1
   108   147   145   ar
   109    25    26    1
   110    25    24    1
   111   144   145   ar
   112   144   143    1
   113   102   101    1
   114    30    32   ar
   115    52    51    2
   116    33    32   ar
   117    68    69    1
   118    68    62   am
   119    69    70    1
   120   104   101    1
   121   104   105    1
   122    61    62    1
   123    61    64    1
   124    61    60    1
   125    66    64    1
   126    62    63    2
   127     1     2    1
   128    64    65    1
   129     5     2    1
   130   101   100    1
   131    51    60   am
   132    51    50    1
   133    99    98   ar
   134    99    97   ar
   135    98    96   ar
   136     2     3    1
   137   106   105   ar
   138   106   108   ar
   139    89    88    1
   140   105   107   ar
   141    70    73   am
   142    70    71    2
   143    49    50    1
   144    53    50    1
   145    53    54    1
   146   100    92   am
   147    73    74    1
   148    97    95   ar
   149   108   109   ar
   150    65    67    1
   151    96    95   ar
   152    55    54   ar
   153    55    57   ar
   154   107   109   ar
   155     3     9   am
   156     3     4    2
   157    88    85    1
   158    54    56   ar
   159     9    10    1
   160    95    94    1
   161    92    93    2
   162    92    91    1
   163    82    81    1
   164    74    75    1
   165    23    21    1
   166    57    59   ar
   167    12    11    2
   168    85    84    1
   169    85    86    1
   170    84    79   am
   171    77    75   am
   172    77    78    1
   173    56    58   ar
   174    91    94    1
   175    91    90    1
   176    10    11    1
   177    10    13    1
   178    75    76    2
   179    11    16   am
   180    15    13    1
   181    81    83    1
   182    81    78    1
   183    21    20    1
   184    21    22    1
   185    59    58   ar
   186    79    78    1
   187    79    80    2
   188    13    14    1
   189    20    17    1
   190    86    87    2
   191    16    17    1
   192    17    18    1
   193    18    19    2
