@<TRIPOS>MOLECULE
tmp/4zrtA00.pdb
 150 145 0 0 0
SMALL
GASTEIGER

@<TRIPOS>ATOM
      1  N         17.7160  -16.8470    5.2540 N.3    23  ARG23      -0.1245
      2  CA        17.6280  -16.8250    3.8120 C.3    23  ARG23       0.1563
      3  C         17.4100  -18.2050    3.2880 C.2    23  ARG23       0.2260
      4  O         16.4970  -18.4540    2.4730 O.2    23  ARG23      -0.2867
      5  CB        18.8670  -16.2360    3.1440 C.3    23  ARG23       0.0307
      6  CG        18.8070  -14.7330    2.9600 C.3    23  ARG23       0.0489
      7  CD        19.9540  -14.0880    2.1640 C.3    23  ARG23       0.2205
      8  NE        19.5950  -12.7070    1.8580 N.pl3  23  ARG23      -0.0865
      9  CZ        20.3900  -11.7580    1.3890 C.cat  23  ARG23       0.5346
     10  NH1       21.6890  -11.9900    1.1730 N.pl3  23  ARG23       0.1354
     11  NH2       19.8780  -10.5630    1.1820 N.pl3  23  ARG23       0.1354
     12  N          9.7150   -2.7210  -10.2340 N.3    44  ARG44      -0.1231
     13  CA        10.9860   -1.9510  -10.1350 C.3    44  ARG44       0.1694
     14  C         12.2490   -2.7880  -10.2360 C.2    44  ARG44       0.2592
     15  O         13.2900   -2.3340  -10.8740 O.2    44  ARG44      -0.2718
     16  CB        11.0100   -1.0990   -8.8300 C.3    44  ARG44       0.0321
     17  CG        12.2600   -0.2390   -8.6500 C.3    44  ARG44       0.0489
     18  CD        12.1100    0.7100   -7.4690 C.3    44  ARG44       0.2205
     19  NE        11.0970    1.7050   -7.6470 N.pl3  44  ARG44      -0.0865
     20  CZ        11.2720    2.8230   -8.3040 C.cat  44  ARG44       0.5346
     21  NH1       12.4910    3.1380   -8.8010 N.pl3  44  ARG44       0.1354
     22  NH2       10.2970    3.6620   -8.4710 N.pl3  44  ARG44       0.1354
     23  N         12.2850   -3.9180   -9.5440 N.am   45  TYR45      -0.1962
     24  CA        13.4230   -4.8790   -9.5150 C.3    45  TYR45       0.1771
     25  C         12.9850   -6.2680   -9.9610 C.2    45  TYR45       0.2619
     26  O         12.0070   -6.7730   -9.4870 O.2    45  TYR45      -0.2715
     27  CB        13.9900   -4.9330   -8.1230 C.3    45  TYR45       0.0574
     28  CG        14.4390   -3.6000   -7.6130 C.ar   45  TYR45      -0.0198
     29  CD1       15.5370   -2.9540   -8.1470 C.ar   45  TYR45      -0.0009
     30  CD2       13.7830   -2.9830   -6.5290 C.ar   45  TYR45      -0.0009
     31  CE1       15.9700   -1.7690   -7.6250 C.ar   45  TYR45       0.0417
     32  CE2       14.1940   -1.7710   -6.0310 C.ar   45  TYR45       0.0417
     33  CZ        15.3290   -1.1900   -6.5620 C.ar   45  TYR45       0.1957
     34  OH        15.7310    0.0260   -6.0700 O.3    45  TYR45      -0.2866
     35  N         13.7380   -6.8700  -10.9050 N.am   46  ARG46      -0.1963
     36  CA        13.5690   -8.2500  -11.3280 C.3    46  ARG46       0.1729
     37  C         13.5850   -9.2770  -10.2140 C.2    46  ARG46       0.2616
     38  O         12.8950  -10.2920  -10.3730 O.2    46  ARG46      -0.2715
     39  CB        14.6430   -8.6490  -12.3820 C.3    46  ARG46       0.0348
     40  CG        14.4200   -7.7890  -13.6650 C.3    46  ARG46       0.0492
     41  CD        13.4740   -8.5560  -14.5420 C.3    46  ARG46       0.2205
     42  NE        12.9050   -7.8850  -15.6760 N.pl3  46  ARG46      -0.0865
     43  CZ        12.2170   -6.7400  -15.7730 C.cat  46  ARG46       0.5346
     44  NH1       11.7970   -6.0740  -14.6800 N.pl3  46  ARG46       0.1354
     45  NH2       11.9790   -6.2650  -17.0190 N.pl3  46  ARG46       0.1354
     46  N         14.3380   -9.0270   -9.1550 N.am   47  ASP47      -0.1957
     47  CA        14.5690   -9.9620   -8.0400 C.3    47  ASP47       0.1840
     48  C         13.6530   -9.7310   -6.8430 C.2    47  ASP47       0.2621
     49  O         13.7470  -10.4470   -5.8700 O.2    47  ASP47      -0.2715
     50  CB        16.0600   -9.9660   -7.5450 C.3    47  ASP47       0.1450
     51  CG        16.5240   -8.6550   -7.0570 C.2    47  ASP47       0.3671
     52  OD1       15.9600   -7.6430   -7.5080 O.co2  47  ASP47      -0.2456
     53  OD2       17.4540   -8.6240   -6.2240 O.co2  47  ASP47      -0.2456
     54  N         12.6070   -8.8770   -7.0000 N.am   48  VAL48      -0.1977
     55  CA        11.6440   -8.6330   -5.8820 C.3    48  VAL48       0.1596
     56  C         10.2450   -8.6280   -6.4950 C.2    48  VAL48       0.2287
     57  O          9.8430   -7.6770   -7.1680 O.2    48  VAL48      -0.2864
     58  CB        11.8350   -7.2760   -5.2140 C.3    48  VAL48       0.0276
     59  CG1       10.8770   -7.0830   -4.0510 C.3    48  VAL48       0.0022
     60  CG2       13.3010   -7.1460   -4.7520 C.3    48  VAL48       0.0022
     61  N         14.9830    5.9980   -6.8080 N.3   119  LYS119     -0.1245
     62  CA        14.5620    4.7830   -6.0740 C.3   119  LYS119      0.1561
     63  C         13.0620    4.6450   -5.9190 C.2   119  LYS119      0.2260
     64  O         12.5760    3.5710   -5.4200 O.2   119  LYS119     -0.2867
     65  CB        15.1830    4.7770   -4.7050 C.3   119  LYS119      0.0271
     66  CG        16.6940    4.7540   -4.8020 C.3   119  LYS119      0.0035
     67  CD        17.2190    3.4080   -5.1760 C.3   119  LYS119      0.0206
     68  CE        18.5490    3.4440   -5.8670 C.3   119  LYS119      0.1093
     69  NZ        19.6310    3.3810   -4.8350 N.3   119  LYS119     -0.1314
     70  N         19.6760    3.1780    2.4650 N.3   180  ASP180     -0.1225
     71  CA        19.5300    1.9390    1.7270 C.3   180  ASP180      0.1805
     72  C         20.5750    0.9850    2.2930 C.2   180  ASP180      0.2597
     73  O         21.6990    1.4090    2.5790 O.2   180  ASP180     -0.2718
     74  CB        19.7270    2.1050    0.2370 C.3   180  ASP180      0.1424
     75  CG        20.9420    2.9470   -0.1080 C.2   180  ASP180      0.3668
     76  OD1       21.0080    4.1690    0.2700 O.co2 180  ASP180     -0.2456
     77  OD2       21.8320    2.3690   -0.7550 O.co2 180  ASP180     -0.2456
     78  N         20.1790   -0.2530    2.4610 N.am  181  PHE181     -0.1976
     79  CA        20.9590   -1.3380    3.0810 C.3   181  PHE181      0.1639
     80  C         21.5820   -1.0080    4.4180 C.2   181  PHE181      0.2290
     81  O         22.5010   -1.6810    4.8290 O.2   181  PHE181     -0.2864
     82  CB        21.8800   -2.0490    2.0530 C.3   181  PHE181      0.0560
     83  CG        21.0640   -2.6040    0.8830 C.ar  181  PHE181     -0.0200
     84  CD1       20.1330   -3.6960    1.0910 C.ar  181  PHE181     -0.0042
     85  CD2       21.0320   -1.9380   -0.3630 C.ar  181  PHE181     -0.0042
     86  CE1       19.3150   -4.1890    0.0670 C.ar  181  PHE181     -0.0003
     87  CE2       20.1860   -2.3960   -1.3710 C.ar  181  PHE181     -0.0003
     88  CZ        19.3610   -3.5480   -1.1740 C.ar  181  PHE181     -0.0000
     89  N          9.5630    0.8880    0.9150 N.3   214  SER214     -0.1202
     90  CA        10.9050    1.4000    0.7460 C.3   214  SER214      0.2020
     91  C         11.1710    1.5480   -0.7290 C.2   214  SER214      0.2619
     92  O         10.2530    1.9280   -1.4890 O.2   214  SER214     -0.2717
     93  CB        11.8240    0.5150    1.5090 C.3   214  SER214      0.2103
     94  OG        11.4950   -0.8340    1.3140 O.3   214  SER214     -0.2182
     95  N         12.3510    1.2540   -1.2230 N.am  215  SER215     -0.1937
     96  CA        12.5350    1.1840   -2.7000 C.3   215  SER215      0.2055
     97  C         11.9950   -0.1320   -3.2550 C.2   215  SER215      0.2643
     98  O         11.1670   -0.1250   -4.1740 O.2   215  SER215     -0.2714
     99  CB        13.9860    1.3990   -3.1270 C.3   215  SER215      0.2130
    100  OG        14.0240    1.4430   -4.5350 O.3   215  SER215     -0.2179
    101  N         12.3190   -1.2490   -2.6290 N.am  216  ALA216     -0.1963
    102  CA        11.8610   -2.5530   -3.0300 C.3   216  ALA216      0.1728
    103  C         10.6920   -3.0270   -2.2310 C.2   216  ALA216      0.2617
    104  O         10.0030   -3.9120   -2.6560 O.2   216  ALA216     -0.2715
    105  CB        12.9320   -3.5310   -2.8990 C.3   216  ALA216      0.0334
    106  N         10.4880   -2.4610   -1.0670 N.am  217  GLY217     -0.1940
    107  CA         9.4310   -2.9010   -0.1420 C.3   217  GLY217      0.2014
    108  C          9.7900   -4.1740    0.5750 C.2   217  GLY217      0.2639
    109  O          8.8950   -4.9630    0.9190 O.2   217  GLY217     -0.2714
    110  N         11.0750   -4.3990    0.8110 N.am  218  ILE218     -0.1963
    111  CA        11.4800   -5.5480    1.6050 C.3   218  ILE218      0.1727
    112  C         12.4830   -5.2840    2.7370 C.2   218  ILE218      0.2617
    113  O         12.4490   -5.9940    3.7420 O.2   218  ILE218     -0.2715
    114  CB        12.0010   -6.7170    0.7650 C.3   218  ILE218      0.0290
    115  CG1       13.2880   -6.3360    0.0060 C.3   218  ILE218      0.0022
    116  CG2       10.9320   -7.1630   -0.1610 C.3   218  ILE218      0.0023
    117  CD1       13.7860   -7.4270   -0.9700 C.3   218  ILE218      0.0001
    118  N         13.4830   -4.3980    2.5550 N.am  219  GLY219     -0.1940
    119  CA        14.6390   -4.3680    3.5250 C.3   219  GLY219      0.2014
    120  C         14.3840   -3.4830    4.7530 C.2   219  GLY219      0.2638
    121  O         14.1770   -3.9480    5.8650 O.2   219  GLY219     -0.2714
    122  N         14.3050   -2.1740    4.5250 N.am  220  ARG220     -0.1977
    123  CA        13.8080   -1.2770    5.4950 C.3   220  ARG220      0.1597
    124  C         12.3970   -1.5910    5.9520 C.2   220  ARG220      0.2287
    125  O         12.0790   -1.4860    7.1470 O.2   220  ARG220     -0.2864
    126  CB        13.9690    0.1670    4.9890 C.3   220  ARG220      0.0334
    127  CG        15.4470    0.5950    4.9640 C.3   220  ARG220      0.0492
    128  CD        15.7590    1.8420    4.1420 C.3   220  ARG220      0.2205
    129  NE        15.6960    1.5790    2.6960 N.pl3 220  ARG220     -0.0865
    130  CZ        15.9110    2.5080    1.7910 C.cat 220  ARG220      0.5346
    131  NH1       16.2740    3.7290    2.1890 N.pl3 220  ARG220      0.1354
    132  NH2       15.7530    2.2100    0.5240 N.pl3 220  ARG220      0.1354
    133  N         17.1600   -7.2430    4.6040 N.3   261  GLN261     -0.1245
    134  CA        18.0990   -7.4300    3.5390 C.3   261  GLN261      0.1566
    135  C         19.5670   -7.6570    3.9650 C.2   261  GLN261      0.2260
    136  O         20.3010   -8.0880    3.1380 O.2   261  GLN261     -0.2867
    137  CB        17.9930   -6.3060    2.5290 C.3   261  GLN261      0.0367
    138  CG        16.8260   -6.7120    1.6210 C.3   261  GLN261      0.0905
    139  CD        17.1270   -7.9480    0.6910 C.2   261  GLN261      0.2608
    140  OE1       16.6150   -9.1370    0.8920 O.2   261  GLN261     -0.2717
    141  NE2       18.0090   -7.6870   -0.3320 N.am  261  GLN261     -0.0878
    142  N         20.6860   -5.2290    9.5700 N.3   265  GLN265     -0.1245
    143  CA        19.2350   -4.9470    9.7870 C.3   265  GLN265      0.1566
    144  C         18.5930   -5.9190   10.7610 C.2   265  GLN265      0.2260
    145  O         17.7850   -5.5310   11.5790 O.2   265  GLN265     -0.2867
    146  CB        18.5420   -4.9540    8.4050 C.3   265  GLN265      0.0367
    147  CG        18.7920   -3.6490    7.6430 C.3   265  GLN265      0.0905
    148  CD        18.2980   -3.6710    6.2280 C.2   265  GLN265      0.2608
    149  OE1       17.8240   -4.6920    5.7280 O.2   265  GLN265     -0.2717
    150  NE2       18.3760   -2.5230    5.5610 N.am  265  GLN265     -0.0878
@<TRIPOS>BOND
     1    45    43    1
     2    43    42    2
     3    43    44    1
     4    42    41    1
     5    41    40    1
     6    40    39    1
     7    39    36    1
     8    36    35    1
     9    36    37    1
    10    35    25   am
    11    15    14    2
    12    38    37    2
    13    14    13    1
    14    14    23   am
    15    12    13    1
    16    37    46   am
    17    13    16    1
    18    25    24    1
    19    25    26    2
    20    23    24    1
    21    24    27    1
    22    46    47    1
    23    16    17    1
    24    21    20    1
    25    17    18    1
    26    22    20    1
    27    20    19    2
    28    29    31   ar
    29    29    28   ar
    30    27    28    1
    31    47    50    1
    32    47    48    1
    33    19    18    1
    34    31    33   ar
    35    28    30   ar
    36    50    51    1
    37    52    51   ar
    38    57    56    2
    39    51    53   ar
    40    54    48   am
    41    54    55    1
    42    48    49    2
    43    61    62    1
    44    33    34    1
    45    33    32   ar
    46    30    32   ar
    47    56    55    1
    48    62    63    1
    49    62    65    1
    50    63    64    2
    51    55    58    1
    52    68    67    1
    53    68    69    1
    54    58    60    1
    55    58    59    1
    56    67    66    1
    57    66    65    1
    58   100    99    1
    59    98    97    2
    60    97    96    1
    61    97   101   am
    62    99    96    1
    63   102   105    1
    64   102   101    1
    65   102   103    1
    66    96    95    1
    67   104   103    2
    68   103   106   am
    69    92    91    2
    70    87    88   ar
    71    87    85   ar
    72    95    91   am
    73    88    86   ar
    74   106   107    1
    75   117   115    1
    76    77    75   ar
    77    91    90    1
    78    85    83   ar
    79   141   139   am
    80   116   114    1
    81   107   108    1
    82    75    74    1
    83    75    76   ar
    84   115   114    1
    85    86    84   ar
    86    74    71    1
    87   132   130    1
    88   108   110   am
    89   108   109    2
    90   139   140    2
    91   139   138    1
    92    90    89    1
    93    90    93    1
    94   114   111    1
    95   110   111    1
    96    83    84   ar
    97    83    82    1
    98    10     9    1
    99    11     9    1
   100    94    93    1
   101     9     8    2
   102   111   112    1
   103   138   137    1
   104    71    72    1
   105    71    70    1
   106   130   131    1
   107   130   129    2
   108     8     7    1
   109    82    79    1
   110     7     6    1
   111    72    78   am
   112    72    73    2
   113    78    79    1
   114     4     3    2
   115   137   134    1
   116   118   112   am
   117   118   119    1
   118   129   128    1
   119   112   113    2
   120     6     5    1
   121    79    80    1
   122   136   135    2
   123     5     2    1
   124     3     2    1
   125   119   120    1
   126   134   135    1
   127   134   133    1
   128     2     1    1
   129   128   127    1
   130    80    81    2
   131   122   120   am
   132   122   123    1
   133   120   121    2
   134   127   126    1
   135   126   123    1
   136   123   124    1
   137   150   148   am
   138   149   148    2
   139   124   125    2
   140   148   147    1
   141   147   146    1
   142   146   143    1
   143   142   143    1
   144   143   144    1
   145   144   145    2
