@<TRIPOS>MOLECULE
tmp/4zs0A00.pdb
 153 144 0 0 0
SMALL
GASTEIGER

@<TRIPOS>ATOM
      1  N          5.5130   28.1770   -4.9750 N.3    11  ARG11      -0.1245
      2  CA         4.8890   27.9840   -3.6750 C.3    11  ARG11       0.1563
      3  C          3.4470   27.5360   -3.8090 C.2    11  ARG11       0.2260
      4  O          2.8150   27.7810   -4.8380 O.2    11  ARG11      -0.2867
      5  CB         4.9690   29.2690   -2.8670 C.3    11  ARG11       0.0307
      6  CG         4.0410   30.3750   -3.3230 C.3    11  ARG11       0.0489
      7  CD         4.4290   31.7020   -2.6790 C.3    11  ARG11       0.2205
      8  NE         3.5350   32.7730   -3.1000 N.pl3  11  ARG11      -0.0865
      9  CZ         2.3290   32.9810   -2.5960 C.cat  11  ARG11       0.5346
     10  NH1        1.8620   32.1940   -1.6330 N.pl3  11  ARG11       0.1354
     11  NH2        1.5870   33.9780   -3.0620 N.pl3  11  ARG11       0.1354
     12  N         -0.3190   28.0450   -3.4020 N.3    13  LEU13      -0.1231
     13  CA        -1.0790   29.2790   -3.3360 C.3    13  LEU13       0.1693
     14  C         -2.3030   29.1140   -2.4680 C.2    13  LEU13       0.2592
     15  O         -2.6030   29.9910   -1.6660 O.2    13  LEU13      -0.2718
     16  CB        -1.4670   29.7610   -4.7390 C.3    13  LEU13       0.0284
     17  CG        -0.3020   30.2690   -5.6040 C.3    13  LEU13       0.0019
     18  CD1       -0.7590   30.5370   -7.0270 C.3    13  LEU13       0.0001
     19  CD2        0.3500   31.5140   -5.0250 C.3    13  LEU13       0.0001
     20  N         -3.0010   27.9950   -2.6300 N.am   14  GLY14      -0.1957
     21  CA        -4.2020   27.7040   -1.8480 C.3    14  GLY14       0.1869
     22  C         -4.3920   26.2100   -1.6240 C.2    14  GLY14       0.2309
     23  O         -4.1140   25.3990   -2.5150 O.2    14  GLY14      -0.2863
     24  N         -3.4410   24.3940   -5.1920 N.3    21  VAL21      -0.1245
     25  CA        -3.1220   25.2090   -6.3450 C.3    21  VAL21       0.1561
     26  C         -1.7620   25.8410   -6.0940 C.2    21  VAL21       0.2260
     27  O         -1.5660   26.5210   -5.0960 O.2    21  VAL21      -0.2867
     28  CB        -4.1880   26.3000   -6.5450 C.3    21  VAL21       0.0252
     29  CG1       -3.8490   27.1800   -7.7350 C.3    21  VAL21       0.0019
     30  CG2       -5.5570   25.6620   -6.7200 C.3    21  VAL21       0.0019
     31  N         -0.8630   29.3590  -12.5360 N.3    34  ALA34      -0.1245
     32  CA        -1.2540   28.5110  -11.4190 C.3    34  ALA34       0.1562
     33  C         -1.4730   27.0990  -11.9150 C.2    34  ALA34       0.2260
     34  O         -1.9910   26.8820  -13.0150 O.2    34  ALA34      -0.2867
     35  CB        -2.5250   29.0350  -10.7670 C.3    34  ALA34       0.0290
     36  N         -3.3300   23.7240  -10.6260 N.3    36  LYS36      -0.1245
     37  CA        -4.2190   23.0810   -9.6560 C.3    36  LYS36       0.1561
     38  C         -4.1020   21.5760   -9.7760 C.2    36  LYS36       0.2260
     39  O         -4.4590   21.0180  -10.8060 O.2    36  LYS36      -0.2867
     40  CB        -5.6650   23.5030   -9.8950 C.3    36  LYS36       0.0271
     41  CG        -6.6660   22.8160   -8.9880 C.3    36  LYS36       0.0035
     42  CD        -8.0330   23.4700   -9.0800 C.3    36  LYS36       0.0206
     43  CE        -8.8650   23.1540   -7.8500 C.3    36  LYS36       0.1093
     44  NZ       -10.3110   23.3930   -8.0740 N.3    36  LYS36      -0.1314
     45  N        -11.3560   33.9100  -14.8080 N.3    68  LEU68      -0.1245
     46  CA       -10.0510   33.2680  -14.7670 C.3    68  LEU68       0.1561
     47  C         -9.9090   32.2900  -15.9200 C.2    68  LEU68       0.2260
     48  O        -10.7830   31.4580  -16.1600 O.2    68  LEU68      -0.2867
     49  CB        -9.8360   32.5210  -13.4530 C.3    68  LEU68       0.0270
     50  CG        -8.3560   32.3730  -13.1200 C.3    68  LEU68       0.0019
     51  CD1       -7.7990   33.7080  -12.6540 C.3    68  LEU68       0.0001
     52  CD2       -8.1300   31.3160  -12.0630 C.3    68  LEU68       0.0001
     53  N         -3.8020   27.0420  -15.0940 N.3    84  LEU84      -0.1231
     54  CA        -4.7220   28.1290  -14.8150 C.3    84  LEU84       0.1693
     55  C         -4.0600   29.5060  -14.8060 C.2    84  LEU84       0.2592
     56  O         -2.8710   29.6340  -14.5420 O.2    84  LEU84      -0.2718
     57  CB        -5.4140   27.8460  -13.4820 C.3    84  LEU84       0.0284
     58  CG        -6.6220   26.9000  -13.5910 C.3    84  LEU84       0.0019
     59  CD1       -6.8950   26.1240  -12.3070 C.3    84  LEU84       0.0001
     60  CD2       -7.8530   27.6970  -13.9800 C.3    84  LEU84       0.0001
     61  N         -4.8530   30.5300  -15.1100 N.am   85  GLU85      -0.1966
     62  CA        -4.4080   31.9260  -15.0040 C.3    85  GLU85       0.1733
     63  C         -3.9570   32.1830  -13.5760 C.2    85  GLU85       0.2616
     64  O         -4.6710   31.8470  -12.6360 O.2    85  GLU85      -0.2715
     65  CB        -5.5410   32.9020  -15.3850 C.3    85  GLU85       0.0429
     66  CG        -5.1070   34.3110  -15.7670 C.3    85  GLU85       0.1163
     67  CD        -6.2800   35.2450  -16.0650 C.2    85  GLU85       0.3649
     68  OE1       -6.0990   36.4720  -15.9670 O.co2  85  GLU85      -0.2457
     69  OE2       -7.3920   34.7810  -16.3950 O.co2  85  GLU85      -0.2457
     70  N         -2.7690   32.7460  -13.4180 N.am   86  TYR86      -0.1960
     71  CA        -2.2920   33.1360  -12.1050 C.3    86  TYR86       0.1771
     72  C         -2.7840   34.5460  -11.8060 C.2    86  TYR86       0.2619
     73  O         -2.4990   35.4770  -12.5640 O.2    86  TYR86      -0.2715
     74  CB        -0.7670   33.0720  -12.0470 C.3    86  TYR86       0.0574
     75  CG        -0.1440   33.9010  -10.9620 C.ar   86  TYR86      -0.0198
     76  CD1       -0.3350   33.5830   -9.6210 C.ar   86  TYR86      -0.0009
     77  CD2        0.6370   34.9970  -11.2700 C.ar   86  TYR86      -0.0009
     78  CE1        0.2350   34.3400   -8.6120 C.ar   86  TYR86       0.0417
     79  CE2        1.2140   35.7590  -10.2680 C.ar   86  TYR86       0.0417
     80  CZ         1.0070   35.4270   -8.9400 C.ar   86  TYR86       0.1957
     81  OH         1.5840   36.1920   -7.9430 O.3    86  TYR86      -0.2866
     82  N         -3.5230   34.6860  -10.7040 N.am   87  ALA87      -0.1964
     83  CA        -4.0830   35.9740  -10.2730 C.3    87  ALA87       0.1713
     84  C         -3.3190   36.5030   -9.0370 C.2    87  ALA87       0.2458
     85  O         -3.6110   36.0950   -7.9160 O.2    87  ALA87      -0.2730
     86  CB        -5.5620   35.8140   -9.9650 C.3    87  ALA87       0.0333
     87  N         -2.3370   37.4100   -9.2480 N.am   88  PRO88      -0.2716
     88  CA        -1.3810   37.8950   -8.2440 C.3    88  PRO88       0.1536
     89  C         -1.9030   38.2820   -6.8590 C.2    88  PRO88       0.2598
     90  O         -1.2760   37.9190   -5.8690 O.2    88  PRO88      -0.2715
     91  CB        -0.8060   39.1460   -8.9030 C.3    88  PRO88       0.0310
     92  CG        -0.8340   38.8420  -10.3400 C.3    88  PRO88       0.0237
     93  CD        -2.0920   38.0530  -10.5530 C.3    88  PRO88       0.0939
     94  N         -3.0140   39.0140   -6.7830 N.am   89  LEU89      -0.1964
     95  CA        -3.4430   39.6190   -5.5090 C.3    89  LEU89       0.1728
     96  C         -4.4200   38.7600   -4.7020 C.2    89  LEU89       0.2617
     97  O         -5.0640   39.2420   -3.7580 O.2    89  LEU89      -0.2715
     98  CB        -4.0220   41.0210   -5.7390 C.3    89  LEU89       0.0311
     99  CG        -3.1970   41.9090   -6.6750 C.3    89  LEU89       0.0022
    100  CD1       -3.7110   43.3390   -6.6680 C.3    89  LEU89       0.0001
    101  CD2       -1.7210   41.8740   -6.3120 C.3    89  LEU89       0.0001
    102  N         -4.5150   37.4870   -5.0580 N.am   90  GLY90      -0.1940
    103  CA        -5.2540   36.5440   -4.2550 C.3    90  GLY90       0.2014
    104  C         -6.7520   36.7100   -4.3600 C.2    90  GLY90       0.2639
    105  O         -7.2640   37.2490   -5.3490 O.2    90  GLY90      -0.2714
    106  N         -7.4430   36.2470   -3.3180 N.am   91  THR91      -0.1950
    107  CA        -8.8880   36.1710   -3.3160 C.3    91  THR91       0.1897
    108  C         -9.5200   37.3350   -2.6080 C.2    91  THR91       0.2313
    109  O         -8.9010   38.0270   -1.7970 O.2    91  THR91      -0.2863
    110  CB        -9.3950   34.8960   -2.6310 C.3    91  THR91       0.1794
    111  OG1       -9.0570   34.9050   -1.2390 O.3    91  THR91      -0.2208
    112  CG2       -8.8000   33.6620   -3.2880 C.3    91  THR91       0.0378
    113  N         -9.6830   36.6580    1.3130 N.3    94  ARG94      -0.1245
    114  CA        -8.5320   37.1480    2.0840 C.3    94  ARG94       0.1563
    115  C         -8.5600   38.6710    2.2280 C.2    94  ARG94       0.2260
    116  O         -8.0890   39.2290    3.2210 O.2    94  ARG94      -0.2867
    117  CB        -7.2030   36.6960    1.4250 C.3    94  ARG94       0.0307
    118  CG        -6.0350   36.6530    2.4040 C.3    94  ARG94       0.0489
    119  CD        -4.8310   35.9160    1.8190 C.3    94  ARG94       0.2205
    120  NE        -5.2350   34.6710    1.1670 N.pl3  94  ARG94      -0.0865
    121  CZ        -5.1360   34.4490   -0.1450 C.cat  94  ARG94       0.5346
    122  NH1       -4.6340   35.3830   -0.9490 N.pl3  94  ARG94       0.1354
    123  NH2       -5.5970   33.3170   -0.6620 N.pl3  94  ARG94       0.1354
    124  N        -14.3640   33.2480   -1.6500 N.3   134  GLU134     -0.1245
    125  CA       -13.3450   32.2270   -1.9030 C.3   134  GLU134      0.1567
    126  C        -13.1090   31.9700   -3.4010 C.2   134  GLU134      0.2260
    127  O        -11.9810   31.7190   -3.8100 O.2   134  GLU134     -0.2867
    128  CB       -13.7220   30.8980   -1.2550 C.3   134  GLU134      0.0388
    129  CG       -13.6040   30.8470    0.2570 C.3   134  GLU134      0.1160
    130  CD       -14.9460   30.8710    0.9840 C.2   134  GLU134      0.3649
    131  OE1      -15.8410   31.6570    0.5870 O.co2 134  GLU134     -0.2457
    132  OE2      -15.0880   30.1110    1.9760 O.co2 134  GLU134     -0.2457
    133  N        -11.1240   36.0230   -7.5500 N.3   137  LEU137     -0.1245
    134  CA        -9.7100   36.3140   -7.5190 C.3   137  LEU137      0.1561
    135  C         -9.4430   37.7020   -8.0620 C.2   137  LEU137      0.2260
    136  O        -10.3420   38.3440   -8.5910 O.2   137  LEU137     -0.2867
    137  CB        -8.9660   35.2710   -8.3300 C.3   137  LEU137      0.0270
    138  CG        -8.8110   33.9840   -7.5460 C.3   137  LEU137      0.0019
    139  CD1       -8.2940   32.8690   -8.4440 C.3   137  LEU137      0.0001
    140  CD2       -7.8620   34.2370   -6.3830 C.3   137  LEU137      0.0001
    141  N        -13.3680   32.3940  -10.6180 N.3   147  ALA147     -0.1231
    142  CA       -12.6750   31.1350  -10.8270 C.3   147  ALA147      0.1694
    143  C        -13.5080   29.9770  -10.3060 C.2   147  ALA147      0.2592
    144  O        -14.6740   30.1520   -9.9710 O.2   147  ALA147     -0.2718
    145  CB       -11.3330   31.1760  -10.1270 C.3   147  ALA147      0.0304
    146  N        -12.8990   28.7930  -10.2580 N.am  148  ASP148     -0.1974
    147  CA       -13.4940   27.6150   -9.6270 C.3   148  ASP148      0.1709
    148  C        -14.9060   27.3870  -10.1730 C.2   148  ASP148      0.2293
    149  O        -15.9140   27.6490   -9.5170 O.2   148  ASP148     -0.2864
    150  CB       -13.4550   27.7390   -8.0940 C.3   148  ASP148      0.1436
    151  CG       -12.0090   27.8680   -7.5340 C.2   148  ASP148      0.3671
    152  OD1      -11.3060   26.8390   -7.3670 O.co2 148  ASP148     -0.2456
    153  OD2      -11.5710   29.0090   -7.2440 O.co2 148  ASP148     -0.2456
@<TRIPOS>BOND
     1    69    67   ar
     2    48    47    2
     3    67    68   ar
     4    67    66    1
     5    47    46    1
     6    66    65    1
     7    65    62    1
     8    61    62    1
     9    61    55   am
    10    53    54    1
    11    62    63    1
    12    54    55    1
    13    54    57    1
    14    45    46    1
    15    55    56    2
    16    46    49    1
    17    60    58    1
    18    58    57    1
    19    58    59    1
    20    63    70   am
    21    63    64    2
    22    49    50    1
    23    70    71    1
    24    50    51    1
    25    50    52    1
    26    34    33    2
    27    73    72    2
    28    31    32    1
    29    71    74    1
    30    71    72    1
    31    74    75    1
    32    33    32    1
    33    72    82   am
    34    32    35    1
    35    77    75   ar
    36    77    79   ar
    37    75    76   ar
    38   142   141    1
    39   142   143    1
    40   142   145    1
    41    39    38    2
    42    82    83    1
    43    36    37    1
    44    93    92    1
    45    93    87    1
    46    92    91    1
    47   143   146   am
    48   143   144    2
    49    83    86    1
    50    83    84    1
    51    79    80   ar
    52   146   147    1
    53   148   147    1
    54   148   149    2
    55    40    37    1
    56    40    41    1
    57    38    37    1
    58   147   150    1
    59    76    78   ar
    60    87    84   am
    61    87    88    1
    62    42    41    1
    63    42    43    1
    64    84    85    2
    65    80    78   ar
    66    80    81    1
    67    91    88    1
    68   136   135    2
    69   139   138    1
    70   137   138    1
    71   137   134    1
    72    88    89    1
    73   150   151    1
    74    44    43    1
    75   135   134    1
    76    29    28    1
    77   133   134    1
    78   138   140    1
    79   151   152   ar
    80   151   153   ar
    81    18    17    1
    82    89    94   am
    83    89    90    2
    84    94    95    1
    85    30    28    1
    86    99   100    1
    87    99   101    1
    88    99    98    1
    89    28    25    1
    90    25    26    1
    91    25    24    1
    92    26    27    2
    93    98    95    1
    94    17    19    1
    95    17    16    1
    96    95    96    1
    97   105   104    2
    98   102    96   am
    99   102   103    1
   100     1     2    1
   101     4     3    2
   102    16    13    1
   103    96    97    2
   104   104   103    1
   105   104   106   am
   106   127   126    2
   107     3     2    1
   108     2     5    1
   109    12    13    1
   110   126   125    1
   111    13    14    1
   112     6     5    1
   113     6     7    1
   114   106   107    1
   115   107   110    1
   116   107   108    1
   117   112   110    1
   118     8     7    1
   119     8     9    2
   120    11     9    1
   121   110   111    1
   122    20    14   am
   123    20    21    1
   124   108   109    2
   125     9    10    1
   126    23    22    2
   127    14    15    2
   128   125   124    1
   129   125   128    1
   130    21    22    1
   131   128   129    1
   132   122   121    1
   133   123   121    1
   134   121   120    2
   135   129   130    1
   136   131   130   ar
   137   130   132   ar
   138   120   119    1
   139   113   114    1
   140   117   114    1
   141   117   118    1
   142   119   118    1
   143   114   115    1
   144   115   116    2
