@<TRIPOS>MOLECULE
tmp/4zs2A01.pdb
 161 156 0 0 0
SMALL
GASTEIGER

@<TRIPOS>ATOM
      1  N        170.9240   13.9820   36.4990 N.3    56  VAL56      -0.1245
      2  CA       169.9940   12.8510   36.4480 C.3    56  VAL56       0.1561
      3  C        169.9690   12.1180   37.7900 C.2    56  VAL56       0.2260
      4  O        170.7580   12.4030   38.6770 O.2    56  VAL56      -0.2867
      5  CB       170.3110   11.8760   35.2850 C.3    56  VAL56       0.0252
      6  CG1      170.2590   12.6040   33.9540 C.3    56  VAL56       0.0019
      7  CG2      171.6630   11.1860   35.4560 C.3    56  VAL56       0.0019
      8  N        169.7650    8.2300   39.3680 N.3    58  ILE58      -0.1245
      9  CA       169.8560    6.7950   39.1160 C.3    58  ILE58       0.1561
     10  C        170.1570    6.0440   40.4200 C.2    58  ILE58       0.2260
     11  O        171.0590    6.4060   41.1930 O.2    58  ILE58      -0.2867
     12  CB       170.8470    6.4500   37.9700 C.3    58  ILE58       0.0252
     13  CG1      171.6110    5.1510   38.2610 C.3    58  ILE58       0.0019
     14  CG2      171.8160    7.5910   37.7040 C.3    58  ILE58       0.0019
     15  CD1      172.5740    4.7410   37.1650 C.3    58  ILE58       0.0001
     16  N        173.4640   12.5130   39.9590 N.3    63  LEU63      -0.1231
     17  CA       174.6990   12.4710   39.2040 C.3    63  LEU63       0.1693
     18  C        174.6520   13.4180   38.0320 C.2    63  LEU63       0.2592
     19  O        173.6210   13.5330   37.3750 O.2    63  LEU63      -0.2718
     20  CB       174.9050   11.0560   38.6540 C.3    63  LEU63       0.0284
     21  CG       174.9380    9.9240   39.6770 C.3    63  LEU63       0.0019
     22  CD1      175.0540    8.5900   38.9610 C.3    63  LEU63       0.0001
     23  CD2      176.0960   10.1250   40.6360 C.3    63  LEU63       0.0001
     24  N        175.7730   14.0800   37.7670 N.am   64  LEU64      -0.1966
     25  CA       175.9540   14.8400   36.5370 C.3    64  LEU64       0.1728
     26  C        176.3330   13.8880   35.4160 C.2    64  LEU64       0.2617
     27  O        177.1750   13.0170   35.6150 O.2    64  LEU64      -0.2715
     28  CB       177.0650   15.8790   36.6990 C.3    64  LEU64       0.0311
     29  CG       176.6700   17.2890   37.1350 C.3    64  LEU64       0.0022
     30  CD1      177.9290   18.1320   37.2980 C.3    64  LEU64       0.0001
     31  CD2      175.7160   17.9450   36.1370 C.3    64  LEU64       0.0001
     32  N        175.7470   14.0470   34.2330 N.am   65  THR65      -0.1937
     33  CA       176.1420   13.1870   33.1180 C.3    65  THR65       0.2013
     34  C        177.5440   13.5650   32.6170 C.2    65  THR65       0.2484
     35  O        177.8820   14.7420   32.5510 O.2    65  THR65      -0.2729
     36  CB       175.1590   13.2500   31.9310 C.3    65  THR65       0.1807
     37  OG1      174.9990   14.6020   31.4990 O.3    65  THR65      -0.2208
     38  CG2      173.8030   12.6810   32.3240 C.3    65  THR65       0.0379
     39  N        178.3480   12.5610   32.2330 N.am   66  PRO66      -0.2715
     40  CA       179.6760   12.8240   31.6890 C.3    66  PRO66       0.1536
     41  C        179.6010   13.5830   30.3620 C.2    66  PRO66       0.2598
     42  O        180.4930   14.3770   30.0450 O.2    66  PRO66      -0.2715
     43  CB       180.2580   11.4200   31.4870 C.3    66  PRO66       0.0310
     44  CG       179.0710   10.5280   31.2990 C.3    66  PRO66       0.0237
     45  CD       177.9410   11.1470   32.0700 C.3    66  PRO66       0.0939
     46  N        178.5350   13.3420   29.6080 N.am   67  VAL67      -0.1978
     47  CA       178.3270   13.9980   28.3330 C.3    67  VAL67       0.1596
     48  C        177.4120   15.1990   28.5200 C.2    67  VAL67       0.2287
     49  O        176.5190   15.1870   29.3650 O.2    67  VAL67      -0.2864
     50  CB       177.7410   13.0380   27.2690 C.3    67  VAL67       0.0276
     51  CG1      178.6530   11.8230   27.0820 C.3    67  VAL67       0.0022
     52  CG2      176.3380   12.5800   27.6260 C.3    67  VAL67       0.0022
     53  N        174.6140   17.5390   26.4810 N.3    69  ARG69      -0.1245
     54  CA       173.6220   17.1230   25.5120 C.3    69  ARG69       0.1563
     55  C        172.5670   18.1610   25.2170 C.2    69  ARG69       0.2260
     56  O        172.3790   19.1150   25.9740 O.2    69  ARG69      -0.2867
     57  CB       172.9290   15.8250   25.9570 C.3    69  ARG69       0.0307
     58  CG       172.9290   15.5470   27.4540 C.3    69  ARG69       0.0489
     59  CD       172.4810   14.1170   27.7840 C.3    69  ARG69       0.2205
     60  NE       173.0240   13.1240   26.8400 N.pl3  69  ARG69      -0.0865
     61  CZ       172.8270   11.8070   26.9260 C.cat  69  ARG69       0.5346
     62  NH1      172.1270   11.2880   27.9210 N.pl3  69  ARG69       0.1354
     63  NH2      173.3420   11.0000   26.0180 N.pl3  69  ARG69       0.1354
     64  N        164.5380    9.9080   30.0430 N.3    81  TYR81      -0.1227
     65  CA       165.5370    8.8880   30.3790 C.3    81  TYR81       0.1736
     66  C        166.1930    9.2830   31.7080 C.2    81  TYR81       0.2595
     67  O        166.3470   10.4740   32.0040 O.2    81  TYR81      -0.2718
     68  CB       166.5990    8.7820   29.2710 C.3    81  TYR81       0.0548
     69  CG       167.6940    9.8190   29.4290 C.ar   81  TYR81      -0.0200
     70  CD1      167.4110   11.1810   29.3330 C.ar   81  TYR81      -0.0009
     71  CD2      169.0010    9.4420   29.7280 C.ar   81  TYR81      -0.0009
     72  CE1      168.3980   12.1340   29.5030 C.ar   81  TYR81       0.0417
     73  CE2      169.9960   10.3900   29.9000 C.ar   81  TYR81       0.0417
     74  CZ       169.6930   11.7390   29.7850 C.ar   81  TYR81       0.1957
     75  OH       170.6880   12.6930   29.9490 O.3    81  TYR81      -0.2866
     76  N        166.5630    8.2790   32.4970 N.am   82  LEU82      -0.1980
     77  CA       167.2240    8.4770   33.7950 C.3    82  LEU82       0.1596
     78  C        166.4970    9.4940   34.6830 C.2    82  LEU82       0.2287
     79  O        167.1190   10.3450   35.3220 O.2    82  LEU82      -0.2864
     80  CB       168.7030    8.8480   33.5900 C.3    82  LEU82       0.0297
     81  CG       169.5290    7.7930   32.8290 C.3    82  LEU82       0.0022
     82  CD1      171.0030    8.1740   32.7940 C.3    82  LEU82       0.0001
     83  CD2      169.3520    6.3990   33.4250 C.3    82  LEU82       0.0001
     84  N        169.1190   12.9590   20.2210 N.3   144  LEU144     -0.1245
     85  CA       169.8260   13.4130   21.3980 C.3   144  LEU144      0.1561
     86  C        171.2720   13.6120   20.9830 C.2   144  LEU144      0.2260
     87  O        171.9500   12.6370   20.6010 O.2   144  LEU144     -0.2867
     88  CB       169.7030   12.3700   22.5020 C.3   144  LEU144      0.0270
     89  CG       170.1740   12.7220   23.9100 C.3   144  LEU144      0.0019
     90  CD1      169.4620   13.9530   24.4470 C.3   144  LEU144      0.0001
     91  CD2      169.9380   11.5430   24.8360 C.3   144  LEU144      0.0001
     92  N        186.0240    5.7710   34.1630 N.3   157  LYS157     -0.1245
     93  CA       185.7190    4.4530   34.6890 C.3   157  LYS157      0.1561
     94  C        186.2450    3.3910   33.7320 C.2   157  LYS157      0.2260
     95  O        186.2040    3.5730   32.5230 O.2   157  LYS157     -0.2867
     96  CB       184.2100    4.3170   34.8890 C.3   157  LYS157      0.0271
     97  CG       183.8340    3.1510   35.7830 C.3   157  LYS157      0.0035
     98  CD       182.3320    3.0330   36.0060 C.3   157  LYS157      0.0206
     99  CE       182.0140    1.7600   36.7870 C.3   157  LYS157      0.1093
    100  NZ       182.3240    1.8830   38.2400 N.3   157  LYS157     -0.1314
    101  N        183.1610    6.2310   28.3420 N.3   168  ALA168     -0.1231
    102  CA       182.5350    7.5440   28.4600 C.3   168  ALA168      0.1694
    103  C        181.0800    7.4270   28.9470 C.2   168  ALA168      0.2592
    104  O        180.5900    8.2980   29.6670 O.2   168  ALA168     -0.2718
    105  CB       182.5690    8.2540   27.1300 C.3   168  ALA168      0.0304
    106  N        180.3970    6.3680   28.5150 N.am  169  VAL169     -0.1966
    107  CA       179.0400    6.0460   28.9630 C.3   169  VAL169      0.1727
    108  C        178.9640    4.5590   29.3050 C.2   169  VAL169      0.2617
    109  O        179.3870    3.7210   28.5220 O.2   169  VAL169     -0.2715
    110  CB       178.0120    6.3750   27.8650 C.3   169  VAL169      0.0290
    111  CG1      176.5980    6.0350   28.3160 C.3   169  VAL169      0.0023
    112  CG2      178.1170    7.8460   27.4850 C.3   169  VAL169      0.0023
    113  N        178.4210    4.2410   30.4720 N.am  170  SER170     -0.1936
    114  CA       178.3340    2.8660   30.9490 C.3   170  SER170      0.2055
    115  C        177.3630    2.0040   30.1530 C.2   170  SER170      0.2643
    116  O        176.5790    2.5130   29.3770 O.2   170  SER170     -0.2714
    117  CB       177.8960    2.8590   32.4110 C.3   170  SER170      0.2130
    118  OG       178.8830    3.4550   33.2230 O.3   170  SER170     -0.2179
    119  N        177.4200    0.6910   30.3730 N.am  171  TRP171     -0.1959
    120  CA       176.5340   -0.2420   29.6910 C.3   171  TRP171      0.1771
    121  C        175.0650    0.0940   29.9690 C.2   171  TRP171      0.2619
    122  O        174.6850    0.2640   31.1150 O.2   171  TRP171     -0.2715
    123  CB       176.7860   -1.6690   30.1640 C.3   171  TRP171      0.0590
    124  CG       178.1060   -2.2600   29.7500 C.ar  171  TRP171      0.0006
    125  CD1      179.1820   -2.5060   30.5590 C.ar  171  TRP171      0.0946
    126  CD2      178.4730   -2.7120   28.4530 C.ar  171  TRP171      0.0152
    127  NE1      180.1990   -3.0600   29.8390 N.ar  171  TRP171     -0.2442
    128  CE2      179.7960   -3.2060   28.5430 C.ar  171  TRP171      0.0810
    129  CE3      177.8280   -2.7300   27.2110 C.ar  171  TRP171      0.0012
    130  CZ2      180.4790   -3.7220   27.4430 C.ar  171  TRP171      0.0191
    131  CZ3      178.5120   -3.2520   26.1120 C.ar  171  TRP171      0.0001
    132  CH2      179.8230   -3.7460   26.2430 C.ar  171  TRP171      0.0015
    133  N        174.2460    0.1530   28.9260 N.am  172  HIS172     -0.1973
    134  CA       172.8100    0.4310   29.0840 C.3   172  HIS172      0.1656
    135  C        172.0260    0.0490   27.8410 C.2   172  HIS172      0.2291
    136  O        172.6020   -0.3320   26.8240 O.2   172  HIS172     -0.2864
    137  CB       172.5970    1.9260   29.3400 C.3   172  HIS172      0.0771
    138  CG       172.9940    2.7820   28.1800 C.ar  172  HIS172      0.0820
    139  ND1      174.3100    3.0110   27.8420 N.ar  172  HIS172     -0.2267
    140  CD2      172.2530    3.4230   27.2490 C.ar  172  HIS172      0.1154
    141  CE1      174.3620    3.7690   26.7620 C.ar  172  HIS172      0.1986
    142  NE2      173.1270    4.0240   26.3790 N.ar  172  HIS172     -0.2212
    143  N        168.9650    1.9610   25.3960 N.3   174  ASP174     -0.1239
    144  CA       168.3010    3.2350   25.1890 C.3   174  ASP174      0.1674
    145  C        166.8530    3.0430   25.5810 C.2   174  ASP174      0.2266
    146  O        166.1450    2.2370   24.9820 O.2   174  ASP174     -0.2867
    147  CB       168.4140    3.7090   23.7540 C.3   174  ASP174      0.1410
    148  CG       169.7860    4.1940   23.4240 C.2   174  ASP174      0.3668
    149  OD1      170.6040    4.3160   24.3520 O.co2 174  ASP174     -0.2456
    150  OD2      170.0590    4.4440   22.2400 O.co2 174  ASP174     -0.2456
    151  N        166.1920    8.5210   17.4570 N.3   251  ARG251     -0.1245
    152  CA       165.3680    7.5390   18.1330 C.3   251  ARG251      0.1563
    153  C        163.8980    7.7780   17.7860 C.2   251  ARG251      0.2260
    154  O        163.5180    8.8730   17.3870 O.2   251  ARG251     -0.2867
    155  CB       165.5640    7.6550   19.6480 C.3   251  ARG251      0.0307
    156  CG       166.9910    7.9730   20.0720 C.3   251  ARG251      0.0489
    157  CD       167.1690    8.1760   21.5670 C.3   251  ARG251      0.2205
    158  NE       168.5740    8.4820   21.8550 N.pl3 251  ARG251     -0.0865
    159  CZ       169.2220    8.1360   22.9650 C.cat 251  ARG251      0.5346
    160  NH1      168.6010    7.4610   23.9250 N.pl3 251  ARG251      0.1354
    161  NH2      170.5150    8.4560   23.1150 N.pl3 251  ARG251      0.1354
@<TRIPOS>BOND
     1   154   153    2
     2   151   152    1
     3   153   152    1
     4   152   155    1
     5   155   156    1
     6   156   157    1
     7    84    85    1
     8    87    86    2
     9    86    85    1
    10    85    88    1
    11   157   158    1
    12   158   159    2
    13   150   148   ar
    14    88    89    1
    15   159   161    1
    16   159   160    1
    17   148   147    1
    18   148   149   ar
    19   147   144    1
    20    89    90    1
    21    89    91    1
    22   146   145    2
    23   144   143    1
    24   144   145    1
    25    55    54    1
    26    55    56    2
    27    54    57    1
    28    54    53    1
    29    57    58    1
    30    63    61    1
    31   131   132   ar
    32   131   129   ar
    33   132   130   ar
    34   142   141   ar
    35   142   140   ar
    36   141   139   ar
    37   136   135    2
    38    60    61    2
    39    60    59    1
    40    61    62    1
    41    51    50    1
    42   105   102    1
    43   129   126   ar
    44   140   138   ar
    45    50    52    1
    46    50    47    1
    47   130   128   ar
    48    58    59    1
    49   112   110    1
    50   135   134    1
    51   139   138   ar
    52   110   111    1
    53   110   107    1
    54   138   137    1
    55    47    48    1
    56    47    46    1
    57   101   102    1
    58   126   128   ar
    59   126   124   ar
    60   102   103    1
    61   106   103   am
    62   106   107    1
    63    48    49    2
    64   109   108    2
    65   128   127   ar
    66   133   134    1
    67   133   121   am
    68   103   104    2
    69   107   108    1
    70   134   137    1
    71    68    69    1
    72    68    65    1
    73   108   113   am
    74    70    69   ar
    75    70    72   ar
    76   116   115    2
    77    69    71   ar
    78    72    74   ar
    79    46    41   am
    80   120   121    1
    81   120   123    1
    82   120   119    1
    83    71    73   ar
    84   124   123    1
    85   124   125   ar
    86    74    73   ar
    87    74    75    1
    88   127   125   ar
    89   121   122    2
    90    64    65    1
    91    42    41    2
    92   115   119   am
    93   115   114    1
    94    41    40    1
    95    65    66    1
    96   113   114    1
    97   114   117    1
    98    44    43    1
    99    44    45    1
   100    43    40    1
   101    37    36    1
   102    40    39    1
   103    66    67    2
   104    66    76   am
   105    36    38    1
   106    36    33    1
   107    45    39    1
   108    39    34   am
   109   117   118    1
   110    76    77    1
   111    95    94    2
   112    35    34    2
   113    34    33    1
   114    82    81    1
   115    81    83    1
   116    81    80    1
   117    33    32    1
   118    80    77    1
   119    94    93    1
   120    77    78    1
   121     6     5    1
   122    92    93    1
   123    32    26   am
   124    78    79    2
   125    93    96    1
   126    96    97    1
   127     5     7    1
   128     5     2    1
   129    26    27    2
   130    26    25    1
   131    97    98    1
   132    98    99    1
   133    31    29    1
   134     2     1    1
   135     2     3    1
   136    25    28    1
   137    25    24    1
   138    28    29    1
   139    99   100    1
   140    29    30    1
   141    15    13    1
   142    19    18    2
   143    14    12    1
   144    24    18   am
   145     3     4    2
   146    12    13    1
   147    12     9    1
   148    18    17    1
   149    20    17    1
   150    20    21    1
   151    22    21    1
   152     9     8    1
   153     9    10    1
   154    17    16    1
   155    21    23    1
   156    10    11    2
