@<TRIPOS>MOLECULE
tmp/4zs9B00.pdb
 159 156 0 0 0
SMALL
GASTEIGER

@<TRIPOS>ATOM
      1  N         32.7730   38.2260   17.7800 N.3     9  PHE9       -0.1227
      2  CA        33.4000   36.9880   18.2710 C.3     9  PHE9        0.1736
      3  C         33.6450   35.8920   17.2470 C.2     9  PHE9        0.2595
      4  O         34.5320   35.0680   17.4320 O.2     9  PHE9       -0.2718
      5  CB        32.5780   36.3690   19.4180 C.3     9  PHE9        0.0547
      6  CG        31.5120   35.4010   18.9650 C.ar    9  PHE9       -0.0202
      7  CD1       30.2620   35.8570   18.5220 C.ar    9  PHE9       -0.0042
      8  CD2       31.7240   34.0360   18.9770 C.ar    9  PHE9       -0.0042
      9  CE1       29.3010   34.9850   18.1350 C.ar    9  PHE9       -0.0003
     10  CE2       30.7500   33.1680   18.5420 C.ar    9  PHE9       -0.0003
     11  CZ        29.5410   33.6440   18.1370 C.ar    9  PHE9       -0.0000
     12  N         32.8480   35.8570   16.1940 N.am   10  LYS10      -0.1966
     13  CA        32.7190   34.6360   15.3970 C.3    10  LYS10       0.1728
     14  C         33.6880   34.6050   14.2250 C.2    10  LYS10       0.2616
     15  O         33.6160   35.4130   13.2980 O.2    10  LYS10      -0.2715
     16  CB        31.2980   34.5330   14.8650 C.3    10  LYS10       0.0311
     17  CG        31.0390   33.3010   13.9800 C.3    10  LYS10       0.0038
     18  CD        29.6100   33.2850   13.4160 C.3    10  LYS10       0.0206
     19  CE        28.6920   32.5720   14.3170 C.3    10  LYS10       0.1093
     20  NZ        28.8240   31.0710   14.2050 N.3    10  LYS10      -0.1314
     21  N         34.6350   33.6750   14.2850 N.am   11  ALA11      -0.1963
     22  CA        35.6620   33.5890   13.2590 C.3    11  ALA11       0.1728
     23  C         35.0990   33.3220   11.8570 C.2    11  ALA11       0.2616
     24  O         35.5560   33.8910   10.8760 O.2    11  ALA11      -0.2715
     25  CB        36.6640   32.5190   13.6080 C.3    11  ALA11       0.0334
     26  N         34.0920   32.4660   11.7700 N.am   12  GLU12      -0.1977
     27  CA        33.5520   32.0110   10.4870 C.3    12  GLU12       0.1602
     28  C         32.7860   33.1050    9.7200 C.2    12  GLU12       0.2287
     29  O         32.5270   32.9520    8.5370 O.2    12  GLU12      -0.2864
     30  CB        32.6140   30.8210   10.7120 C.3    12  GLU12       0.0415
     31  CG        33.2490   29.5750   11.3100 C.3    12  GLU12       0.1163
     32  CD        33.2950   29.5400   12.8230 C.2    12  GLU12       0.3649
     33  OE1       33.1250   30.6160   13.4800 O.co2  12  GLU12      -0.2457
     34  OE2       33.5110   28.4160   13.3480 O.co2  12  GLU12      -0.2457
     35  N         28.7740   34.4850   21.4550 N.3    55  ASN55      -0.1225
     36  CA        28.0270   33.2510   21.4930 C.3    55  ASN55       0.1785
     37  C         27.0920   33.2230   22.7190 C.2    55  ASN55       0.2598
     38  O         27.4520   33.6920   23.7910 O.2    55  ASN55      -0.2718
     39  CB        28.9820   32.0740   21.5560 C.3    55  ASN55       0.1169
     40  CG        28.2810   30.7380   21.4150 C.2    55  ASN55       0.2627
     41  OD1       27.5700   30.4760   20.4000 O.2    55  ASN55      -0.2716
     42  ND2       28.4790   29.8830   22.3730 N.am   55  ASN55      -0.0877
     43  N         25.9140   32.6250   22.5790 N.am   56  GLY56      -0.1942
     44  CA        24.9850   32.5550   23.6990 C.3    56  GLY56       0.2014
     45  C         25.3190   31.3990   24.6400 C.2    56  GLY56       0.2638
     46  O         24.7200   30.3460   24.5530 O.2    56  GLY56      -0.2714
     47  N         26.2740   31.6050   25.5370 N.am   57  ASP57      -0.1971
     48  CA        26.7710   30.5510   26.4080 C.3    57  ASP57       0.1709
     49  C         26.9810   31.0430   27.8280 C.2    57  ASP57       0.2293
     50  O         26.5150   32.1270   28.1810 O.2    57  ASP57      -0.2864
     51  CB        28.0380   29.9260   25.7980 C.3    57  ASP57       0.1436
     52  CG        29.2410   30.8520   25.8230 C.2    57  ASP57       0.3671
     53  OD1       29.1150   32.0330   26.2420 O.co2  57  ASP57      -0.2456
     54  OD2       30.3410   30.3610   25.4380 O.co2  57  ASP57      -0.2456
     55  N         21.6070   28.2020   16.0570 N.3   111  ASN111     -0.1240
     56  CA        22.3240   27.0390   15.5560 C.3   111  ASN111      0.1653
     57  C         21.5700   25.7690   15.9220 C.2   111  ASN111      0.2266
     58  O         20.5200   25.8060   16.5720 O.2   111  ASN111     -0.2867
     59  CB        23.7310   26.9910   16.1460 C.3   111  ASN111      0.1155
     60  CG        23.7300   26.9650   17.6760 C.2   111  ASN111      0.2627
     61  OD1       22.8370   26.3970   18.2930 O.2   111  ASN111     -0.2716
     62  ND2       24.7460   27.5240   18.2850 N.am  111  ASN111     -0.0877
     63  N         37.4950   22.8530   21.6690 N.3   162  TRP162     -0.1241
     64  CA        36.0830   23.2240   21.7530 C.3   162  TRP162      0.1605
     65  C         35.2250   22.3030   20.8880 C.2   162  TRP162      0.2264
     66  O         34.0270   22.0880   21.1810 O.2   162  TRP162     -0.2867
     67  CB        35.8770   24.7030   21.3640 C.3   162  TRP162      0.0550
     68  CG        36.1080   25.0410   19.9180 C.ar  162  TRP162      0.0003
     69  CD1       37.2530   25.5420   19.3580 C.ar  162  TRP162      0.0946
     70  CD2       35.1510   24.9470   18.8420 C.ar  162  TRP162      0.0152
     71  NE1       37.0720   25.7190   18.0150 N.ar  162  TRP162     -0.2442
     72  CE2       35.7850   25.3920   17.6700 C.ar  162  TRP162      0.0810
     73  CE3       33.8130   24.5190   18.7650 C.ar  162  TRP162      0.0012
     74  CZ2       35.1350   25.4150   16.4340 C.ar  162  TRP162      0.0191
     75  CZ3       33.1490   24.5550   17.5200 C.ar  162  TRP162      0.0001
     76  CH2       33.8030   25.0070   16.3800 C.ar  162  TRP162      0.0015
     77  N         33.2020   19.4830   22.3270 N.3   165  GLN165     -0.1231
     78  CA        31.9690   19.8080   23.0480 C.3   165  GLN165      0.1698
     79  C         30.7400   19.5250   22.2070 C.2   165  GLN165      0.2592
     80  O         29.6610   19.3280   22.7660 O.2   165  GLN165     -0.2718
     81  CB        31.9950   21.2710   23.5010 C.3   165  GLN165      0.0381
     82  CG        33.1070   21.5220   24.4880 C.3   165  GLN165      0.0905
     83  CD        33.3390   22.9650   24.8530 C.2   165  GLN165      0.2608
     84  OE1       34.4780   23.4640   24.8110 O.2   165  GLN165     -0.2717
     85  NE2       32.3270   23.6170   25.2960 N.am  165  GLN165     -0.0878
     86  N         30.8840   19.4500   20.8830 N.am  166  ALA166     -0.1980
     87  CA        29.7140   19.3500   20.0440 C.3   166  ALA166      0.1597
     88  C         29.0290   18.0030   20.2040 C.2   166  ALA166      0.2287
     89  O         27.8280   17.9580   20.4680 O.2   166  ALA166     -0.2864
     90  CB        30.0380   19.6940   18.5820 C.3   166  ALA166      0.0319
     91  N         40.3900   22.1910   13.5870 N.3   217  TYR217     -0.1241
     92  CA        39.0880   22.4740   13.0200 C.3   217  TYR217      0.1605
     93  C         39.2050   22.8020   11.5330 C.2   217  TYR217      0.2264
     94  O         38.4590   22.2910   10.7260 O.2   217  TYR217     -0.2867
     95  CB        38.4940   23.6280   13.7980 C.3   217  TYR217      0.0534
     96  CG        37.1900   24.2250   13.3330 C.ar  217  TYR217     -0.0201
     97  CD1       36.0800   23.4550   13.0360 C.ar  217  TYR217     -0.0009
     98  CD2       37.0500   25.6110   13.2820 C.ar  217  TYR217     -0.0009
     99  CE1       34.8790   24.0380   12.6860 C.ar  217  TYR217      0.0417
    100  CE2       35.8460   26.2100   12.9320 C.ar  217  TYR217      0.0417
    101  CZ        34.7480   25.4100   12.6540 C.ar  217  TYR217      0.1957
    102  OH        33.5170   25.9640   12.3230 O.3   217  TYR217     -0.2866
    103  N         27.0710   25.9320   12.6030 N.3   237  TYR237     -0.1241
    104  CA        28.0390   27.0110   12.4790 C.3   237  TYR237      0.1605
    105  C         29.2260   26.6340   11.6140 C.2   237  TYR237      0.2264
    106  O         29.9180   27.5100   11.1070 O.2   237  TYR237     -0.2867
    107  CB        28.5190   27.4900   13.8890 C.3   237  TYR237      0.0534
    108  CG        28.8350   26.3190   14.7540 C.ar  237  TYR237     -0.0201
    109  CD1       30.0400   25.6480   14.5840 C.ar  237  TYR237     -0.0009
    110  CD2       27.9360   25.8390   15.7170 C.ar  237  TYR237     -0.0009
    111  CE1       30.3230   24.5050   15.2960 C.ar  237  TYR237      0.0417
    112  CE2       28.2090   24.7050   16.4410 C.ar  237  TYR237      0.0417
    113  CZ        29.3970   24.0190   16.1940 C.ar  237  TYR237      0.1957
    114  OH        29.6790   22.8660   16.8640 O.3   237  TYR237     -0.2866
    115  N         21.2320   29.8920   20.9340 N.3   271  ASP271     -0.1225
    116  CA        21.4270   31.2190   20.3790 C.3   271  ASP271      0.1805
    117  C         22.9000   31.3080   19.9850 C.2   271  ASP271      0.2597
    118  O         23.7740   31.4180   20.8610 O.2   271  ASP271     -0.2718
    119  CB        21.0520   32.2950   21.4160 C.3   271  ASP271      0.1424
    120  CG        19.5510   32.4000   21.6750 C.2   271  ASP271      0.3668
    121  OD1       18.7540   31.7140   21.0030 O.co2 271  ASP271     -0.2456
    122  OD2       19.1560   33.1850   22.5900 O.co2 271  ASP271     -0.2456
    123  N         23.1730   31.1390   18.6950 N.am  272  ASP272     -0.1974
    124  CA        24.5330   31.0450   18.2200 C.3   272  ASP272      0.1709
    125  C         25.2270   32.3970   18.3050 C.2   272  ASP272      0.2293
    126  O         26.3940   32.4590   18.6580 O.2   272  ASP272     -0.2864
    127  CB        24.5300   30.5690   16.7680 C.3   272  ASP272      0.1436
    128  CG        25.8950   30.1690   16.2810 C.2   272  ASP272      0.3671
    129  OD1       26.5640   29.3610   16.9560 O.co2 272  ASP272     -0.2456
    130  OD2       26.3700   30.7030   15.2610 O.co2 272  ASP272     -0.2456
    131  N         22.2910   23.8230   25.0200 N.3   338  PHE338     -0.1241
    132  CA        23.5340   23.1170   25.2280 C.3   338  PHE338      0.1605
    133  C         23.8430   22.8470   26.6880 C.2   338  PHE338      0.2264
    134  O         23.7890   23.7510   27.5360 O.2   338  PHE338     -0.2867
    135  CB        24.6590   23.9640   24.6530 C.3   338  PHE338      0.0534
    136  CG        24.6850   24.0480   23.1500 C.ar  338  PHE338     -0.0203
    137  CD1       23.8150   24.8670   22.4220 C.ar  338  PHE338     -0.0042
    138  CD2       25.6450   23.3310   22.4500 C.ar  338  PHE338     -0.0042
    139  CE1       23.9080   24.9350   21.0510 C.ar  338  PHE338     -0.0003
    140  CE2       25.7140   23.3940   21.0730 C.ar  338  PHE338     -0.0003
    141  CZ        24.8420   24.1980   20.3680 C.ar  338  PHE338     -0.0000
    142  N         26.7090   22.4620   28.0560 N.3   340  ASP340     -0.1225
    143  CA        27.8460   23.2330   28.5010 C.3   340  ASP340      0.1805
    144  C         27.5180   24.6810   28.8410 C.2   340  ASP340      0.2597
    145  O         28.3550   25.3720   29.3920 O.2   340  ASP340     -0.2718
    146  CB        29.0450   23.0510   27.5900 C.3   340  ASP340      0.1424
    147  CG        28.7950   23.4780   26.1790 C.2   340  ASP340      0.3668
    148  OD1       27.8470   24.2650   25.9240 O.co2 340  ASP340     -0.2456
    149  OD2       29.5550   23.0240   25.2880 O.co2 340  ASP340     -0.2456
    150  N         26.2860   25.1100   28.6010 N.am  341  HIS341     -0.1975
    151  CA        25.8360   26.4010   29.0640 C.3   341  HIS341      0.1656
    152  C         25.5720   26.4390   30.5480 C.2   341  HIS341      0.2291
    153  O         25.3680   27.5160   31.0890 O.2   341  HIS341     -0.2864
    154  CB        24.6210   26.8760   28.2710 C.3   341  HIS341      0.0771
    155  CG        24.9170   27.0960   26.8150 C.ar  341  HIS341      0.0820
    156  ND1       23.9440   27.4080   25.8860 N.ar  341  HIS341     -0.2267
    157  CD2       26.0750   26.9950   26.1180 C.ar  341  HIS341      0.1154
    158  CE1       24.4950   27.5250   24.6980 C.ar  341  HIS341      0.1986
    159  NE2       25.7910   27.2760   24.8040 N.ar  341  HIS341     -0.2212
@<TRIPOS>BOND
     1    29    28    2
     2    28    27    1
     3    27    30    1
     4    27    26    1
     5    30    31    1
     6    94    93    2
     7    24    23    2
     8   106   105    2
     9    31    32    1
    10    93    92    1
    11   105   104    1
    12    26    23   am
    13    23    22    1
    14   102   101    1
    15   104   103    1
    16   104   107    1
    17   101    99   ar
    18   101   100   ar
    19    99    97   ar
    20    32    34   ar
    21    32    33   ar
    22   100    98   ar
    23    92    91    1
    24    92    95    1
    25    97    96   ar
    26    22    25    1
    27    22    21    1
    28    98    96   ar
    29    15    14    2
    30    96    95    1
    31    18    17    1
    32    18    19    1
    33   107   108    1
    34    17    16    1
    35    20    19    1
    36    14    21   am
    37    14    13    1
    38   109   108   ar
    39   109   111   ar
    40   108   110   ar
    41    16    13    1
    42   130   128   ar
    43   111   113   ar
    44    13    12    1
    45    56    57    1
    46    56    55    1
    47    56    59    1
    48   110   112   ar
    49    57    58    2
    50    59    60    1
    51    12     3   am
    52   113   112   ar
    53   113   114    1
    54   128   127    1
    55   128   129   ar
    56    76    74   ar
    57    76    75   ar
    58    74    72   ar
    59   127   124    1
    60     3     4    2
    61     3     2    1
    62    75    73   ar
    63    72    71   ar
    64    72    70   ar
    65    60    62   am
    66    60    61    2
    67     1     2    1
    68    71    69   ar
    69     9    11   ar
    70     9     7   ar
    71    11    10   ar
    72   124   125    1
    73   124   123    1
    74     2     5    1
    75   125   126    2
    76     7     6   ar
    77    10     8   ar
    78    90    87    1
    79   123   117   am
    80    73    70   ar
    81    70    68   ar
    82     6     8   ar
    83     6     5    1
    84    69    68   ar
    85    68    67    1
    86   117   116    1
    87   117   118    2
    88    87    88    1
    89    87    86    1
    90    88    89    2
    91   141   139   ar
    92   141   140   ar
    93   116   115    1
    94   116   119    1
    95    41    40    2
    96    86    79   am
    97    65    66    2
    98    65    64    1
    99   121   120   ar
   100   139   137   ar
   101   140   138   ar
   102    67    64    1
   103    40    39    1
   104    40    42   am
   105   119   120    1
   106    35    36    1
   107    36    39    1
   108    36    37    1
   109    63    64    1
   110   120   122   ar
   111    79    80    2
   112    79    78    1
   113    77    78    1
   114   137   136   ar
   115   138   136   ar
   116    43    37   am
   117    43    44    1
   118    37    38    2
   119    78    81    1
   120   136   135    1
   121    81    82    1
   122    44    45    1
   123    82    83    1
   124    46    45    2
   125    45    47   am
   126   135   132    1
   127   158   159   ar
   128   158   156   ar
   129   159   157   ar
   130    84    83    2
   131    83    85   am
   132   131   132    1
   133   132   133    1
   134   149   147   ar
   135    54    52   ar
   136    47    48    1
   137    51    52    1
   138    51    48    1
   139    52    53   ar
   140   156   155   ar
   141   148   147   ar
   142   157   155   ar
   143   147   146    1
   144    48    49    1
   145   133   134    2
   146   155   154    1
   147   146   143    1
   148    49    50    2
   149   142   143    1
   150   154   151    1
   151   143   144    1
   152   150   144   am
   153   150   151    1
   154   144   145    2
   155   151   152    1
   156   152   153    2
