@<TRIPOS>MOLECULE
tmp/4zsaB00.pdb
 174 162 0 0 0
SMALL
GASTEIGER

@<TRIPOS>ATOM
      1  N        209.1010  -21.1940  122.4990 N.3    23  LEU23      -0.1231
      2  CA       209.9010  -22.1130  121.7020 C.3    23  LEU23       0.1693
      3  C        211.0300  -21.3760  121.0060 C.2    23  LEU23       0.2592
      4  O        210.8780  -20.2170  120.6040 O.2    23  LEU23      -0.2718
      5  CB       209.0330  -22.8300  120.6620 C.3    23  LEU23       0.0284
      6  CG       208.0190  -23.8810  121.1170 C.3    23  LEU23       0.0019
      7  CD1      207.1990  -24.3690  119.9350 C.3    23  LEU23       0.0001
      8  CD2      208.7160  -25.0460  121.8100 C.3    23  LEU23       0.0001
      9  N        212.1610  -22.0540  120.8600 N.am   24  GLY24      -0.1957
     10  CA       213.2610  -21.5480  120.0610 C.3    24  GLY24       0.1869
     11  C        214.0390  -20.3820  120.6440 C.2    24  GLY24       0.2309
     12  O        214.7170  -19.6700  119.9030 O.2    24  GLY24      -0.2863
     13  N        212.8280  -17.0590  116.8280 N.3    28  PHE28      -0.1241
     14  CA       211.7710  -16.8530  115.8450 C.3    28  PHE28       0.1605
     15  C        210.7120  -15.8850  116.3560 C.2    28  PHE28       0.2264
     16  O        209.6210  -15.8110  115.8160 O.2    28  PHE28      -0.2867
     17  CB       211.1270  -18.1790  115.4810 C.3    28  PHE28       0.0534
     18  CG       212.1110  -19.2460  115.1400 C.ar   28  PHE28      -0.0203
     19  CD1      212.7740  -19.2250  113.9240 C.ar   28  PHE28      -0.0042
     20  CD2      212.3630  -20.2790  116.0250 C.ar   28  PHE28      -0.0042
     21  CE1      213.6700  -20.2210  113.5970 C.ar   28  PHE28      -0.0003
     22  CE2      213.2650  -21.2760  115.7070 C.ar   28  PHE28      -0.0003
     23  CZ       213.9250  -21.2430  114.4880 C.ar   28  PHE28      -0.0000
     24  N        207.0460  -17.2860  119.8560 N.3    31  VAL31      -0.1245
     25  CA       206.4650  -18.5460  119.4370 C.3    31  VAL31       0.1561
     26  C        206.3210  -19.4600  120.6360 C.2    31  VAL31       0.2260
     27  O        207.2780  -19.6640  121.3720 O.2    31  VAL31      -0.2867
     28  CB       207.3390  -19.2480  118.3690 C.3    31  VAL31       0.0252
     29  CG1      206.7370  -20.6130  117.9880 C.3    31  VAL31       0.0019
     30  CG2      207.4900  -18.3590  117.1600 C.3    31  VAL31       0.0019
     31  N        202.6650  -25.3240  117.1110 N.3    51  ALA51      -0.1245
     32  CA       203.3970  -24.1150  117.4690 C.3    51  ALA51       0.1562
     33  C        202.5520  -22.9110  117.0820 C.2    51  ALA51       0.2260
     34  O        201.8210  -22.9410  116.0940 O.2    51  ALA51      -0.2867
     35  CB       204.7780  -24.0630  116.7820 C.3    51  ALA51       0.0290
     36  N        202.6920  -18.6330  116.5980 N.3    53  LYS53      -0.1245
     37  CA       203.4250  -17.3810  116.6160 C.3    53  LYS53       0.1561
     38  C        202.4600  -16.2270  116.8460 C.2    53  LYS53       0.2260
     39  O        201.3750  -16.2010  116.2800 O.2    53  LYS53      -0.2867
     40  CB       204.2030  -17.1620  115.3150 C.3    53  LYS53       0.0271
     41  CG       205.1560  -15.9750  115.4040 C.3    53  LYS53       0.0035
     42  CD       205.9950  -15.8180  114.1550 C.3    53  LYS53       0.0206
     43  CE       207.0620  -14.7310  114.3190 C.3    53  LYS53       0.1093
     44  NZ       208.0160  -14.7150  113.1500 N.3    53  LYS53      -0.1314
     45  N        203.7540   -9.9190  110.6140 N.3    67  LEU67      -0.1245
     46  CA       203.2290  -11.2390  110.9650 C.3    67  LEU67       0.1561
     47  C        202.0940  -11.6640  110.0450 C.2    67  LEU67       0.2260
     48  O        201.9660  -12.8410  109.7070 O.2    67  LEU67      -0.2867
     49  CB       202.7570  -11.2740  112.4260 C.3    67  LEU67       0.0270
     50  CG       202.2540  -12.6450  112.8930 C.3    67  LEU67       0.0019
     51  CD1      203.3160  -13.7090  112.7260 C.3    67  LEU67       0.0001
     52  CD2      201.7800  -12.6150  114.3540 C.3    67  LEU67       0.0001
     53  N        203.5550  -12.6870  106.7930 N.3    70  GLU70      -0.1245
     54  CA       204.1590  -13.9840  107.0240 C.3    70  GLU70       0.1567
     55  C        203.1150  -15.0820  106.9230 C.2    70  GLU70       0.2260
     56  O        203.3340  -16.1030  106.2770 O.2    70  GLU70      -0.2867
     57  CB       204.8330  -13.9960  108.3890 C.3    70  GLU70       0.0388
     58  CG       205.5210  -15.2710  108.7650 C.3    70  GLU70       0.1160
     59  CD       206.3020  -15.1050  110.0440 C.2    70  GLU70       0.3649
     60  OE1      206.2510  -13.9980  110.6250 O.co2  70  GLU70      -0.2457
     61  OE2      206.9620  -16.0710  110.4690 O.co2  70  GLU70      -0.2457
     62  N        202.6650  -17.9950  103.7800 N.3    74  MET74      -0.1245
     63  CA       202.5160  -19.4270  103.9930 C.3    74  MET74       0.1570
     64  C        201.2960  -19.9780  103.2830 C.2    74  MET74       0.2261
     65  O        201.3280  -21.0940  102.7640 O.2    74  MET74      -0.2867
     66  CB       202.4560  -19.7530  105.4920 C.3    74  MET74       0.0387
     67  CG       203.7840  -19.4870  106.1900 C.3    74  MET74       0.0595
     68  SD       203.8120  -19.8630  107.9480 S.3    74  MET74      -0.1393
     69  CE       203.8930  -21.6520  107.9260 C.3    74  MET74       0.0692
     70  N        207.7300  -26.4460  107.5220 N.3    84  ILE84      -0.1245
     71  CA       206.8120  -26.2270  108.6360 C.3    84  ILE84       0.1561
     72  C        205.5260  -25.6270  108.0830 C.2    84  ILE84       0.2260
     73  O        205.5280  -24.4830  107.6110 O.2    84  ILE84      -0.2867
     74  CB       207.4090  -25.2860  109.6950 C.3    84  ILE84       0.0252
     75  CG1      208.5640  -25.9640  110.4490 C.3    84  ILE84       0.0019
     76  CG2      206.3080  -24.8110  110.6560 C.3    84  ILE84       0.0019
     77  CD1      208.1250  -27.1450  111.3550 C.3    84  ILE84       0.0001
     78  N        199.1990  -17.2620  114.6790 N.3    98  VAL98      -0.1245
     79  CA       199.4720  -18.0410  113.4780 C.3    98  VAL98       0.1561
     80  C        199.8740  -19.4380  113.9160 C.2    98  VAL98       0.2260
     81  O        200.8980  -19.6250  114.5580 O.2    98  VAL98      -0.2867
     82  CB       200.5770  -17.4190  112.6090 C.3    98  VAL98       0.0252
     83  CG1      200.6710  -18.1610  111.2660 C.3    98  VAL98       0.0019
     84  CG2      200.2950  -15.9420  112.3730 C.3    98  VAL98       0.0019
     85  N        201.0800  -23.2050  113.3720 N.3   100  VAL100     -0.1231
     86  CA       201.8210  -24.0490  112.4310 C.3   100  VAL100      0.1692
     87  C        202.1890  -25.3760  113.0800 C.2   100  VAL100      0.2592
     88  O        201.9580  -25.5790  114.2750 O.2   100  VAL100     -0.2718
     89  CB       203.1180  -23.3590  111.9160 C.3   100  VAL100      0.0266
     90  CG1      202.8110  -22.0130  111.2830 C.3   100  VAL100      0.0020
     91  CG2      204.1290  -23.2050  113.0450 C.3   100  VAL100      0.0020
     92  N        202.7900  -26.2650  112.2940 N.am  101  GLU101     -0.1966
     93  CA       203.2730  -27.5620  112.7760 C.3   101  GLU101      0.1733
     94  C        204.3190  -27.4740  113.8820 C.2   101  GLU101      0.2616
     95  O        205.2120  -26.6200  113.8530 O.2   101  GLU101     -0.2715
     96  CB       203.8590  -28.3720  111.6010 C.3   101  GLU101      0.0429
     97  CG       202.7900  -28.9110  110.6460 C.3   101  GLU101      0.1163
     98  CD       203.3620  -29.4980  109.3680 C.2   101  GLU101      0.3649
     99  OE1      204.4750  -29.1190  108.9560 O.co2 101  GLU101     -0.2457
    100  OE2      202.6780  -30.3340  108.7570 O.co2 101  GLU101     -0.2457
    101  N        204.2130  -28.3930  114.8410 N.am  102  TYR102     -0.1960
    102  CA       205.1960  -28.5440  115.9100 C.3   102  TYR102      0.1771
    103  C        206.2420  -29.6080  115.5720 C.2   102  TYR102      0.2619
    104  O        205.9060  -30.7310  115.2080 O.2   102  TYR102     -0.2715
    105  CB       204.4980  -28.9040  117.2290 C.3   102  TYR102      0.0574
    106  CG       205.4370  -29.1450  118.3890 C.ar  102  TYR102     -0.0198
    107  CD1      206.2500  -28.1270  118.8690 C.ar  102  TYR102     -0.0009
    108  CD2      205.5030  -30.3860  119.0180 C.ar  102  TYR102     -0.0009
    109  CE1      207.1220  -28.3390  119.9370 C.ar  102  TYR102      0.0417
    110  CE2      206.3710  -30.6070  120.0920 C.ar  102  TYR102      0.0417
    111  CZ       207.1740  -29.5780  120.5430 C.ar  102  TYR102      0.1957
    112  OH       208.0420  -29.7700  121.5940 O.3   102  TYR102     -0.2866
    113  N        207.5150  -29.2570  115.6980 N.am  103  ALA103     -0.1963
    114  CA       208.5770  -30.2180  115.4720 C.3   103  ALA103      0.1728
    115  C        209.2100  -30.5540  116.8140 C.2   103  ALA103      0.2617
    116  O        209.9750  -29.7630  117.3610 O.2   103  ALA103     -0.2715
    117  CB       209.6190  -29.6620  114.4940 C.3   103  ALA103      0.0334
    118  N        208.8940  -31.7310  117.3420 N.am  104  SER104     -0.1936
    119  CA       209.1730  -32.0250  118.7430 C.3   104  SER104      0.2055
    120  C        210.6520  -32.1860  119.0780 C.2   104  SER104      0.2643
    121  O        211.0230  -32.0850  120.2390 O.2   104  SER104     -0.2714
    122  CB       208.4250  -33.2900  119.1750 C.3   104  SER104      0.2130
    123  OG       208.9330  -34.4290  118.5080 O.3   104  SER104     -0.2179
    124  N        211.5060  -32.4080  118.0800 N.am  105  LYS105     -0.1963
    125  CA       212.8930  -32.7200  118.3940 C.3   105  LYS105      0.1728
    126  C        213.8890  -31.5830  118.1470 C.2   105  LYS105      0.2617
    127  O        215.0810  -31.8300  118.0640 O.2   105  LYS105     -0.2715
    128  CB       213.3340  -33.9640  117.6210 C.3   105  LYS105      0.0311
    129  CG       212.5740  -35.2320  118.0220 C.3   105  LYS105      0.0038
    130  CD       213.2540  -36.4940  117.4960 C.3   105  LYS105      0.0206
    131  CE       212.5230  -37.7590  117.9520 C.3   105  LYS105      0.1093
    132  NZ       213.2540  -38.9770  117.4920 N.3   105  LYS105     -0.1314
    133  N        213.4060  -30.3480  118.0490 N.am  106  GLY106     -0.1940
    134  CA       214.2840  -29.1880  118.0100 C.3   106  GLY106      0.2014
    135  C        214.9350  -28.9500  116.6650 C.2   106  GLY106      0.2638
    136  O        214.5950  -29.6230  115.6920 O.2   106  GLY106     -0.2714
    137  N        215.8810  -28.0090  116.5970 N.am  107  ASN107     -0.1972
    138  CA       216.5180  -27.7270  115.3240 C.3   107  ASN107      0.1688
    139  C        217.5590  -28.7740  114.9810 C.2   107  ASN107      0.2292
    140  O        218.0200  -29.5360  115.8370 O.2   107  ASN107     -0.2864
    141  CB       217.1410  -26.3180  115.2850 C.3   107  ASN107      0.1181
    142  CG       218.3080  -26.1370  116.2620 C.2   107  ASN107      0.2629
    143  OD1      219.3140  -26.8320  116.1740 O.2   107  ASN107     -0.2716
    144  ND2      218.1970  -25.1490  117.1480 N.am  107  ASN107     -0.0877
    145  N        221.1340  -28.9140  117.0380 N.3   110  GLU110     -0.1245
    146  CA       221.1580  -29.5710  118.3430 C.3   110  GLU110      0.1567
    147  C        220.7940  -31.0580  118.2330 C.2   110  GLU110      0.2260
    148  O        221.3720  -31.8920  118.9280 O.2   110  GLU110     -0.2867
    149  CB       220.2290  -28.8410  119.3280 C.3   110  GLU110      0.0388
    150  CG       218.7910  -28.6010  118.8480 C.3   110  GLU110      0.1160
    151  CD       217.9620  -27.7800  119.8470 C.2   110  GLU110      0.3649
    152  OE1      216.7850  -27.4460  119.5460 O.co2 110  GLU110     -0.2457
    153  OE2      218.5010  -27.4630  120.9340 O.co2 110  GLU110     -0.2457
    154  N        213.9450  -27.8250  111.3680 N.3   157  LEU157     -0.1245
    155  CA       213.4260  -28.4460  112.5750 C.3   157  LEU157      0.1561
    156  C        213.1730  -29.9130  112.3210 C.2   157  LEU157      0.2260
    157  O        213.0200  -30.3320  111.1700 O.2   157  LEU157     -0.2867
    158  CB       212.1520  -27.7630  113.0260 C.3   157  LEU157      0.0270
    159  CG       212.2650  -26.2890  113.3610 C.3   157  LEU157      0.0019
    160  CD1      210.8920  -25.7520  113.7390 C.3   157  LEU157      0.0001
    161  CD2      213.2580  -26.1230  114.5040 C.3   157  LEU157      0.0001
    162  N        212.1380  -24.2110  108.4400 N.3   167  ALA167     -0.1231
    163  CA       211.3360  -23.3220  109.2590 C.3   167  ALA167      0.1694
    164  C        211.6620  -21.8820  108.9080 C.2   167  ALA167      0.2592
    165  O        212.6980  -21.6110  108.3010 O.2   167  ALA167     -0.2718
    166  CB       211.6010  -23.5850  110.7390 C.3   167  ALA167      0.0304
    167  N        210.7540  -20.9730  109.2630 N.am  168  ASP168     -0.1974
    168  CA       211.0260  -19.5410  109.2110 C.3   168  ASP168      0.1709
    169  C        211.2640  -19.0540  107.7880 C.2   168  ASP168      0.2293
    170  O        212.0990  -18.1860  107.5570 O.2   168  ASP168     -0.2864
    171  CB       212.2430  -19.2060  110.0880 C.3   168  ASP168      0.1436
    172  CG       212.2790  -17.7580  110.5110 C.2   168  ASP168      0.3671
    173  OD1      211.2000  -17.1230  110.5930 O.co2 168  ASP168     -0.2456
    174  OD2      213.3940  -17.2610  110.7690 O.co2 168  ASP168     -0.2456
@<TRIPOS>BOND
     1    65    64    2
     2    64    63    1
     3    62    63    1
     4    63    66    1
     5    66    67    1
     6    67    68    1
     7    56    55    2
     8    53    54    1
     9    55    54    1
    10    54    57    1
    11    70    71    1
    12   170   169    2
    13    73    72    2
    14   169   168    1
    15    69    68    1
    16    72    71    1
    17   165   164    2
    18    57    58    1
    19   162   163    1
    20    71    74    1
    21   100    98   ar
    22    58    59    1
    23   164   163    1
    24   164   167   am
    25    99    98   ar
    26   168   167    1
    27   168   171    1
    28   163   166    1
    29    98    97    1
    30    74    75    1
    31    74    76    1
    32    48    47    2
    33    59    61   ar
    34    59    60   ar
    35    47    46    1
    36   171   172    1
    37    75    77    1
    38   172   173   ar
    39   172   174   ar
    40    45    46    1
    41    97    96    1
    42    46    49    1
    43   157   156    2
    44    83    82    1
    45    90    89    1
    46   154   155    1
    47    96    93    1
    48    89    86    1
    49    89    91    1
    50    92    93    1
    51    92    87   am
    52   156   155    1
    53    84    82    1
    54    49    50    1
    55    86    87    1
    56    86    85    1
    57   155   158    1
    58    82    79    1
    59    51    50    1
    60    93    94    1
    61    50    52    1
    62   158   159    1
    63    87    88    2
    64    44    43    1
    65   159   160    1
    66   159   161    1
    67    79    80    1
    68    79    78    1
    69    21    19   ar
    70    21    23   ar
    71    95    94    2
    72    94   101   am
    73    80    81    2
    74    19    18   ar
    75    42    43    1
    76    42    41    1
    77    23    22   ar
    78   117   114    1
    79   101   102    1
    80   139   138    1
    81   139   140    2
    82    18    17    1
    83    18    20   ar
    84   104   103    2
    85   141   138    1
    86   141   142    1
    87    40    41    1
    88    40    37    1
    89   138   137    1
    90   114   113    1
    91   114   115    1
    92    17    14    1
    93   103   113   am
    94   103   102    1
    95   136   135    2
    96    22    20   ar
    97    16    15    2
    98    14    15    1
    99    14    13    1
   100   102   105    1
   101    34    33    2
   102   143   142    2
   103   142   144   am
   104    39    38    2
   105   137   135   am
   106    36    37    1
   107    37    38    1
   108   135   134    1
   109    35    32    1
   110   115   118   am
   111   115   116    2
   112   145   146    1
   113    33    32    1
   114    31    32    1
   115    30    28    1
   116   105   106    1
   117   118   119    1
   118   132   131    1
   119   130   131    1
   120   130   129    1
   121   128   129    1
   122   128   125    1
   123    29    28    1
   124   134   133    1
   125   133   126   am
   126   127   126    2
   127   124   125    1
   128   124   120   am
   129   126   125    1
   130   147   146    1
   131   147   148    2
   132   146   149    1
   133    28    25    1
   134   106   107   ar
   135   106   108   ar
   136   123   122    1
   137   119   120    1
   138   119   122    1
   139   150   149    1
   140   150   151    1
   141   107   109   ar
   142   108   110   ar
   143   120   121    2
   144    25    24    1
   145    25    26    1
   146   152   151   ar
   147   151   153   ar
   148    12    11    2
   149     7     6    1
   150   109   111   ar
   151    10    11    1
   152    10     9    1
   153   110   111   ar
   154   111   112    1
   155     4     3    2
   156    26    27    2
   157     5     6    1
   158     5     2    1
   159     9     3   am
   160     3     2    1
   161     6     8    1
   162     2     1    1
