@<TRIPOS>MOLECULE
tmp/4zsdA00.pdb
 183 177 0 0 0
SMALL
GASTEIGER

@<TRIPOS>ATOM
      1  N         18.0170   38.9140   81.3440 N.3    53  HIS53      -0.1226
      2  CA        17.9220   37.9800   80.2190 C.3    53  HIS53       0.1752
      3  C         16.5840   38.0080   79.5020 C.2    53  HIS53       0.2595
      4  O         16.4800   37.4790   78.3990 O.2    53  HIS53      -0.2718
      5  CB        18.2380   36.5560   80.6760 C.3    53  HIS53       0.0759
      6  CG        17.2090   35.9770   81.5920 C.ar   53  HIS53       0.0818
      7  ND1       17.2420   36.1580   82.9570 N.ar   53  HIS53      -0.2268
      8  CD2       16.0950   35.2490   81.3360 C.ar   53  HIS53       0.1154
      9  CE1       16.1970   35.5610   83.5030 C.ar   53  HIS53       0.1986
     10  NE2       15.4820   35.0140   82.5380 N.ar   53  HIS53      -0.2212
     11  N         15.5570   38.5920   80.1170 N.am   54  ARG54      -0.1980
     12  CA        14.2220   38.6310   79.5250 C.3    54  ARG54       0.1597
     13  C         13.5990   39.9770   79.8500 C.2    54  ARG54       0.2287
     14  O         13.3890   40.3090   81.0100 O.2    54  ARG54      -0.2864
     15  CB        13.3650   37.4630   80.0370 C.3    54  ARG54       0.0334
     16  CG        11.9430   37.4190   79.4830 C.3    54  ARG54       0.0492
     17  CD        11.2550   36.1360   79.9260 C.3    54  ARG54       0.2205
     18  NE         9.9340   35.9680   79.3480 N.pl3  54  ARG54      -0.0865
     19  CZ         8.7760   36.2310   79.9470 C.cat  54  ARG54       0.5346
     20  NH1        8.7720   36.6840   81.1940 N.pl3  54  ARG54       0.1354
     21  NH2        7.6320   36.0200   79.3020 N.pl3  54  ARG54       0.1354
     22  N         10.4470   42.5110   78.4910 N.3    56  ILE56      -0.1245
     23  CA         9.2600   42.6470   77.6580 C.3    56  ILE56       0.1561
     24  C          8.6830   44.0410   77.8940 C.2    56  ILE56       0.2260
     25  O          8.2430   44.3410   79.0070 O.2    56  ILE56      -0.2867
     26  CB         8.2230   41.5520   77.9760 C.3    56  ILE56       0.0252
     27  CG1        8.8260   40.1740   77.6570 C.3    56  ILE56       0.0019
     28  CG2        6.9390   41.7830   77.1800 C.3    56  ILE56       0.0019
     29  CD1        8.0120   38.9930   78.1340 C.3    56  ILE56       0.0001
     30  N          5.6460   45.4870   80.3670 N.3    59  PHE59      -0.1227
     31  CA         5.4080   44.3680   81.2740 C.3    59  PHE59       0.1736
     32  C          6.4720   44.3960   82.3830 C.2    59  PHE59       0.2595
     33  O          6.1980   44.8680   83.4860 O.2    59  PHE59      -0.2718
     34  CB         5.3600   43.0290   80.4980 C.3    59  PHE59       0.0547
     35  CG         5.1300   41.7880   81.3520 C.ar   59  PHE59      -0.0202
     36  CD1        4.5350   41.8480   82.6200 C.ar   59  PHE59      -0.0042
     37  CD2        5.4650   40.5340   80.8430 C.ar   59  PHE59      -0.0042
     38  CE1        4.3250   40.7010   83.3680 C.ar   59  PHE59      -0.0003
     39  CE2        5.2530   39.3820   81.5900 C.ar   59  PHE59      -0.0003
     40  CZ         4.6820   39.4690   82.8540 C.ar   59  PHE59      -0.0000
     41  N          7.6740   43.9100   82.1010 N.am   60  MET60      -0.1979
     42  CA         8.6890   43.7610   83.1430 C.3    60  MET60       0.1605
     43  C         10.0700   43.5060   82.5860 C.2    60  MET60       0.2287
     44  O         10.2280   43.1710   81.4070 O.2    60  MET60      -0.2864
     45  CB         8.2990   42.6540   84.1480 C.3    60  MET60       0.0413
     46  CG         8.1220   41.2690   83.5630 C.3    60  MET60       0.0598
     47  SD         9.6900   40.4060   83.3950 S.3    60  MET60      -0.1393
     48  CE         9.6080   39.8360   81.7060 C.3    60  MET60       0.0692
     49  N         13.4200   41.1580   83.6680 N.3    62  GLN62      -0.1245
     50  CA        13.7480   39.9900   84.4810 C.3    62  GLN62       0.1566
     51  C         15.2440   39.7000   84.4770 C.2    62  GLN62       0.2260
     52  O         15.9150   39.8000   83.4460 O.2    62  GLN62      -0.2867
     53  CB        12.9880   38.7890   83.9460 C.3    62  GLN62       0.0367
     54  CG        13.1090   37.5310   84.7840 C.3    62  GLN62       0.0905
     55  CD        12.2790   36.3780   84.2510 C.2    62  GLN62       0.2608
     56  OE1       11.3810   36.5600   83.4310 O.2    62  GLN62      -0.2717
     57  NE2       12.5710   35.1860   84.7250 N.am   62  GLN62      -0.0878
     58  N         17.3210   31.9260   82.2280 N.3    71  GLY71      -0.1210
     59  CA        16.0240   31.7430   82.8610 C.3    71  GLY71       0.1956
     60  C         15.7350   30.3650   83.4080 C.2    71  GLY71       0.2613
     61  O         14.6470   30.1420   83.9350 O.2    71  GLY71      -0.2717
     62  N         16.6990   29.4430   83.3190 N.am   72  THR72      -0.1938
     63  CA        16.5250   28.1050   83.9030 C.3    72  THR72       0.2028
     64  C         17.1880   27.9230   85.2540 C.2    72  THR72       0.2642
     65  O         16.8990   26.9480   85.9560 O.2    72  THR72      -0.2714
     66  CB        17.0720   27.0040   82.9770 C.3    72  THR72       0.1808
     67  OG1       18.4820   27.1780   82.7940 O.3    72  THR72      -0.2208
     68  CG2       16.3680   27.0400   81.6400 C.3    72  THR72       0.0379
     69  N         18.0740   28.8450   85.6100 N.am   73  GLY73      -0.1954
     70  CA        18.9650   28.6610   86.7450 C.3    73  GLY73       0.1869
     71  C         18.7820   29.6410   87.8810 C.2    73  GLY73       0.2309
     72  O         17.7080   30.2190   88.0700 O.2    73  GLY73      -0.2863
     73  N         15.8380   26.0960   96.0190 N.3    81  ARG81      -0.1245
     74  CA        14.5620   26.7990   95.9680 C.3    81  ARG81       0.1563
     75  C         14.0360   26.9930   97.3750 C.2    81  ARG81       0.2260
     76  O         14.4180   26.2650   98.2920 O.2    81  ARG81      -0.2867
     77  CB        13.5300   26.0110   95.1540 C.3    81  ARG81       0.0307
     78  CG        13.9130   25.7250   93.7010 C.3    81  ARG81       0.0489
     79  CD        14.0370   26.9630   92.8320 C.3    81  ARG81       0.2205
     80  NE        14.4120   26.6140   91.4660 N.pl3  81  ARG81      -0.0865
     81  CZ        15.6230   26.7810   90.9480 C.cat  81  ARG81       0.5346
     82  NH1       15.8560   26.4220   89.6940 N.pl3  81  ARG81       0.1354
     83  NH2       16.5930   27.3310   91.6700 N.pl3  81  ARG81       0.1354
     84  N         10.5210   35.8820   90.3870 N.3   100  ALA100     -0.1231
     85  CA        10.1860   34.9760   89.2960 C.3   100  ALA100      0.1694
     86  C         10.0910   33.5720   89.8670 C.2   100  ALA100      0.2592
     87  O         10.6680   33.2830   90.9160 O.2   100  ALA100     -0.2718
     88  CB        11.2610   35.0260   88.2240 C.3   100  ALA100      0.0304
     89  N          9.3570   32.6940   89.1970 N.am  101  ASN101     -0.1960
     90  CA         9.2700   31.3180   89.6580 C.3   101  ASN101      0.1819
     91  C          8.8660   30.3880   88.5320 C.2   101  ASN101      0.2621
     92  O          8.6130   30.8440   87.4030 O.2   101  ASN101     -0.2715
     93  CB         8.3500   31.2280   90.8850 C.3   101  ASN101      0.1195
     94  CG         6.9000   31.5590   90.5810 C.2   101  ASN101      0.2630
     95  OD1        6.3230   31.0420   89.6230 O.2   101  ASN101     -0.2716
     96  ND2        6.2880   32.3910   91.4170 N.am  101  ASN101     -0.0877
     97  N          8.8650   29.0910   88.8430 N.am  102  ALA102     -0.1963
     98  CA         8.4220   28.0270   87.9220 C.3   102  ALA102      0.1728
     99  C          7.1860   27.3100   88.4710 C.2   102  ALA102      0.2616
    100  O          6.9890   26.1120   88.2270 O.2   102  ALA102     -0.2715
    101  CB         9.5610   27.0450   87.6970 C.3   102  ALA102      0.0334
    102  N          6.3350   28.0610   89.1620 N.am  103  GLY103     -0.1955
    103  CA         5.1580   27.5350   89.8370 C.3   103  GLY103      0.1869
    104  C          5.2460   27.7720   91.3340 C.2   103  GLY103      0.2309
    105  O          6.2170   28.3580   91.8200 O.2   103  GLY103     -0.2863
    106  N          8.8090   27.7860   94.2770 N.3   106  THR106     -0.1218
    107  CA        10.0220   27.5620   93.4880 C.3   106  THR106      0.1862
    108  C         10.8650   28.8350   93.3460 C.2   106  THR106      0.2287
    109  O         11.5430   29.0530   92.3300 O.2   106  THR106     -0.2866
    110  CB         9.7010   26.9840   92.0980 C.3   106  THR106      0.1770
    111  OG1        8.8350   27.8740   91.3940 O.3   106  THR106     -0.2211
    112  CG2        9.0630   25.6210   92.2150 C.3   106  THR106      0.0375
    113  N         14.0320   31.1370   93.7040 N.3   108  GLY108     -0.1210
    114  CA        15.4800   30.9220   93.7700 C.3   108  GLY108      0.1956
    115  C         16.1570   32.2630   93.8850 C.2   108  GLY108      0.2613
    116  O         16.1700   32.8800   94.9630 O.2   108  GLY108     -0.2717
    117  N         16.7230   32.7160   92.7660 N.am  109  SER109     -0.1938
    118  CA        17.3240   34.0490   92.6890 C.3   109  SER109      0.2055
    119  C         16.7400   34.9430   91.6140 C.2   109  SER109      0.2642
    120  O         16.9970   36.1550   91.6190 O.2   109  SER109     -0.2714
    121  CB        18.8150   33.9310   92.4630 C.3   109  SER109      0.2130
    122  OG        19.0720   33.1830   91.2930 O.3   109  SER109     -0.2179
    123  N         15.9720   34.3990   90.6780 N.am  110  GLN110     -0.1976
    124  CA        15.4360   35.2350   89.6020 C.3   110  GLN110      0.1601
    125  C         14.3450   36.1670   90.0970 C.2   110  GLN110      0.2287
    126  O         13.5180   35.7980   90.9360 O.2   110  GLN110     -0.2864
    127  CB        14.9160   34.3740   88.4620 C.3   110  GLN110      0.0394
    128  CG        16.0210   33.6910   87.6970 C.3   110  GLN110      0.0908
    129  CD        15.4720   32.9560   86.4910 C.2   110  GLN110      0.2608
    130  OE1       14.7920   33.5490   85.6450 O.2   110  GLN110     -0.2717
    131  NE2       15.7380   31.6490   86.4170 N.am  110  GLN110     -0.0878
    132  N         12.0340   40.1120   88.9950 N.3   112  PHE112     -0.1241
    133  CA        11.6540   41.0560   87.9530 C.3   112  PHE112      0.1605
    134  C         11.2420   42.3820   88.5480 C.2   112  PHE112      0.2264
    135  O         10.8130   42.4470   89.7010 O.2   112  PHE112     -0.2867
    136  CB        10.5950   40.4880   86.9910 C.3   112  PHE112      0.0534
    137  CG         9.3060   40.0770   87.6360 C.ar  112  PHE112     -0.0203
    138  CD1        9.1960   38.8470   88.2710 C.ar  112  PHE112     -0.0042
    139  CD2        8.1850   40.8770   87.5550 C.ar  112  PHE112     -0.0042
    140  CE1        8.0010   38.4520   88.8440 C.ar  112  PHE112     -0.0003
    141  CE2        6.9910   40.4870   88.1240 C.ar  112  PHE112     -0.0003
    142  CZ         6.8950   39.2620   88.7570 C.ar  112  PHE112     -0.0000
    143  N         -2.5160   40.6670   87.6180 N.3   120  TRP120     -0.1227
    144  CA        -2.7840   39.2540   87.3420 C.3   120  TRP120      0.1737
    145  C         -1.7420   38.3100   87.9510 C.2   120  TRP120      0.2595
    146  O         -1.9510   37.0970   87.9910 O.2   120  TRP120     -0.2718
    147  CB        -2.9520   39.0000   85.8290 C.3   120  TRP120      0.0564
    148  CG        -1.7060   39.1120   85.0020 C.ar  120  TRP120      0.0003
    149  CD1       -0.8650   38.1020   84.6620 C.ar  120  TRP120      0.0946
    150  CD2       -1.1910   40.2930   84.3710 C.ar  120  TRP120      0.0152
    151  NE1        0.1530   38.5760   83.8820 N.ar  120  TRP120     -0.2442
    152  CE2       -0.0210   39.9170   83.6840 C.ar  120  TRP120      0.0810
    153  CE3       -1.6040   41.6310   84.3200 C.ar  120  TRP120      0.0012
    154  CZ2        0.7520   40.8320   82.9570 C.ar  120  TRP120      0.0191
    155  CZ3       -0.8390   42.5430   83.5910 C.ar  120  TRP120      0.0001
    156  CH2        0.3310   42.1360   82.9280 C.ar  120  TRP120      0.0015
    157  N         -0.6210   38.8710   88.4140 N.am  121  LEU121     -0.1980
    158  CA         0.3960   38.1090   89.1220 C.3   121  LEU121      0.1596
    159  C          0.2060   38.0750   90.6340 C.2   121  LEU121      0.2287
    160  O          0.9140   37.3370   91.3130 O.2   121  LEU121     -0.2864
    161  CB         1.7860   38.6580   88.7760 C.3   121  LEU121      0.0297
    162  CG         2.1240   38.6580   87.2830 C.3   121  LEU121      0.0022
    163  CD1        3.5070   39.2410   87.0650 C.3   121  LEU121      0.0001
    164  CD2        2.0140   37.2720   86.6680 C.3   121  LEU121      0.0001
    165  N          0.4880   34.8300   92.8810 N.3   124  LYS124     -0.1227
    166  CA         1.3420   33.8700   92.1650 C.3   124  LYS124      0.1736
    167  C          2.8460   34.1540   92.3130 C.2   124  LYS124      0.2595
    168  O          3.6500   33.2310   92.2930 O.2   124  LYS124     -0.2718
    169  CB         0.9470   33.8160   90.6920 C.3   124  LYS124      0.0541
    170  CG        -0.3970   33.1610   90.4480 C.2   124  LYS124     -0.0272
    171  CD        -0.8820   33.1320   89.0100 C.2   124  LYS124     -0.0103
    172  CE        -0.0140   33.8110   87.9770 C.3   124  LYS124      0.1350
    173  NZ        -0.8290   34.6030   87.0030 N.3   124  LYS124     -0.1262
    174  N          3.2140   35.4270   92.4300 N.am  125  HIS125     -0.1975
    175  CA         4.6100   35.8480   92.6070 C.3   125  HIS125      0.1656
    176  C          4.7090   36.6750   93.8670 C.2   125  HIS125      0.2291
    177  O          3.8450   37.5000   94.1240 O.2   125  HIS125     -0.2864
    178  CB         5.0720   36.6660   91.4030 C.3   125  HIS125      0.0771
    179  CG         5.0870   35.8700   90.1450 C.ar  125  HIS125      0.0820
    180  ND1        6.2120   35.2250   89.7000 N.ar  125  HIS125     -0.2267
    181  CD2        4.0920   35.5300   89.2910 C.ar  125  HIS125      0.1154
    182  CE1        5.9260   34.5500   88.5970 C.ar  125  HIS125      0.1986
    183  NE2        4.6450   34.7150   88.3320 N.ar  125  HIS125     -0.2212
@<TRIPOS>BOND
     1    28    26    1
     2    27    26    1
     3    27    29    1
     4    23    24    1
     5    23    26    1
     6    23    22    1
     7    24    25    2
     8     4     3    2
     9    21    19    1
    10    18    17    1
    11    18    19    2
    12    16    17    1
    13    16    15    1
    14     3    11   am
    15     3     2    1
    16    12    13    1
    17    12    15    1
    18    12    11    1
    19    13    14    2
    20    19    20    1
    21     2     5    1
    22     2     1    1
    23    30    31    1
    24    34    31    1
    25    34    35    1
    26     5     6    1
    27    37    35   ar
    28    37    39   ar
    29    31    32    1
    30     8     6   ar
    31     8    10   ar
    32    35    36   ar
    33    44    43    2
    34    39    40   ar
    35     6     7   ar
    36    68    66    1
    37    48    47    1
    38    41    32   am
    39    41    42    1
    40    58    59    1
    41    32    33    2
    42    10     9   ar
    43    43    42    1
    44    36    38   ar
    45    67    66    1
    46    40    38   ar
    47    59    60    1
    48   156   154   ar
    49   156   155   ar
    50     7     9   ar
    51   154   152   ar
    52    66    63    1
    53    42    45    1
    54    62    60   am
    55    62    63    1
    56    47    46    1
    57    60    61    2
    58    56    55    2
    59    52    51    2
    60    46    45    1
    61   155   153   ar
    62    49    50    1
    63   152   151   ar
    64   152   150   ar
    65   151   149   ar
    66    63    64    1
    67    53    50    1
    68    53    54    1
    69    55    57   am
    70    55    54    1
    71   153   150   ar
    72   150   148   ar
    73    51    50    1
    74   149   148   ar
    75   148   147    1
    76    64    69   am
    77    64    65    2
    78    69    70    1
    79   130   129    2
    80   147   144    1
    81   131   129   am
    82   129   128    1
    83   164   162    1
    84    70    71    1
    85   136   137    1
    86   136   133    1
    87   173   172    1
    88   163   162    1
    89   162   161    1
    90   144   143    1
    91   144   145    1
    92    92    91    2
    93   139   137   ar
    94   139   141   ar
    95   137   138   ar
    96   128   127    1
    97   101    98    1
    98    71    72    2
    99    98    99    1
   100    98    97    1
   101   145   146    2
   102   145   157   am
   103   133   134    1
   104   133   132    1
   105   172   171    1
   106   141   142   ar
   107    88    85    1
   108   100    99    2
   109   138   140   ar
   110   183   182   ar
   111   183   181   ar
   112   157   158    1
   113   127   124    1
   114    99   102   am
   115    91    97   am
   116    91    90    1
   117   134   135    2
   118   182   180   ar
   119   142   140   ar
   120   161   158    1
   121   171   170    2
   122   158   159    1
   123   102   103    1
   124    89    90    1
   125    89    86   am
   126   181   179   ar
   127    85    86    1
   128    85    84    1
   129   124   125    1
   130   124   123    1
   131    95    94    2
   132    90    93    1
   133    82    81    1
   134   180   179   ar
   135   103   104    1
   136    86    87    2
   137   125   126    2
   138   179   178    1
   139   170   169    1
   140    94    93    1
   141    94    96   am
   142   159   160    2
   143   123   119   am
   144   169   166    1
   145    81    80    2
   146    81    83    1
   147   122   121    1
   148   104   105    2
   149   111   110    1
   150   178   175    1
   151    80    79    1
   152   119   120    2
   153   119   118    1
   154   110   112    1
   155   110   107    1
   156   166   167    1
   157   166   165    1
   158   168   167    2
   159   167   174   am
   160   109   108    2
   161   174   175    1
   162   121   118    1
   163   175   176    1
   164   118   117    1
   165   117   115   am
   166    79    78    1
   167   108   107    1
   168   107   106    1
   169    78    77    1
   170   113   114    1
   171   114   115    1
   172   176   177    2
   173   115   116    2
   174    77    74    1
   175    74    73    1
   176    74    75    1
   177    75    76    2
