@<TRIPOS>MOLECULE
tmp/4zsiA00.pdb
 175 163 0 0 0
SMALL
GASTEIGER

@<TRIPOS>ATOM
      1  N        -20.3940    5.6120   23.2520 N.3     5  GLN5       -0.1245
      2  CA       -19.9320    4.6430   22.2730 C.3     5  GLN5        0.1566
      3  C        -18.4360    4.4060   22.3370 C.2     5  GLN5        0.2260
      4  O        -17.6480    5.3250   22.1080 O.2     5  GLN5       -0.2867
      5  CB       -20.3060    5.0980   20.8700 C.3     5  GLN5        0.0367
      6  CG       -19.8680    4.1180   19.7980 C.3     5  GLN5        0.0905
      7  CD       -20.8260    4.1020   18.6480 C.2     5  GLN5        0.2608
      8  OE1      -22.0310    3.9100   18.8370 O.2     5  GLN5       -0.2717
      9  NE2      -20.3050    4.3040   17.4350 N.am    5  GLN5       -0.0878
     10  N        -16.2580   -1.6090   14.6710 N.3    10  THR10      -0.1203
     11  CA       -17.5250   -2.3160   14.7310 C.3    10  THR10       0.1994
     12  C        -18.5460   -1.6190   13.8410 C.2    10  THR10       0.2619
     13  O        -18.3760   -0.4500   13.4820 O.2    10  THR10      -0.2717
     14  CB       -18.0700   -2.3700   16.1550 C.3    10  THR10       0.1784
     15  OG1      -18.0900   -1.0430   16.6840 O.3    10  THR10      -0.2211
     16  CG2      -17.2070   -3.2670   17.0370 C.3    10  THR10       0.0376
     17  N        -19.6120   -2.3320   13.5020 N.am   11  SER11      -0.1937
     18  CA       -20.6840   -1.7610   12.6960 C.3    11  SER11       0.2055
     19  C        -21.6860   -1.0120   13.5620 C.2    11  SER11       0.2643
     20  O        -21.7630   -1.2370   14.7670 O.2    11  SER11      -0.2714
     21  CB       -21.4170   -2.8600   11.9250 C.3    11  SER11       0.2130
     22  OG       -22.1310   -3.6910   12.8320 O.3    11  SER11      -0.2179
     23  N        -22.4560   -0.1360   12.9300 N.am   12  TYR12      -0.1959
     24  CA       -23.5660    0.5330   13.5890 C.3    12  TYR12       0.1771
     25  C        -24.5290   -0.4890   14.1710 C.2    12  TYR12       0.2620
     26  O        -25.0500   -0.3120   15.2780 O.2    12  TYR12      -0.2715
     27  CB       -24.3000    1.4410   12.6160 C.3    12  TYR12       0.0574
     28  CG       -25.4640    2.1610   13.2520 C.ar   12  TYR12      -0.0198
     29  CD1      -25.2600    3.3210   13.9910 C.ar   12  TYR12      -0.0009
     30  CD2      -26.7640    1.6700   13.1300 C.ar   12  TYR12      -0.0009
     31  CE1      -26.3180    3.9790   14.5940 C.ar   12  TYR12       0.0417
     32  CE2      -27.8360    2.3280   13.7250 C.ar   12  TYR12       0.0417
     33  CZ       -27.5990    3.4840   14.4500 C.ar   12  TYR12       0.1957
     34  OH       -28.6500    4.1440   15.0390 O.3    12  TYR12      -0.2866
     35  N        -24.7690   -1.5540   13.4160 N.am   13  THR13      -0.1951
     36  CA       -25.6550   -2.6240   13.8720 C.3    13  THR13       0.1897
     37  C        -25.1250   -3.2500   15.1600 C.2    13  THR13       0.2313
     38  O        -25.8760   -3.4450   16.1320 O.2    13  THR13      -0.2863
     39  CB       -25.8120   -3.7020   12.7910 C.3    13  THR13       0.1794
     40  OG1      -26.4550   -3.1300   11.6430 O.3    13  THR13      -0.2208
     41  CG2      -26.6420   -4.8710   13.3070 C.3    13  THR13       0.0378
     42  N        -22.9700   -1.8480   17.1980 N.3    15  ASP15      -0.1239
     43  CA       -22.9060   -0.8060   18.2150 C.3    15  ASP15       0.1674
     44  C        -24.2410   -0.6190   18.9010 C.2    15  ASP15       0.2266
     45  O        -24.2960   -0.4370   20.1200 O.2    15  ASP15      -0.2867
     46  CB       -22.4640    0.5170   17.6040 C.3    15  ASP15       0.1410
     47  CG       -20.9970    0.5310   17.2380 C.2    15  ASP15       0.3668
     48  OD1      -20.2380   -0.2880   17.7890 O.co2  15  ASP15      -0.2456
     49  OD2      -20.6130    1.3730   16.3980 O.co2  15  ASP15      -0.2456
     50  N        -27.0670    6.7580    4.2450 N.3    56  ARG56      -0.1245
     51  CA       -28.1190    6.1940    5.0790 C.3    56  ARG56       0.1563
     52  C        -28.3650    7.0110    6.3230 C.2    56  ARG56       0.2260
     53  O        -27.4330    7.5250    6.9360 O.2    56  ARG56      -0.2867
     54  CB       -27.7780    4.7720    5.4910 C.3    56  ARG56       0.0307
     55  CG       -27.8560    3.7760    4.3430 C.3    56  ARG56       0.0489
     56  CD       -27.5080    2.3790    4.8080 C.3    56  ARG56       0.2205
     57  NE       -26.0970    2.2480    5.1880 N.pl3  56  ARG56      -0.0865
     58  CZ       -25.6200    1.2230    5.8820 C.cat  56  ARG56       0.5346
     59  NH1      -26.4440    0.2590    6.2800 N.pl3  56  ARG56       0.1354
     60  NH2      -24.3240    1.1580    6.1870 N.pl3  56  ARG56       0.1354
     61  N        -29.2450    6.5190    9.9910 N.3    58  ARG58      -0.1245
     62  CA       -29.2530    5.4590   10.9900 C.3    58  ARG58       0.1563
     63  C        -30.0860    5.8880   12.2000 C.2    58  ARG58       0.2260
     64  O        -29.8990    6.9780   12.7420 O.2    58  ARG58      -0.2867
     65  CB       -27.8280    5.1010   11.4450 C.3    58  ARG58       0.0307
     66  CG       -26.7600    5.0270   10.3330 C.3    58  ARG58       0.0489
     67  CD       -27.0860    4.0790    9.1730 C.3    58  ARG58       0.2205
     68  NE       -27.3160    2.6730    9.5330 N.pl3  58  ARG58      -0.0865
     69  CZ       -26.3900    1.7200    9.6080 C.cat  58  ARG58       0.5346
     70  NH1      -25.1030    1.9880    9.3900 N.pl3  58  ARG58       0.1354
     71  NH2      -26.7510    0.4770    9.9250 N.pl3  58  ARG58       0.1354
     72  N        -24.7780    8.5410    7.6160 N.3    68  GLU68      -0.1245
     73  CA       -23.5000    7.9840    7.1830 C.3    68  GLU68       0.1567
     74  C        -23.4200    7.9230    5.6770 C.2    68  GLU68       0.2260
     75  O        -24.3560    7.4580    5.0260 O.2    68  GLU68      -0.2867
     76  CB       -23.3080    6.5750    7.7360 C.3    68  GLU68       0.0388
     77  CG       -23.2400    6.5040    9.2570 C.3    68  GLU68       0.1160
     78  CD       -22.8610    5.1160    9.7530 C.2    68  GLU68       0.3649
     79  OE1      -23.2850    4.1160    9.1280 O.co2  68  GLU68      -0.2457
     80  OE2      -22.1310    5.0190   10.7700 O.co2  68  GLU68      -0.2457
     81  N        -21.0030    6.1840    2.9720 N.3    70  THR70      -0.1218
     82  CA       -19.8610    5.2960    2.8100 C.3    70  THR70       0.1862
     83  C        -19.5580    5.1090    1.3400 C.2    70  THR70       0.2287
     84  O        -20.4520    5.1860    0.4980 O.2    70  THR70      -0.2866
     85  CB       -20.0840    3.9290    3.5070 C.3    70  THR70       0.1770
     86  OG1      -18.8940    3.1320    3.4040 O.3    70  THR70      -0.2211
     87  CG2      -21.2420    3.1800    2.9040 C.3    70  THR70       0.0375
     88  N        -27.0770   -4.6280    7.3330 N.3    89  SER89      -0.1202
     89  CA       -25.7080   -4.2870    7.7300 C.3    89  SER89       0.2020
     90  C        -24.7190   -4.4110    6.5670 C.2    89  SER89       0.2619
     91  O        -24.5740   -5.4870    5.9770 O.2    89  SER89      -0.2717
     92  CB       -25.2470   -5.1770    8.8850 C.3    89  SER89       0.2103
     93  OG       -23.8430   -5.0920    9.1050 O.3    89  SER89      -0.2182
     94  N        -24.0570   -3.3050    6.2510 N.am   90  LEU90      -0.1965
     95  CA       -22.9980   -3.2960    5.2500 C.3    90  LEU90       0.1728
     96  C        -21.8760   -4.2520    5.6170 C.2    90  LEU90       0.2616
     97  O        -21.3510   -4.9780    4.7630 O.2    90  LEU90      -0.2715
     98  CB       -22.4550   -1.8800    5.0770 C.3    90  LEU90       0.0311
     99  CG       -21.1800   -1.7500    4.2400 C.3    90  LEU90       0.0022
    100  CD1      -21.4330   -2.2160    2.8150 C.3    90  LEU90       0.0001
    101  CD2      -20.6450   -0.3300    4.2810 C.3    90  LEU90       0.0001
    102  N        -21.4960   -4.2730    6.8860 N.am   91  TYR91      -0.1974
    103  CA       -20.3710   -5.1240    7.2650 C.3    91  TYR91       0.1639
    104  C        -20.7610   -6.5890    7.1410 C.2    91  TYR91       0.2290
    105  O        -19.9450   -7.4230    6.7540 O.2    91  TYR91      -0.2864
    106  CB       -19.8990   -4.8070    8.6820 C.3    91  TYR91       0.0560
    107  CG       -19.0850   -3.5270    8.8070 C.ar   91  TYR91      -0.0198
    108  CD1      -18.9870   -2.6140    7.7570 C.ar   91  TYR91      -0.0009
    109  CD2      -18.4260   -3.2350    9.9870 C.ar   91  TYR91      -0.0009
    110  CE1      -18.2470   -1.4380    7.8920 C.ar   91  TYR91       0.0417
    111  CE2      -17.6790   -2.0800   10.1310 C.ar   91  TYR91       0.0417
    112  CZ       -17.5950   -1.1800    9.0910 C.ar   91  TYR91       0.1957
    113  OH       -16.8410   -0.0330    9.2500 O.3    91  TYR91      -0.2866
    114  N         -9.9530    6.3870   12.3070 N.3   107  GLU107     -0.1245
    115  CA       -11.1720    7.1640   12.4800 C.3   107  GLU107      0.1567
    116  C        -10.8240    8.5720   12.9290 C.2   107  GLU107      0.2260
    117  O         -9.9350    8.7550   13.7630 O.2   107  GLU107     -0.2867
    118  CB       -12.1070    6.4930   13.4950 C.3   107  GLU107      0.0388
    119  CG       -13.3860    7.2870   13.7090 C.3   107  GLU107      0.1160
    120  CD       -14.5670    6.4350   14.1140 C.2   107  GLU107      0.3649
    121  OE1      -15.1780    6.7490   15.1590 O.co2 107  GLU107     -0.2457
    122  OE2      -14.8940    5.4720   13.3940 O.co2 107  GLU107     -0.2457
    123  N        -17.6040   12.4760   11.7680 N.3   133  LEU133     -0.1245
    124  CA       -16.6550   11.3820   11.8070 C.3   133  LEU133      0.1561
    125  C        -16.2380   10.9660   10.4080 C.2   133  LEU133      0.2260
    126  O        -17.0030   11.0780    9.4400 O.2   133  LEU133     -0.2867
    127  CB       -17.2450   10.1710   12.5240 C.3   133  LEU133      0.0270
    128  CG       -17.0270   10.0180   14.0230 C.3   133  LEU133      0.0019
    129  CD1      -17.4940   11.2570   14.7590 C.3   133  LEU133      0.0001
    130  CD2      -17.7760    8.7920   14.4830 C.3   133  LEU133      0.0001
    131  N        -14.1890    7.4590    8.6550 N.3   135  ARG135     -0.1245
    132  CA       -13.5420    6.1930    8.9390 C.3   135  ARG135      0.1563
    133  C        -12.9610    5.6390    7.6550 C.2   135  ARG135      0.2260
    134  O        -13.6280    5.5940    6.6280 O.2   135  ARG135     -0.2867
    135  CB       -14.5080    5.1800    9.5580 C.3   135  ARG135      0.0307
    136  CG       -13.8630    3.8120    9.7800 C.3   135  ARG135      0.0489
    137  CD       -14.8530    2.8150   10.3480 C.3   135  ARG135      0.2205
    138  NE       -15.2770    3.1960   11.6950 N.pl3 135  ARG135     -0.0865
    139  CZ       -16.0310    2.4200   12.4700 C.cat 135  ARG135      0.5346
    140  NH1      -16.4350    1.2400   12.0130 N.pl3 135  ARG135      0.1354
    141  NH2      -16.3900    2.8240   13.6890 N.pl3 135  ARG135      0.1354
    142  N        -13.4920    0.7020    2.7130 N.3   146  GLU146     -0.1245
    143  CA       -14.4690    1.7860    2.7560 C.3   146  GLU146      0.1567
    144  C        -13.8350    3.0990    3.1770 C.2   146  GLU146      0.2260
    145  O        -12.8480    3.1320    3.9230 O.2   146  GLU146     -0.2867
    146  CB       -15.6410    1.4290    3.6970 C.3   146  GLU146      0.0388
    147  CG       -15.2810    1.4800    5.1460 C.3   146  GLU146      0.1160
    148  CD       -16.4800    1.3010    6.1030 C.2   146  GLU146      0.3649
    149  OE1      -16.2010    1.0600    7.2760 O.co2 146  GLU146     -0.2457
    150  OE2      -17.6660    1.4040    5.6880 O.co2 146  GLU146     -0.2457
    151  N        -15.6680    6.4670    4.8460 N.3   148  VAL148     -0.1245
    152  CA       -16.9740    6.9280    5.3130 C.3   148  VAL148      0.1561
    153  C        -16.8680    8.3200    5.8980 C.2   148  VAL148      0.2260
    154  O        -15.9220    8.6160    6.6250 O.2   148  VAL148     -0.2867
    155  CB       -17.5460    6.0100    6.4010 C.3   148  VAL148      0.0252
    156  CG1      -19.0670    6.2510    6.5580 C.3   148  VAL148      0.0019
    157  CG2      -17.2700    4.5680    6.0810 C.3   148  VAL148      0.0019
    158  N        -19.4490   10.9320    8.1080 N.3   150  SER150     -0.1217
    159  CA       -20.6990   10.8040    8.8510 C.3   150  SER150      0.1889
    160  C        -21.0110   12.0140    9.7030 C.2   150  SER150      0.2288
    161  O        -20.1210   12.7470   10.1120 O.2   150  SER150     -0.2866
    162  CB       -20.6470    9.5830    9.7530 C.3   150  SER150      0.2089
    163  OG       -20.4760    8.3960    8.9830 O.3   150  SER150     -0.2183
    164  N        -22.9300   12.6270   13.2450 N.3   152  TYR152     -0.1241
    165  CA       -23.5540   12.0350   14.4220 C.3   152  TYR152      0.1605
    166  C        -24.1330   13.1530   15.2850 C.2   152  TYR152      0.2264
    167  O        -23.5100   14.2010   15.4820 O.2   152  TYR152     -0.2867
    168  CB       -22.5380   11.1940   15.2110 C.3   152  TYR152      0.0534
    169  CG       -22.3110    9.7980   14.6640 C.ar  152  TYR152     -0.0201
    170  CD1      -21.8060    9.5980   13.3830 C.ar  152  TYR152     -0.0009
    171  CD2      -22.6050    8.6800   15.4270 C.ar  152  TYR152     -0.0009
    172  CE1      -21.6080    8.3120   12.8840 C.ar  152  TYR152      0.0417
    173  CE2      -22.3970    7.4010   14.9450 C.ar  152  TYR152      0.0417
    174  CZ       -21.9050    7.2240   13.6690 C.ar  152  TYR152      0.1957
    175  OH       -21.6970    5.9550   13.1730 O.3   152  TYR152     -0.2866
@<TRIPOS>BOND
     1    84    83    2
     2    83    82    1
     3   142   143    1
     4   143   144    1
     5   143   146    1
     6    82    81    1
     7    82    85    1
     8   100    99    1
     9    87    85    1
    10   144   145    2
    11    86    85    1
    12   146   147    1
    13    99   101    1
    14    99    98    1
    15    50    51    1
    16    55    56    1
    17    55    54    1
    18    97    96    2
    19    56    57    1
    20   151   152    1
    21    75    74    2
    22    98    95    1
    23    51    54    1
    24    51    52    1
    25   147   148    1
    26    57    58    2
    27    95    96    1
    28    95    94    1
    29   152   153    1
    30   152   155    1
    31    96   102   am
    32    74    73    1
    33   150   148   ar
    34    58    60    1
    35    58    59    1
    36   153   154    2
    37    91    90    2
    38   157   155    1
    39   148   149   ar
    40    94    90   am
    41    52    53    2
    42   155   156    1
    43    90    89    1
    44   134   133    2
    45   105   104    2
    46   102   103    1
    47   104   103    1
    48    73    72    1
    49    73    76    1
    50   103   106    1
    51    88    89    1
    52   133   132    1
    53    89    92    1
    54    76    77    1
    55   108   110   ar
    56   108   107   ar
    57   110   112   ar
    58   158   159    1
    59   131   132    1
    60   106   107    1
    61   107   109   ar
    62   159   160    1
    63   159   162    1
    64    92    93    1
    65   132   135    1
    66   163   162    1
    67   112   113    1
    68   112   111   ar
    69    79    78   ar
    70    67    68    1
    71    67    66    1
    72    77    78    1
    73    70    69    1
    74   126   125    2
    75    68    69    2
    76   135   136    1
    77    69    71    1
    78   160   161    2
    79    78    80   ar
    80   136   137    1
    81   109   111   ar
    82    61    62    1
    83    66    65    1
    84   137   138    1
    85   125   124    1
    86    62    65    1
    87    62    63    1
    88    40    39    1
    89   138   139    2
    90   123   124    1
    91   124   127    1
    92    21    18    1
    93    21    22    1
    94   140   139    1
    95    63    64    2
    96   114   115    1
    97   139   141    1
    98   115   116    1
    99   115   118    1
   100   127   128    1
   101    27    28    1
   102    27    24    1
   103    18    17    1
   104    18    19    1
   105    39    41    1
   106    39    36    1
   107   172   170   ar
   108   172   174   ar
   109   116   117    2
   110    23    19   am
   111    23    24    1
   112    30    28   ar
   113    30    32   ar
   114   175   174    1
   115   164   165    1
   116    28    29   ar
   117   170   169   ar
   118   122   120   ar
   119    35    36    1
   120    35    25   am
   121    13    12    2
   122   118   119    1
   123    17    12   am
   124    19    20    2
   125    24    25    1
   126   174   173   ar
   127   119   120    1
   128    32    33   ar
   129    12    11    1
   130    36    37    1
   131    29    31   ar
   132   128   130    1
   133   128   129    1
   134   120   121   ar
   135    25    26    2
   136   165   168    1
   137   165   166    1
   138    33    31   ar
   139    33    34    1
   140   169   168    1
   141   169   171   ar
   142    10    11    1
   143    11    14    1
   144   173   171   ar
   145    37    38    2
   146   166   167    2
   147    14    15    1
   148    14    16    1
   149    49    47   ar
   150    42    43    1
   151    47    46    1
   152    47    48   ar
   153     9     7   am
   154    46    43    1
   155    43    44    1
   156     7     8    2
   157     7     6    1
   158    44    45    2
   159     6     5    1
   160     5     2    1
   161     4     3    2
   162     2     3    1
   163     2     1    1
