@<TRIPOS>MOLECULE
tmp/4zsjA00.pdb
 127 117 0 0 0
SMALL
GASTEIGER

@<TRIPOS>ATOM
      1  N          3.7330  -41.4690   -5.9510 N.3    16  ALA16      -0.1231
      2  CA         3.3260  -40.0690   -5.8600 C.3    16  ALA16       0.1694
      3  C          1.8160  -39.8700   -5.6310 C.2    16  ALA16       0.2592
      4  O          1.4500  -38.9550   -4.9040 O.2    16  ALA16      -0.2718
      5  CB         3.7780  -39.3040   -7.0970 C.3    16  ALA16       0.0304
      6  N          0.9470  -40.6960   -6.2490 N.am   17  TYR17      -0.1962
      7  CA        -0.5080  -40.4950   -6.1910 C.3    17  TYR17       0.1771
      8  C         -1.3540  -41.6900   -5.6700 C.2    17  TYR17       0.2620
      9  O         -2.5550  -41.7790   -5.9680 O.2    17  TYR17      -0.2715
     10  CB        -1.0190  -40.0290   -7.5710 C.3    17  TYR17       0.0574
     11  CG        -0.2800  -38.8070   -8.0760 C.ar   17  TYR17      -0.0198
     12  CD1       -0.4080  -37.5720   -7.4350 C.ar   17  TYR17      -0.0009
     13  CD2        0.6270  -38.9020   -9.1310 C.ar   17  TYR17      -0.0009
     14  CE1        0.2660  -36.4480   -7.8950 C.ar   17  TYR17       0.0417
     15  CE2        1.3350  -37.7880   -9.5770 C.ar   17  TYR17       0.0417
     16  CZ         1.1370  -36.5620   -8.9680 C.ar   17  TYR17       0.1957
     17  OH         1.8060  -35.4670   -9.4470 O.3    17  TYR17      -0.2866
     18  N         -0.7450  -42.5260   -4.8310 N.am   18  GLY18      -0.1940
     19  CA        -1.4130  -43.6490   -4.1800 C.3    18  GLY18       0.2014
     20  C         -1.9000  -44.7720   -5.0680 C.2    18  GLY18       0.2638
     21  O         -1.1460  -45.7010   -5.3520 O.2    18  GLY18      -0.2714
     22  N         -3.1880  -44.7460   -5.4340 N.am   19  VAL19      -0.1977
     23  CA        -3.8050  -45.8080   -6.2400 C.3    19  VAL19       0.1596
     24  C         -4.4040  -45.2090   -7.5370 C.2    19  VAL19       0.2287
     25  O         -5.1750  -44.2370   -7.5050 O.2    19  VAL19      -0.2864
     26  CB        -4.7770  -46.7130   -5.4300 C.3    19  VAL19       0.0276
     27  CG1       -5.7940  -45.9100   -4.6250 C.3    19  VAL19       0.0022
     28  CG2       -5.4620  -47.7420   -6.3140 C.3    19  VAL19       0.0022
     29  N         -5.5300  -41.4620  -13.0900 N.3    35  LYS35      -0.1245
     30  CA        -5.8190  -41.0840  -11.7170 C.3    35  LYS35       0.1561
     31  C         -7.2750  -40.5760  -11.6050 C.2    35  LYS35       0.2260
     32  O         -7.6870  -39.7030  -12.3520 O.2    35  LYS35      -0.2867
     33  CB        -4.8190  -40.0260  -11.2200 C.3    35  LYS35       0.0271
     34  CG        -5.0170  -39.4990   -9.7830 C.3    35  LYS35       0.0035
     35  CD        -5.0770  -40.5920   -8.7030 C.3    35  LYS35       0.0206
     36  CE        -5.1480  -39.9780   -7.3170 C.3    35  LYS35       0.1093
     37  NZ        -5.4220  -40.9860   -6.2510 N.3    35  LYS35      -0.1314
     38  N         -9.8290  -38.7510   -8.9900 N.3    37  ILE37      -0.1245
     39  CA        -9.8550  -37.9350   -7.7630 C.3    37  ILE37       0.1561
     40  C        -11.3110  -37.9460   -7.4000 C.2    37  ILE37       0.2260
     41  O        -12.0910  -37.2350   -8.0400 O.2    37  ILE37      -0.2867
     42  CB        -9.2430  -36.5210   -7.9260 C.3    37  ILE37       0.0252
     43  CG1       -7.8210  -36.6100   -8.5460 C.3    37  ILE37       0.0019
     44  CG2       -9.2300  -35.7670   -6.5700 C.3    37  ILE37       0.0019
     45  CD1       -7.5760  -35.6690   -9.5250 C.3    37  ILE37       0.0001
     46  N         -8.7450  -30.3290   -0.0540 N.3    46  ASN46      -0.1240
     47  CA        -8.5540  -31.2920   -1.1600 C.3    46  ASN46       0.1653
     48  C         -8.7790  -30.6510   -2.5230 C.2    46  ASN46       0.2266
     49  O         -7.9560  -30.8080   -3.4280 O.2    46  ASN46      -0.2867
     50  CB        -9.4500  -32.5260   -0.9820 C.3    46  ASN46       0.1155
     51  CG        -9.1210  -33.3310    0.2530 C.2    46  ASN46       0.2627
     52  OD1       -8.0760  -33.1690    0.8880 O.2    46  ASN46      -0.2716
     53  ND2      -10.0080  -34.2020    0.6420 N.am   46  ASN46      -0.0877
     54  N         -5.9540  -28.3190   -3.4660 N.3    49  ARG49      -0.1231
     55  CA        -4.8140  -29.1450   -3.8240 C.3    49  ARG49       0.1694
     56  C         -4.8970  -29.6810   -5.2740 C.2    49  ARG49       0.2592
     57  O         -3.8960  -29.6000   -5.9880 O.2    49  ARG49      -0.2718
     58  CB        -4.6230  -30.2610   -2.7800 C.3    49  ARG49       0.0321
     59  CG        -3.3120  -30.9980   -2.9060 C.3    49  ARG49       0.0489
     60  CD        -3.5410  -32.4080   -3.4050 C.3    49  ARG49       0.2205
     61  NE        -2.3760  -32.9310   -4.1200 N.pl3  49  ARG49      -0.0865
     62  CZ        -1.6760  -33.9970   -3.7400 C.cat  49  ARG49       0.5346
     63  NH1       -2.0460  -34.6970   -2.6710 N.pl3  49  ARG49       0.1354
     64  NH2       -0.6080  -34.3800   -4.4330 N.pl3  49  ARG49       0.1354
     65  N         -6.0640  -30.2160   -5.6960 N.am   50  THR50      -0.1953
     66  CA        -6.3210  -30.6660   -7.0620 C.3    50  THR50       0.1897
     67  C         -6.0910  -29.5020   -8.0420 C.2    50  THR50       0.2313
     68  O         -5.4140  -29.6920   -9.0590 O.2    50  THR50      -0.2863
     69  CB        -7.7280  -31.2420   -7.1800 C.3    50  THR50       0.1794
     70  OG1       -7.8200  -32.3420   -6.2900 O.3    50  THR50      -0.2208
     71  CG2       -8.0730  -31.7220   -8.5990 C.3    50  THR50       0.0378
     72  N         -2.1380  -28.6560   -8.2290 N.3    53  GLU53      -0.1231
     73  CA        -1.4930  -29.7250   -9.0210 C.3    53  GLU53       0.1699
     74  C         -1.7450  -29.5960  -10.5230 C.2    53  GLU53       0.2592
     75  O         -0.7930  -29.6140  -11.3030 O.2    53  GLU53      -0.2718
     76  CB        -2.0080  -31.0770   -8.5440 C.3    53  GLU53       0.0402
     77  CG        -1.1350  -32.2160   -9.0080 C.3    53  GLU53       0.1161
     78  CD        -0.3900  -32.8690   -7.8720 C.2    53  GLU53       0.3649
     79  OE1       -0.9720  -32.9890   -6.7670 O.co2  53  GLU53      -0.2457
     80  OE2        0.7750  -33.2710   -8.0960 O.co2  53  GLU53      -0.2457
     81  N         -3.0220  -29.4440  -10.9180 N.am   54  LEU54      -0.1980
     82  CA        -3.4240  -29.2090  -12.3090 C.3    54  LEU54       0.1596
     83  C         -2.7250  -27.9870  -12.9060 C.2    54  LEU54       0.2287
     84  O         -2.1860  -28.1010  -14.0020 O.2    54  LEU54      -0.2864
     85  CB        -4.9480  -29.0530  -12.4400 C.3    54  LEU54       0.0297
     86  CG        -5.7690  -30.3260  -12.3010 C.3    54  LEU54       0.0022
     87  CD1       -7.2530  -29.9880  -12.1040 C.3    54  LEU54       0.0001
     88  CD2       -5.5700  -31.2610  -13.5010 C.3    54  LEU54       0.0001
     89  N          1.2460  -28.8160  -13.0980 N.3    57  LEU57      -0.1245
     90  CA         1.5660  -29.7770  -14.1600 C.3    57  LEU57       0.1561
     91  C          1.2300  -29.2720  -15.5660 C.2    57  LEU57       0.2260
     92  O          1.8470  -29.7300  -16.5380 O.2    57  LEU57      -0.2867
     93  CB         0.9680  -31.1740  -13.9040 C.3    57  LEU57       0.0270
     94  CG         1.2850  -31.8250  -12.5490 C.3    57  LEU57       0.0019
     95  CD1        0.7230  -33.2110  -12.4880 C.3    57  LEU57       0.0001
     96  CD2        2.7680  -31.8930  -12.2980 C.3    57  LEU57       0.0001
     97  N          0.5740  -34.2140  -17.6480 N.3    68  ILE68      -0.1245
     98  CA        -0.8360  -34.5030  -17.8120 C.3    68  ILE68       0.1561
     99  C         -0.9750  -34.7990  -19.3190 C.2    68  ILE68       0.2260
    100  O         -0.7550  -33.9140  -20.1480 O.2    68  ILE68      -0.2867
    101  CB        -1.7510  -33.3340  -17.3510 C.3    68  ILE68       0.0252
    102  CG1       -1.6540  -33.0950  -15.8290 C.3    68  ILE68       0.0019
    103  CG2       -3.1810  -33.6070  -17.7850 C.3    68  ILE68       0.0019
    104  CD1       -2.3730  -31.8900  -15.3100 C.3    68  ILE68       0.0001
    105  N         -7.6540  -37.9080  -14.4020 N.3    86  VAL86      -0.1245
    106  CA        -6.4220  -37.3770  -14.9980 C.3    86  VAL86       0.1561
    107  C         -5.6170  -38.5110  -15.6610 C.2    86  VAL86       0.2260
    108  O         -5.4370  -39.5660  -15.0550 O.2    86  VAL86      -0.2867
    109  CB        -5.5690  -36.5720  -13.9690 C.3    86  VAL86       0.0252
    110  CG1       -4.4680  -35.7840  -14.6840 C.3    86  VAL86       0.0019
    111  CG2       -6.4430  -35.6250  -13.1380 C.3    86  VAL86       0.0019
    112  N         -2.0830  -39.6690  -16.9270 N.3    88  LEU88      -0.1245
    113  CA        -0.6680  -39.3980  -16.7010 C.3    88  LEU88       0.1561
    114  C          0.2080  -40.3990  -17.4600 C.2    88  LEU88       0.2260
    115  O         -0.3140  -41.3630  -18.0130 O.2    88  LEU88      -0.2867
    116  CB        -0.3650  -39.4980  -15.1850 C.3    88  LEU88       0.0270
    117  CG        -1.1500  -38.5990  -14.2620 C.3    88  LEU88       0.0019
    118  CD1       -1.0430  -39.0880  -12.8480 C.3    88  LEU88       0.0001
    119  CD2       -0.6950  -37.1590  -14.3790 C.3    88  LEU88       0.0001
    120  N          3.8060  -35.4020   -7.4630 N.3   151  ASP151     -0.1239
    121  CA         3.2010  -35.0130   -6.1830 C.3   151  ASP151      0.1674
    122  C          3.5300  -33.5830   -5.7230 C.2   151  ASP151      0.2266
    123  O          4.3180  -33.3610   -4.8090 O.2   151  ASP151     -0.2867
    124  CB         3.5830  -36.0720   -5.1210 C.3   151  ASP151      0.1410
    125  CG         2.9240  -35.9270   -3.7740 C.2   151  ASP151      0.3668
    126  OD1        1.7330  -35.5680   -3.7370 O.co2 151  ASP151     -0.2456
    127  OD2        3.6100  -36.1620   -2.7470 O.co2 151  ASP151     -0.2456
@<TRIPOS>BOND
     1   100    99    2
     2    99    98    1
     3   115   114    2
     4    98    97    1
     5    98   101    1
     6   103   101    1
     7   114   113    1
     8   101   102    1
     9   112   113    1
    10   113   116    1
    11    92    91    2
    12   102   104    1
    13   107   108    2
    14   107   106    1
    15    91    90    1
    16   116   117    1
    17   106   105    1
    18   106   109    1
    19   110   109    1
    20   119   117    1
    21   117   118    1
    22    90    93    1
    23    90    89    1
    24    84    83    2
    25   109   111    1
    26    93    94    1
    27    88    86    1
    28    29    30    1
    29    83    82    1
    30    94    95    1
    31    94    96    1
    32    85    82    1
    33    85    86    1
    34    32    31    2
    35    82    81    1
    36    86    87    1
    37    30    31    1
    38    30    33    1
    39    75    74    2
    40    33    34    1
    41    81    74   am
    42    74    73    1
    43    34    35    1
    44    15    13   ar
    45    15    16   ar
    46    45    43    1
    47    17    16    1
    48    13    11   ar
    49    68    67    2
    50    73    76    1
    51    73    72    1
    52    77    76    1
    53    77    78    1
    54    38    39    1
    55    16    14   ar
    56    35    36    1
    57    71    69    1
    58    43    42    1
    59    80    78   ar
    60    11    10    1
    61    11    12   ar
    62    67    66    1
    63    41    40    2
    64    42    39    1
    65    42    44    1
    66    14    12   ar
    67    78    79   ar
    68    39    40    1
    69    10     7    1
    70    24    25    2
    71    24    23    1
    72   120   121    1
    73    36    37    1
    74    69    66    1
    75    69    70    1
    76     5     2    1
    77    66    65    1
    78    28    26    1
    79     6     7    1
    80     6     3   am
    81    23    22    1
    82    23    26    1
    83     7     8    1
    84   121   122    1
    85   121   124    1
    86    57    56    2
    87     9     8    2
    88     1     2    1
    89     2     3    1
    90   122   123    2
    91    65    56   am
    92     8    18   am
    93     3     4    2
    94    22    20   am
    95    26    27    1
    96    21    20    2
    97    56    55    1
    98   124   125    1
    99    20    19    1
   100    18    19    1
   101    64    62    1
   102    61    62    2
   103    61    60    1
   104    55    54    1
   105    55    58    1
   106   125   126   ar
   107   125   127   ar
   108    62    63    1
   109    49    48    2
   110    60    59    1
   111    59    58    1
   112    48    47    1
   113    47    50    1
   114    47    46    1
   115    50    51    1
   116    51    53   am
   117    51    52    2
