@<TRIPOS>MOLECULE
tmp/4zskA00.pdb
 172 162 0 0 0
SMALL
GASTEIGER

@<TRIPOS>ATOM
      1  N         -6.7110   14.8060  -14.7790 N.3    10  THR10      -0.1203
      2  CA        -6.7400   16.2650  -14.8450 C.3    10  THR10       0.1994
      3  C         -7.8510   16.8260  -13.9580 C.2    10  THR10       0.2619
      4  O         -8.7930   16.1140  -13.6100 O.2    10  THR10      -0.2717
      5  CB        -6.9490   16.7540  -16.2930 C.3    10  THR10       0.1784
      6  OG1       -8.0740   16.0700  -16.8570 O.3    10  THR10      -0.2211
      7  CG2       -5.7130   16.4760  -17.1520 C.3    10  THR10       0.0376
      8  N         -7.7320   18.1010  -13.5980 N.am   11  SER11      -0.1937
      9  CA        -8.7450   18.7710  -12.7890 C.3    11  SER11       0.2055
     10  C         -9.9030   19.2670  -13.6500 C.2    11  SER11       0.2643
     11  O         -9.7400   19.4850  -14.8540 O.2    11  SER11      -0.2714
     12  CB        -8.1350   19.9540  -12.0250 C.3    11  SER11       0.2130
     13  OG        -7.7940   21.0120  -12.9140 O.3    11  SER11      -0.2179
     14  N        -11.0610   19.4450  -13.0210 N.am   12  TYR12      -0.1959
     15  CA       -12.2100   20.0560  -13.6800 C.3    12  TYR12       0.1771
     16  C        -11.8330   21.4130  -14.2620 C.2    12  TYR12       0.2620
     17  O        -12.2760   21.7760  -15.3540 O.2    12  TYR12      -0.2715
     18  CB       -13.3900   20.2210  -12.7150 C.3    12  TYR12       0.0574
     19  CG       -14.5790   20.8940  -13.3690 C.ar   12  TYR12      -0.0198
     20  CD1      -15.5070   20.1480  -14.0940 C.ar   12  TYR12      -0.0009
     21  CD2      -14.7640   22.2790  -13.2860 C.ar   12  TYR12      -0.0009
     22  CE1      -16.5900   20.7550  -14.7170 C.ar   12  TYR12       0.0417
     23  CE2      -15.8500   22.8990  -13.9030 C.ar   12  TYR12       0.0417
     24  CZ       -16.7590   22.1280  -14.6150 C.ar   12  TYR12       0.1957
     25  OH       -17.8370   22.7250  -15.2320 O.3    12  TYR12      -0.2866
     26  N        -11.0110   22.1530  -13.5240 N.am   13  THR13      -0.1951
     27  CA       -10.5390   23.4570  -13.9710 C.3    13  THR13       0.1897
     28  C         -9.6810   23.3120  -15.2260 C.2    13  THR13       0.2313
     29  O         -9.8280   24.0870  -16.1760 O.2    13  THR13      -0.2863
     30  CB        -9.7320   24.1770  -12.8670 C.3    13  THR13       0.1794
     31  OG1      -10.5740   24.3880  -11.7250 O.3    13  THR13      -0.2208
     32  CG2       -9.2030   25.5190  -13.3660 C.3    13  THR13       0.0378
     33  N         -9.7430   20.6960  -17.3350 N.3    15  ASP15      -0.1239
     34  CA       -10.6460   20.1860  -18.3690 C.3    15  ASP15       0.1674
     35  C        -11.4770   21.2810  -19.0500 C.2    15  ASP15       0.2266
     36  O        -11.6690   21.2590  -20.2650 O.2    15  ASP15      -0.2867
     37  CB       -11.5950   19.1370  -17.7830 C.3    15  ASP15       0.1410
     38  CG       -10.8820   17.8590  -17.3690 C.2    15  ASP15       0.3668
     39  OD1       -9.7260   17.6340  -17.7890 O.co2  15  ASP15      -0.2456
     40  OD2      -11.4980   17.0680  -16.6280 O.co2  15  ASP15      -0.2456
     41  N        -19.4500   20.0150   -4.4940 N.3    56  ARG56      -0.1245
     42  CA       -19.4800   21.1920   -5.3480 C.3    56  ARG56       0.1563
     43  C        -20.2940   20.9860   -6.6040 C.2    56  ARG56       0.2260
     44  O        -20.2630   19.9170   -7.2220 O.2    56  ARG56      -0.2867
     45  CB       -18.0570   21.6050   -5.7280 C.3    56  ARG56       0.0307
     46  CG       -17.2360   22.1050   -4.5480 C.3    56  ARG56       0.0489
     47  CD       -15.8480   22.4830   -4.9910 C.3    56  ARG56       0.2205
     48  NE       -15.0480   21.3080   -5.3210 N.pl3  56  ARG56      -0.0865
     49  CZ       -13.8930   21.3580   -5.9770 C.cat  56  ARG56       0.5346
     50  NH1      -13.4180   22.5260   -6.3860 N.pl3  56  ARG56       0.1354
     51  NH2      -13.2190   20.2440   -6.2210 N.pl3  56  ARG56       0.1354
     52  N        -20.3410   21.8670  -10.2950 N.3    58  ARG58      -0.1245
     53  CA       -19.3990   22.3770  -11.2820 C.3    58  ARG58       0.1563
     54  C        -20.1830   22.9100  -12.4780 C.2    58  ARG58       0.2260
     55  O        -21.0440   22.2290  -13.0360 O.2    58  ARG58      -0.2867
     56  CB       -18.3880   21.3030  -11.7350 C.3    58  ARG58       0.0307
     57  CG       -17.7430   20.4500  -10.6270 C.3    58  ARG58       0.0489
     58  CD       -17.1670   21.2480   -9.4430 C.3    58  ARG58       0.2205
     59  NE       -16.0140   22.0950   -9.7700 N.pl3  58  ARG58      -0.0865
     60  CZ       -14.7400   21.7090   -9.7260 C.cat  58  ARG58       0.5346
     61  NH1      -14.4170   20.4650   -9.3920 N.pl3  58  ARG58       0.1354
     62  NH2      -13.7780   22.5740  -10.0320 N.pl3  58  ARG58       0.1354
     63  N        -19.9070   17.1120   -7.8280 N.3    68  GLU68      -0.1245
     64  CA       -18.7640   16.3020   -7.3870 C.3    68  GLU68       0.1567
     65  C        -18.6450   16.2770   -5.8820 C.2    68  GLU68       0.2260
     66  O        -18.6970   17.3160   -5.2230 O.2    68  GLU68      -0.2867
     67  CB       -17.4500   16.8360   -7.9630 C.3    68  GLU68       0.0388
     68  CG       -17.2790   16.6110   -9.4300 C.3    68  GLU68       0.1160
     69  CD       -15.9530   17.1240   -9.9500 C.2    68  GLU68       0.3649
     70  OE1      -15.2230   17.7870   -9.1770 O.co2  68  GLU68      -0.2457
     71  OE2      -15.6470   16.8510  -11.1350 O.co2  68  GLU68      -0.2457
     72  N        -15.9820   15.0210   -3.1290 N.3    70  THR70      -0.1218
     73  CA       -14.6100   14.5910   -2.9070 C.3    70  THR70       0.1862
     74  C        -14.3420   14.3130   -1.4310 C.2    70  THR70       0.2287
     75  O        -14.8690   14.9890   -0.5560 O.2    70  THR70      -0.2866
     76  CB       -13.6030   15.6340   -3.3890 C.3    70  THR70       0.1770
     77  OG1      -13.9730   16.0930   -4.6990 O.3    70  THR70      -0.2211
     78  CG2      -12.1720   15.0310   -3.4140 C.3    70  THR70       0.0375
     79  N         -9.5020   25.6410   -7.5410 N.3    89  SER89      -0.1202
     80  CA        -9.0890   24.2910   -7.9210 C.3    89  SER89       0.2020
     81  C         -8.5290   23.5130   -6.7330 C.2    89  SER89       0.2619
     82  O         -7.5750   23.9440   -6.0920 O.2    89  SER89      -0.2717
     83  CB        -8.0460   24.3450   -9.0320 C.3    89  SER89       0.2103
     84  OG        -7.4030   23.0910   -9.1940 O.3    89  SER89      -0.2182
     85  N         -9.1270   22.3630   -6.4520 N.am   90  LEU90      -0.1965
     86  CA        -8.6240   21.4770   -5.4070 C.3    90  LEU90       0.1728
     87  C         -7.2200   20.9850   -5.7290 C.2    90  LEU90       0.2616
     88  O         -6.3560   20.9050   -4.8600 O.2    90  LEU90      -0.2715
     89  CB        -9.5600   20.2860   -5.2320 C.3    90  LEU90       0.0311
     90  CG        -9.0580   19.1780   -4.3010 C.3    90  LEU90       0.0022
     91  CD1       -9.0130   19.6640   -2.8570 C.3    90  LEU90       0.0001
     92  CD2       -9.8940   17.9160   -4.4350 C.3    90  LEU90       0.0001
     93  N         -6.9840   20.6360   -6.9880 N.am   91  TYR91      -0.1974
     94  CA        -5.6720   20.1110   -7.3450 C.3    91  TYR91       0.1639
     95  C         -4.6180   21.1890   -7.1910 C.2    91  TYR91       0.2290
     96  O         -3.4840   20.9210   -6.7760 O.2    91  TYR91      -0.2864
     97  CB        -5.6690   19.5570   -8.7710 C.3    91  TYR91       0.0560
     98  CG        -6.3670   18.2160   -8.8960 C.ar   91  TYR91      -0.0198
     99  CD1       -6.9960   17.6260   -7.7980 C.ar   91  TYR91      -0.0009
    100  CD2       -6.3910   17.5370  -10.1130 C.ar   91  TYR91      -0.0009
    101  CE1       -7.6300   16.3950   -7.9110 C.ar   91  TYR91       0.0417
    102  CE2       -7.0220   16.3050  -10.2370 C.ar   91  TYR91       0.0417
    103  CZ        -7.6470   15.7460   -9.1380 C.ar   91  TYR91       0.1957
    104  OH        -8.2650   14.5180   -9.2630 O.3    91  TYR91      -0.2866
    105  N        -10.5050    5.3730  -12.4940 N.3   107  GLU107     -0.1245
    106  CA       -11.8150    5.9910  -12.6700 C.3   107  GLU107      0.1567
    107  C        -12.8470    4.9690  -13.1280 C.2   107  GLU107      0.2260
    108  O        -12.5890    4.1780  -14.0320 O.2   107  GLU107     -0.2867
    109  CB       -11.7410    7.1400  -13.6690 C.3   107  GLU107      0.0388
    110  CG       -13.0460    7.9050  -13.8000 C.3   107  GLU107      0.1160
    111  CD       -12.8200    9.3390  -14.1920 C.2   107  GLU107      0.3649
    112  OE1      -13.3340    9.7490  -15.2550 O.co2 107  GLU107     -0.2457
    113  OE2      -12.1190   10.0540  -13.4480 O.co2 107  GLU107     -0.2457
    114  N        -19.6670    8.7650  -12.0720 N.3   133  LEU133     -0.1231
    115  CA       -18.2290    8.5160  -12.0640 C.3   133  LEU133      0.1693
    116  C        -17.6400    8.4470  -10.6600 C.2   133  LEU133      0.2593
    117  O        -18.1010    9.1360   -9.7420 O.2   133  LEU133     -0.2718
    118  CB       -17.4830    9.6040  -12.8330 C.3   133  LEU133      0.0284
    119  CG       -17.2610    9.4690  -14.3350 C.3   133  LEU133      0.0019
    120  CD1      -18.5840    9.4830  -15.1080 C.3   133  LEU133      0.0001
    121  CD2      -16.3290   10.5750  -14.7920 C.3   133  LEU133      0.0001
    122  N        -16.6510    7.5780  -10.4830 N.am  134  SER134     -0.1938
    123  CA       -15.8470    7.6150   -9.2720 C.3   134  SER134      0.2055
    124  C        -14.3910    7.7600   -9.6790 C.2   134  SER134      0.2642
    125  O        -13.9940    7.3440  -10.7670 O.2   134  SER134     -0.2714
    126  CB       -16.0770    6.3720   -8.4010 C.3   134  SER134      0.2130
    127  OG       -15.5260    5.1950   -8.9690 O.3   134  SER134     -0.2179
    128  N        -13.6010    8.4130   -8.8360 N.am  135  ARG135     -0.1977
    129  CA       -12.1650    8.5000   -9.0830 C.3   135  ARG135      0.1597
    130  C        -11.4160    8.2690   -7.7870 C.2   135  ARG135      0.2287
    131  O        -11.7030    8.9140   -6.7910 O.2   135  ARG135     -0.2864
    132  CB       -11.7490    9.8500   -9.6740 C.3   135  ARG135      0.0334
    133  CG       -10.2190    9.9750   -9.8830 C.3   135  ARG135      0.0492
    134  CD        -9.7700   11.3440  -10.3840 C.3   135  ARG135      0.2205
    135  NE       -10.2300   11.6030  -11.7500 N.pl3 135  ARG135     -0.0865
    136  CZ        -9.8990   12.6710  -12.4730 C.cat 135  ARG135      0.5346
    137  NH1       -9.0910   13.5970  -11.9730 N.pl3 135  ARG135      0.1354
    138  NH2      -10.3820   12.8180  -13.7050 N.pl3 135  ARG135      0.1354
    139  N         -7.4520   11.1790   -2.7870 N.3   146  GLU146     -0.1245
    140  CA        -8.8790   11.4740   -2.8090 C.3   146  GLU146      0.1567
    141  C         -9.7040   10.2660   -3.2410 C.2   146  GLU146      0.2260
    142  O         -9.2150    9.3680   -3.9320 O.2   146  GLU146     -0.2867
    143  CB        -9.1550   12.6510   -3.7500 C.3   146  GLU146      0.0388
    144  CG        -8.7530   12.3540   -5.1820 C.3   146  GLU146      0.1160
    145  CD        -9.1590   13.4400   -6.1850 C.2   146  GLU146      0.3649
    146  OE1       -8.8450   13.2560   -7.3770 O.co2 146  GLU146     -0.2457
    147  OE2       -9.7770   14.4590   -5.7890 O.co2 146  GLU146     -0.2457
    148  N        -13.5170   10.2750   -5.0560 N.3   148  VAL148     -0.1245
    149  CA       -14.4870   11.2290   -5.5770 C.3   148  VAL148      0.1561
    150  C        -15.6360   10.4850   -6.2140 C.2   148  VAL148      0.2260
    151  O        -15.3990    9.5750   -7.0000 O.2   148  VAL148     -0.2867
    152  CB       -13.8540   12.1620   -6.6340 C.3   148  VAL148      0.0252
    153  CG1      -14.8080   13.3120   -6.9920 C.3   148  VAL148      0.0019
    154  CG2      -12.5620   12.6930   -6.1310 C.3   148  VAL148      0.0019
    155  N        -19.1090   11.3380   -8.4980 N.3   150  SER150     -0.1217
    156  CA       -19.6660   12.4440   -9.2520 C.3   150  SER150      0.1889
    157  C        -20.8940   12.0530  -10.0560 C.2   150  SER150      0.2288
    158  O        -21.1060   10.8790  -10.3740 O.2   150  SER150     -0.2866
    159  CB       -18.6100   13.0220  -10.1800 C.3   150  SER150      0.2089
    160  OG       -17.5020   13.5030   -9.4440 O.3   150  SER150     -0.2183
    161  N        -22.5620   13.3960  -13.5350 N.3   152  TYR152     -0.1241
    162  CA       -22.4760   14.2300  -14.7190 C.3   152  TYR152      0.1605
    163  C        -23.7660   14.1280  -15.5160 C.2   152  TYR152      0.2264
    164  O        -24.3040   13.0260  -15.7110 O.2   152  TYR152     -0.2867
    165  CB       -21.2730   13.8080  -15.5810 C.3   152  TYR152      0.0534
    166  CG       -19.9350   14.2160  -15.0140 C.ar  152  TYR152     -0.0201
    167  CD1      -19.4260   13.6160  -13.8740 C.ar  152  TYR152     -0.0009
    168  CD2      -19.1770   15.2130  -15.6250 C.ar  152  TYR152     -0.0009
    169  CE1      -18.2050   14.0060  -13.3500 C.ar  152  TYR152      0.0417
    170  CE2      -17.9550   15.6000  -15.1170 C.ar  152  TYR152      0.0417
    171  CZ       -17.4720   14.9980  -13.9740 C.ar  152  TYR152      0.1957
    172  OH       -16.2540   15.3850  -13.4520 O.3   152  TYR152     -0.2866
@<TRIPOS>BOND
     1    36    35    2
     2    35    34    1
     3    34    37    1
     4    34    33    1
     5    39    38   ar
     6    37    38    1
     7    38    40   ar
     8     7     5    1
     9     6     5    1
    10     5     2    1
    11    29    28    2
    12   164   163    2
    13   168   170   ar
    14   168   166   ar
    15   165   166    1
    16   165   162    1
    17   163   162    1
    18    17    16    2
    19   112   111   ar
    20    25    24    1
    21    28    27    1
    22   170   171   ar
    23   120   119    1
    24   166   167   ar
    25    11    10    2
    26     2     1    1
    27     2     3    1
    28   121   119    1
    29   162   161    1
    30    22    24   ar
    31    22    20   ar
    32    24    23   ar
    33   119   118    1
    34    16    15    1
    35    16    26   am
    36   111   110    1
    37   111   113   ar
    38    20    19   ar
    39   108   107    2
    40   171   172    1
    41   171   169   ar
    42    27    26    1
    43    27    30    1
    44     3     4    2
    45     3     8   am
    46    23    21   ar
    47   167   169   ar
    48   110   109    1
    49   138   136    1
    50    15    14    1
    51    15    18    1
    52   109   106    1
    53    10    14   am
    54    10     9    1
    55     8     9    1
    56    19    21   ar
    57    19    18    1
    58    32    30    1
    59   107   106    1
    60    55    54    2
    61    13    12    1
    62    30    31    1
    63   118   115    1
    64     9    12    1
    65   106   105    1
    66    54    53    1
    67   136   137    1
    68   136   135    2
    69   114   115    1
    70   115   116    1
    71   135   134    1
    72    56    53    1
    73    56    57    1
    74    53    52    1
    75    71    69   ar
    76   125   124    2
    77   116   122   am
    78   116   117    2
    79    57    58    1
    80   122   123    1
    81   134   133    1
    82   158   157    2
    83   102   100   ar
    84   102   103   ar
    85   159   160    1
    86   159   156    1
    87   100    98   ar
    88   157   156    1
    89    62    60    1
    90    69    68    1
    91    69    70   ar
    92   133   132    1
    93    59    60    2
    94    59    58    1
    95    60    61    1
    96   124   123    1
    97   124   128   am
    98   132   129    1
    99    68    67    1
   100   123   126    1
   101   104   103    1
   102   156   155    1
   103    84    83    1
   104   103   101   ar
   105   129   128    1
   106   129   130    1
   107    83    80    1
   108   127   126    1
   109    98    97    1
   110    98    99   ar
   111    97    94    1
   112    67    64    1
   113    80    79    1
   114    80    81    1
   115   101    99   ar
   116    63    64    1
   117   130   131    2
   118    64    65    1
   119   146   145   ar
   120    94    95    1
   121    94    93    1
   122    44    43    2
   123    95    96    2
   124   151   150    2
   125   153   152    1
   126    93    87   am
   127    81    85   am
   128    81    82    2
   129   152   154    1
   130   152   149    1
   131    43    42    1
   132    85    86    1
   133    50    49    1
   134    51    49    1
   135   150   149    1
   136   145   147   ar
   137   145   144    1
   138    49    48    2
   139    65    66    2
   140    87    86    1
   141    87    88    2
   142    45    42    1
   143    45    46    1
   144   149   148    1
   145    86    89    1
   146    42    41    1
   147    48    47    1
   148    89    90    1
   149   144   143    1
   150    47    46    1
   151    77    76    1
   152    92    90    1
   153    90    91    1
   154   142   141    2
   155   143   140    1
   156    78    76    1
   157    76    73    1
   158   141   140    1
   159    72    73    1
   160    73    74    1
   161   140   139    1
   162    74    75    2
