@<TRIPOS>MOLECULE
tmp/4zslA00.pdb
 127 117 0 0 0
SMALL
GASTEIGER

@<TRIPOS>ATOM
      1  N         88.7360   41.4260   49.6540 N.3    13  ALA13      -0.1231
      2  CA        89.1490   40.0270   49.7170 C.3    13  ALA13       0.1694
      3  C         90.6490   39.7820   49.9240 C.2    13  ALA13       0.2592
      4  O         90.9830   38.8380   50.6410 O.2    13  ALA13      -0.2718
      5  CB        88.6700   39.2820   48.4790 C.3    13  ALA13       0.0304
      6  N         91.5530   40.5860   49.2980 N.am   14  TYR14      -0.1962
      7  CA        93.0020   40.3180   49.4050 C.3    14  TYR14       0.1771
      8  C         93.8830   41.4600   49.9940 C.2    14  TYR14       0.2620
      9  O         95.1150   41.3540   49.9620 O.2    14  TYR14      -0.2715
     10  CB        93.5710   39.8650   48.0360 C.3    14  TYR14       0.0574
     11  CG        92.8490   38.6590   47.4710 C.ar   14  TYR14      -0.0198
     12  CD1       92.9920   37.3970   48.0510 C.ar   14  TYR14      -0.0009
     13  CD2       91.9740   38.7870   46.3930 C.ar   14  TYR14      -0.0009
     14  CE1       92.2970   36.2940   47.5620 C.ar   14  TYR14       0.0417
     15  CE2       91.2590   37.6930   45.9080 C.ar   14  TYR14       0.0417
     16  CZ        91.4370   36.4460   46.4840 C.ar   14  TYR14       0.1957
     17  OH        90.7680   35.3650   45.9710 O.3    14  TYR14      -0.2866
     18  N         93.2600   42.4840   50.5750 N.am   15  GLY15      -0.1940
     19  CA        93.9860   43.6060   51.1660 C.3    15  GLY15       0.2014
     20  C         94.5690   44.5300   50.1180 C.2    15  GLY15       0.2638
     21  O         93.8670   44.9470   49.2010 O.2    15  GLY15      -0.2714
     22  N         95.8630   44.8290   50.2180 N.am   16  VAL16      -0.1977
     23  CA        96.5590   45.7310   49.2940 C.3    16  VAL16       0.1596
     24  C         96.9600   45.0260   47.9520 C.2    16  VAL16       0.2287
     25  O         97.6150   43.9790   47.9660 O.2    16  VAL16      -0.2864
     26  CB        97.7560   46.4280   50.0130 C.3    16  VAL16       0.0276
     27  CG1       98.6110   45.4360   50.8070 C.3    16  VAL16       0.0022
     28  CG2       98.6110   47.2520   49.0530 C.3    16  VAL16       0.0022
     29  N         98.2370   41.2750   42.3870 N.3    32  LYS32      -0.1245
     30  CA        98.4580   40.9650   43.7890 C.3    32  LYS32       0.1561
     31  C         99.8710   40.3790   43.9520 C.2    32  LYS32       0.2260
     32  O        100.2380   39.4310   43.2510 O.2    32  LYS32      -0.2867
     33  CB        97.3910   39.9730   44.2930 C.3    32  LYS32       0.0271
     34  CG        97.6010   39.4400   45.7280 C.3    32  LYS32       0.0035
     35  CD        97.4370   40.5210   46.8130 C.3    32  LYS32       0.0206
     36  CE        97.8830   40.0700   48.1890 C.3    32  LYS32       0.1093
     37  NZ        97.8180   41.1720   49.1990 N.3    32  LYS32      -0.1314
     38  N        102.3930   38.4730   46.5580 N.3    34  ILE34      -0.1245
     39  CA       102.4240   37.6290   47.7590 C.3    34  ILE34       0.1561
     40  C        103.9030   37.6040   48.1320 C.2    34  ILE34       0.2260
     41  O        104.6730   36.8560   47.5280 O.2    34  ILE34      -0.2867
     42  CB       101.7700   36.2300   47.5960 C.3    34  ILE34       0.0252
     43  CG1      100.3610   36.3400   46.9710 C.3    34  ILE34       0.0019
     44  CG2      101.6720   35.5370   48.9630 C.3    34  ILE34       0.0019
     45  CD1       99.9930   35.1780   46.0160 C.3    34  ILE34       0.0001
     46  N        101.0800   30.0130   55.4900 N.3    43  ASN43      -0.1240
     47  CA       100.9070   30.9600   54.3870 C.3    43  ASN43       0.1653
     48  C        101.1150   30.2910   53.0270 C.2    43  ASN43       0.2266
     49  O        100.3580   30.5590   52.0950 O.2    43  ASN43      -0.2867
     50  CB       101.8910   32.1060   54.5030 C.3    43  ASN43       0.1155
     51  CG       101.3180   33.2920   55.1900 C.2    43  ASN43       0.2627
     52  OD1      100.6160   34.1040   54.5720 O.2    43  ASN43      -0.2716
     53  ND2      101.5840   33.4020   56.4850 N.am   43  ASN43      -0.0877
     54  N         98.2180   28.0470   52.0450 N.3    46  ARG46      -0.1231
     55  CA        97.0810   28.8960   51.6850 C.3    46  ARG46       0.1694
     56  C         97.2210   29.4100   50.2350 C.2    46  ARG46       0.2592
     57  O         96.2420   29.4130   49.4850 O.2    46  ARG46      -0.2718
     58  CB        96.9660   30.0640   52.6820 C.3    46  ARG46       0.0321
     59  CG        95.6580   30.7880   52.6340 C.3    46  ARG46       0.0489
     60  CD        95.8480   32.1960   52.1170 C.3    46  ARG46       0.2205
     61  NE        94.6400   32.6930   51.4520 N.pl3  46  ARG46      -0.0865
     62  CZ        94.0250   33.8350   51.7510 C.cat  46  ARG46       0.5346
     63  NH1       94.5250   34.6460   52.6810 N.pl3  46  ARG46       0.1354
     64  NH2       92.9110   34.1820   51.1150 N.pl3  46  ARG46       0.1354
     65  N         98.4240   29.8570   49.8540 N.am   47  THR47      -0.1953
     66  CA        98.6890   30.2980   48.4920 C.3    47  THR47       0.1897
     67  C         98.4050   29.1280   47.5230 C.2    47  THR47       0.2313
     68  O         97.6810   29.3350   46.5660 O.2    47  THR47      -0.2863
     69  CB       100.1170   30.8400   48.3730 C.3    47  THR47       0.1794
     70  OG1      100.2510   31.8800   49.3230 O.3    47  THR47      -0.2208
     71  CG2      100.4550   31.3670   46.9420 C.3    47  THR47       0.0378
     72  N         94.5330   28.4130   47.2890 N.3    50  GLU50      -0.1231
     73  CA        93.8840   29.4650   46.5300 C.3    50  GLU50       0.1699
     74  C         94.1590   29.3710   45.0150 C.2    50  GLU50       0.2592
     75  O         93.2040   29.4740   44.2460 O.2    50  GLU50      -0.2718
     76  CB        94.2580   30.8370   47.0920 C.3    50  GLU50       0.0402
     77  CG        93.3670   31.9440   46.5520 C.3    50  GLU50       0.1161
     78  CD        92.6790   32.7620   47.6270 C.2    50  GLU50       0.3649
     79  OE1       93.3100   33.0280   48.6810 O.co2  50  GLU50      -0.2457
     80  OE2       91.5220   33.1800   47.3850 O.co2  50  GLU50      -0.2457
     81  N         95.4250   29.1110   44.6050 N.am   51  LEU51      -0.1980
     82  CA        95.7760   28.9660   43.1910 C.3    51  LEU51       0.1596
     83  C         95.0080   27.8110   42.5560 C.2    51  LEU51       0.2287
     84  O         94.4060   27.9930   41.4960 O.2    51  LEU51      -0.2864
     85  CB        97.2950   28.7860   42.9580 C.3    51  LEU51       0.0297
     86  CG        98.2330   29.9940   43.1980 C.3    51  LEU51       0.0022
     87  CD1       99.7080   29.5540   43.1590 C.3    51  LEU51       0.0001
     88  CD2       98.0560   31.0820   42.1110 C.3    51  LEU51       0.0001
     89  N         91.0620   28.6250   42.3890 N.3    54  LEU54      -0.1245
     90  CA        90.7520   29.6310   41.3740 C.3    54  LEU54       0.1561
     91  C         91.0140   29.1470   39.9590 C.2    54  LEU54       0.2260
     92  O         90.3260   29.5950   39.0460 O.2    54  LEU54      -0.2867
     93  CB        91.4260   30.9990   41.6420 C.3    54  LEU54       0.0270
     94  CG        91.1160   31.6840   42.9920 C.3    54  LEU54       0.0019
     95  CD1       91.6900   33.0740   43.0310 C.3    54  LEU54       0.0001
     96  CD2       89.6240   31.7950   43.2500 C.3    54  LEU54       0.0001
     97  N         91.8440   33.9660   37.9530 N.3    65  ILE65      -0.1245
     98  CA        93.2590   34.2680   37.7570 C.3    65  ILE65       0.1561
     99  C         93.3620   34.5970   36.2440 C.2    65  ILE65       0.2260
    100  O         93.0080   33.7680   35.4000 O.2    65  ILE65      -0.2867
    101  CB        94.2250   33.1350   38.2060 C.3    65  ILE65       0.0252
    102  CG1       94.2130   32.9450   39.7460 C.3    65  ILE65       0.0019
    103  CG2       95.6490   33.4350   37.6980 C.3    65  ILE65       0.0019
    104  CD1       94.7350   31.6080   40.1920 C.3    65  ILE65       0.0001
    105  N        100.1190   37.5580   41.0740 N.3    83  VAL83      -0.1245
    106  CA        98.9100   37.0160   40.4530 C.3    83  VAL83       0.1561
    107  C         98.1450   38.1750   39.7950 C.2    83  VAL83       0.2260
    108  O         97.9730   39.2380   40.4030 O.2    83  VAL83      -0.2867
    109  CB        98.0220   36.2340   41.4720 C.3    83  VAL83       0.0252
    110  CG1       96.8330   35.5710   40.7630 C.3    83  VAL83       0.0019
    111  CG2       98.8350   35.1860   42.2220 C.3    83  VAL83       0.0019
    112  N         94.6660   39.4300   38.4780 N.3    85  LEU85      -0.1245
    113  CA        93.2560   39.1360   38.7220 C.3    85  LEU85       0.1561
    114  C         92.3090   40.1230   38.0520 C.2    85  LEU85       0.2260
    115  O         92.7500   41.1380   37.5110 O.2    85  LEU85      -0.2867
    116  CB        92.9970   39.1280   40.2470 C.3    85  LEU85       0.0270
    117  CG        93.8150   38.1520   41.0740 C.3    85  LEU85       0.0019
    118  CD1       93.8140   38.5560   42.5150 C.3    85  LEU85       0.0001
    119  CD2       93.2870   36.7340   40.9280 C.3    85  LEU85       0.0001
    120  N         88.6050   35.4270   48.1260 N.3   148  ASP148     -0.1239
    121  CA        89.2250   35.0550   49.4010 C.3   148  ASP148      0.1674
    122  C         88.8720   33.6460   49.8510 C.2   148  ASP148      0.2266
    123  O         88.0760   33.4580   50.7830 O.2   148  ASP148     -0.2867
    124  CB        88.8760   36.1250   50.4730 C.3   148  ASP148      0.1410
    125  CG        89.4900   35.9370   51.8470 C.2   148  ASP148      0.3668
    126  OD1       90.4760   35.1780   51.9590 O.co2 148  ASP148     -0.2456
    127  OD2       88.9510   36.5200   52.8260 O.co2 148  ASP148     -0.2456
@<TRIPOS>BOND
     1   100    99    2
     2    99    98    1
     3   115   114    2
     4   103   101    1
     5    98    97    1
     6    98   101    1
     7   114   113    1
     8   101   102    1
     9   112   113    1
    10   113   116    1
    11    92    91    2
    12   102   104    1
    13   107   108    2
    14   107   106    1
    15    91    90    1
    16   116   117    1
    17   106   105    1
    18   106   109    1
    19   110   109    1
    20   119   117    1
    21   117   118    1
    22    90    93    1
    23    90    89    1
    24   109   111    1
    25    84    83    2
    26    93    94    1
    27    88    86    1
    28    29    30    1
    29    83    82    1
    30    85    82    1
    31    85    86    1
    32    94    95    1
    33    94    96    1
    34    87    86    1
    35    82    81    1
    36    32    31    2
    37    30    31    1
    38    30    33    1
    39    75    74    2
    40    33    34    1
    41    81    74   am
    42    74    73    1
    43    34    35    1
    44    15    13   ar
    45    15    16   ar
    46    17    16    1
    47    45    43    1
    48    13    11   ar
    49    16    14   ar
    50    73    76    1
    51    73    72    1
    52    77    76    1
    53    77    78    1
    54    38    39    1
    55    68    67    2
    56    35    36    1
    57    71    69    1
    58    43    42    1
    59    80    78   ar
    60    11    10    1
    61    11    12   ar
    62    67    66    1
    63    41    40    2
    64    14    12   ar
    65    42    39    1
    66    42    44    1
    67    78    79   ar
    68    39    40    1
    69    24    25    2
    70    24    23    1
    71    10     7    1
    72   120   121    1
    73    36    37    1
    74    69    66    1
    75    69    70    1
    76     5     2    1
    77    66    65    1
    78    28    26    1
    79    21    20    2
    80    23    26    1
    81    23    22    1
    82     6     7    1
    83     6     3   am
    84   121   122    1
    85   121   124    1
    86     7     8    1
    87    57    56    2
    88     1     2    1
    89     2     3    1
    90   122   123    2
    91    65    56   am
    92     3     4    2
    93     9     8    2
    94     8    18   am
    95    26    27    1
    96    20    22   am
    97    20    19    1
    98    56    55    1
    99   124   125    1
   100    18    19    1
   101    64    62    1
   102    61    62    2
   103    61    60    1
   104    55    54    1
   105    55    58    1
   106    62    63    1
   107   125   126   ar
   108   125   127   ar
   109    49    48    2
   110    60    59    1
   111    59    58    1
   112    48    47    1
   113    47    50    1
   114    47    46    1
   115    50    51    1
   116    52    51    2
   117    51    53   am
