@<TRIPOS>MOLECULE
tmp/4zsmA00.pdb
 99 93 0 0 0
SMALL
GASTEIGER

@<TRIPOS>ATOM
      1  N         24.5390    1.5090   -0.4940 N.3    34  LEU34      -0.1245
      2  CA        23.3770    1.8230    0.3460 C.3    34  LEU34       0.1561
      3  C         23.4370    1.0880    1.6710 C.2    34  LEU34       0.2260
      4  O         23.6650   -0.1190    1.7070 O.2    34  LEU34      -0.2867
      5  CB        22.0710    1.4550   -0.3920 C.3    34  LEU34       0.0270
      6  CG        20.7490    1.6300    0.3950 C.3    34  LEU34       0.0019
      7  CD1       20.3620    3.1020    0.3500 C.3    34  LEU34       0.0001
      8  CD2       19.6240    0.7640   -0.1680 C.3    34  LEU34       0.0001
      9  N         21.5500   -0.4840    4.5250 N.3    36  ASP36      -0.1239
     10  CA        20.2160   -1.0520    4.5900 C.3    36  ASP36       0.1674
     11  C         20.0390   -2.0100    5.7600 C.2    36  ASP36       0.2266
     12  O         20.4060   -3.1750    5.6600 O.2    36  ASP36      -0.2867
     13  CB        19.9280   -1.7830    3.2730 C.3    36  ASP36       0.1410
     14  CG        18.4870   -2.3450    3.1980 C.2    36  ASP36       0.3668
     15  OD1       17.5970   -1.9170    3.9850 O.co2  36  ASP36      -0.2456
     16  OD2       18.2550   -3.2200    2.3390 O.co2  36  ASP36      -0.2456
     17  N         17.2860   -3.2690    6.6200 N.3    38  GLY38      -0.1210
     18  CA        16.0730   -4.0780    6.3090 C.3    38  GLY38       0.1956
     19  C         16.3480   -5.2990    5.4240 C.2    38  GLY38       0.2612
     20  O         15.4260   -5.9600    4.9540 O.2    38  GLY38      -0.2717
     21  N         17.6180   -5.6040    5.1910 N.am   39  SER39      -0.1952
     22  CA        17.9840   -6.7570    4.3400 C.3    39  SER39       0.1924
     23  C         19.3560   -7.2680    4.7690 C.2    39  SER39       0.2314
     24  O         19.9970   -6.6440    5.6210 O.2    39  SER39      -0.2863
     25  CB        17.9490   -6.3830    2.8460 C.3    39  SER39       0.2116
     26  OG        18.9770   -5.4710    2.4610 O.3    39  SER39      -0.2180
     27  N         11.6510   -7.8120   -4.9260 N.3    75  TYR75      -0.1241
     28  CA        10.9920   -6.9880   -3.9140 C.3    75  TYR75       0.1605
     29  C          9.5860   -6.6750   -4.4210 C.2    75  TYR75       0.2264
     30  O          9.1920   -7.1670   -5.4770 O.2    75  TYR75      -0.2867
     31  CB        11.7680   -5.6830   -3.6450 C.3    75  TYR75       0.0534
     32  CG        13.2590   -5.8520   -3.3950 C.ar   75  TYR75      -0.0201
     33  CD1       13.7490   -6.5520   -2.2690 C.ar   75  TYR75      -0.0009
     34  CD2       14.1770   -5.2900   -4.2760 C.ar   75  TYR75      -0.0009
     35  CE1       15.1180   -6.6950   -2.0540 C.ar   75  TYR75       0.0417
     36  CE2       15.5390   -5.4200   -4.0690 C.ar   75  TYR75       0.0417
     37  CZ        16.0060   -6.1180   -2.9710 C.ar   75  TYR75       0.1957
     38  OH        17.3730   -6.2200   -2.8240 O.3    75  TYR75      -0.2866
     39  N          8.4710   -3.6300   -5.4140 N.3    77  GLN77      -0.1245
     40  CA         8.7760   -2.8970   -6.6200 C.3    77  GLN77       0.1566
     41  C         10.2390   -3.1880   -6.8990 C.2    77  GLN77       0.2260
     42  O         11.0940   -2.9830   -6.0390 O.2    77  GLN77      -0.2867
     43  CB         8.6150   -1.3930   -6.3830 C.3    77  GLN77       0.0367
     44  CG         7.4510   -0.9940   -5.4850 C.3    77  GLN77       0.0905
     45  CD         6.1460   -0.8520   -6.2480 C.2    77  GLN77       0.2608
     46  OE1        6.1390   -0.5020   -7.4340 O.2    77  GLN77      -0.2717
     47  NE2        5.0290   -1.1180   -5.5690 N.am   77  GLN77      -0.0878
     48  N         15.5380   -1.1120   -9.8300 N.3   112  PHE112     -0.1241
     49  CA        16.3090   -1.2780   -8.6080 C.3   112  PHE112      0.1605
     50  C         17.2600   -0.1240   -8.4940 C.2   112  PHE112      0.2264
     51  O         17.1630    0.6630   -7.5450 O.2   112  PHE112     -0.2867
     52  CB        17.0280   -2.6250   -8.6050 C.3   112  PHE112      0.0534
     53  CG        17.9200   -2.8430   -7.4110 C.ar  112  PHE112     -0.0203
     54  CD1       17.3760   -3.0220   -6.1440 C.ar  112  PHE112     -0.0042
     55  CD2       19.3080   -2.8840   -7.5660 C.ar  112  PHE112     -0.0042
     56  CE1       18.1940   -3.2390   -5.0530 C.ar  112  PHE112     -0.0003
     57  CE2       20.1430   -3.0910   -6.4730 C.ar  112  PHE112     -0.0003
     58  CZ        19.5830   -3.2700   -5.2160 C.ar  112  PHE112     -0.0000
     59  N         24.1110    5.4560   -5.5870 N.3   119  TRP119     -0.1241
     60  CA        24.6930    4.2300   -5.0430 C.3   119  TRP119      0.1605
     61  C         24.7240    3.1280   -6.0930 C.2   119  TRP119      0.2264
     62  O         23.9010    3.1090   -7.0090 O.2   119  TRP119     -0.2867
     63  CB        24.0310    3.7690   -3.7550 C.3   119  TRP119      0.0550
     64  CG        22.5640    3.7330   -3.7400 C.ar  119  TRP119      0.0003
     65  CD1       21.7350    4.7140   -3.2670 C.ar  119  TRP119      0.0946
     66  CD2       21.7150    2.6530   -4.1670 C.ar  119  TRP119      0.0152
     67  NE1       20.4330    4.3170   -3.3730 N.ar  119  TRP119     -0.2442
     68  CE2       20.3830    3.0610   -3.9240 C.ar  119  TRP119      0.0810
     69  CE3       21.9530    1.3830   -4.7190 C.ar  119  TRP119      0.0012
     70  CZ2       19.2810    2.2500   -4.2190 C.ar  119  TRP119      0.0191
     71  CZ3       20.8640    0.5700   -5.0120 C.ar  119  TRP119      0.0001
     72  CH2       19.5360    1.0090   -4.7620 C.ar  119  TRP119      0.0015
     73  N         24.2680   -2.4410   -2.4110 N.3   122  ILE122     -0.1245
     74  CA        23.5170   -2.3970   -1.1490 C.3   122  ILE122      0.1561
     75  C         24.2610   -3.2040   -0.0910 C.2   122  ILE122      0.2260
     76  O         24.8630   -4.2580   -0.3890 O.2   122  ILE122     -0.2867
     77  CB        22.0200   -2.8300   -1.2820 C.3   122  ILE122      0.0252
     78  CG1       21.8710   -4.3130   -1.6710 C.3   122  ILE122      0.0019
     79  CG2       21.3070   -1.9610   -2.3070 C.3   122  ILE122      0.0019
     80  CD1       20.4360   -4.8360   -1.5020 C.3   122  ILE122      0.0001
     81  N         14.2550    0.0850    9.7070 N.3   232  ASP232     -0.1239
     82  CA        14.7310   -0.1430    8.3110 C.3   232  ASP232      0.1674
     83  C         15.2040    1.0890    7.5350 C.2   232  ASP232      0.2266
     84  O         14.4020    1.8240    6.9530 O.2   232  ASP232     -0.2867
     85  CB        13.6660   -0.8900    7.4850 C.3   232  ASP232      0.1410
     86  CG        14.1040   -1.1580    6.0490 C.2   232  ASP232      0.3668
     87  OD1       15.2970   -0.9500    5.7080 O.co2 232  ASP232     -0.2456
     88  OD2       13.2370   -1.5760    5.2380 O.co2 232  ASP232     -0.2456
     89  N         16.6270    1.2920    4.6930 N.3   234  GLY234     -0.1210
     90  CA        16.4290    1.1900    3.2500 C.3   234  GLY234      0.1956
     91  C         14.9950    1.4300    2.7790 C.2   234  GLY234      0.2612
     92  O         14.7050    1.2660    1.6060 O.2   234  GLY234     -0.2717
     93  N         14.1060    1.8000    3.6950 N.am  235  THR235     -0.1952
     94  CA        12.7410    2.1880    3.3810 C.3   235  THR235      0.1897
     95  C         12.6230    3.6770    3.7220 C.2   235  THR235      0.2313
     96  O         13.0910    4.1250    4.7790 O.2   235  THR235     -0.2863
     97  CB        11.7340    1.4250    4.2780 C.3   235  THR235      0.1794
     98  OG1       11.6380    0.0560    3.8660 O.3   235  THR235     -0.2208
     99  CG2       10.3250    2.0690    4.2760 C.3   235  THR235      0.0378
@<TRIPOS>BOND
     1    48    49    1
     2    49    52    1
     3    49    50    1
     4    52    53    1
     5    50    51    2
     6    55    53   ar
     7    55    57   ar
     8    46    45    2
     9    53    54   ar
    10    62    61    2
    11    41    40    1
    12    41    42    2
    13    40    43    1
    14    40    39    1
    15    57    58   ar
    16    43    44    1
    17    45    47   am
    18    45    44    1
    19    54    56   ar
    20    61    60    1
    21    59    60    1
    22    30    29    2
    23    58    56   ar
    24    60    63    1
    25    71    72   ar
    26    71    69   ar
    27    27    28    1
    28    72    70   ar
    29    69    66   ar
    30    29    28    1
    31    34    36   ar
    32    34    32   ar
    33    70    68   ar
    34    66    68   ar
    35    66    64   ar
    36    36    37   ar
    37    68    67   ar
    38    28    31    1
    39    63    64    1
    40    64    65   ar
    41    31    32    1
    42    32    33   ar
    43    67    65   ar
    44    37    38    1
    45    37    35   ar
    46    73    74    1
    47    79    77    1
    48    33    35   ar
    49    78    80    1
    50    78    77    1
    51    77    74    1
    52    74    75    1
    53     1     2    1
    54     5     2    1
    55     5     6    1
    56    76    75    2
    57     8     6    1
    58     2     3    1
    59     7     6    1
    60    92    91    2
    61     3     4    2
    62    16    14   ar
    63    26    25    1
    64    91    90    1
    65    91    93   am
    66    25    22    1
    67    14    13    1
    68    14    15   ar
    69    90    89    1
    70    13    10    1
    71    94    93    1
    72    94    95    1
    73    94    97    1
    74    95    96    2
    75    98    97    1
    76    99    97    1
    77    22    23    1
    78    22    21    1
    79     9    10    1
    80    10    11    1
    81    23    24    2
    82    20    19    2
    83    21    19   am
    84    88    86   ar
    85    19    18    1
    86    12    11    2
    87    87    86   ar
    88    86    85    1
    89    18    17    1
    90    84    83    2
    91    85    82    1
    92    83    82    1
    93    82    81    1
