@<TRIPOS>MOLECULE
tmp/4zspB00.pdb
 151 145 0 0 0
SMALL
GASTEIGER

@<TRIPOS>ATOM
      1  N         79.5140   38.2290   72.3480 N.3    14  SER14      -0.1202
      2  CA        78.4690   37.5650   71.5830 C.3    14  SER14       0.2020
      3  C         77.9640   36.3080   72.3240 C.2    14  SER14       0.2619
      4  O         76.7720   35.9720   72.2770 O.2    14  SER14      -0.2717
      5  CB        79.0200   37.1700   70.2110 C.3    14  SER14       0.2103
      6  OG        80.0660   36.2270   70.3800 O.3    14  SER14      -0.2182
      7  N         78.8810   35.6350   73.0160 N.am   15  GLY15      -0.1942
      8  CA        78.5240   34.4230   73.7540 C.3    15  GLY15       0.2014
      9  C         77.6490   34.6820   74.9870 C.2    15  GLY15       0.2639
     10  O         76.9510   33.7800   75.4380 O.2    15  GLY15      -0.2714
     11  N         77.6390   35.8980   75.5360 N.am   16  GLN16      -0.1963
     12  CA        76.8590   36.1010   76.7550 C.3    16  GLN16       0.1733
     13  C         75.8530   37.2340   76.6880 C.2    16  GLN16       0.2617
     14  O         75.0440   37.4060   77.6080 O.2    16  GLN16      -0.2715
     15  CB        77.7940   36.3340   77.9300 C.3    16  GLN16       0.0408
     16  CG        78.6230   35.1000   78.2300 C.3    16  GLN16       0.0908
     17  CD        79.1200   35.1090   79.6520 C.2    16  GLN16       0.2608
     18  OE1       79.7910   36.0590   80.0750 O.2    16  GLN16      -0.2717
     19  NE2       78.7840   34.0560   80.4110 N.am   16  GLN16      -0.0878
     20  N         75.9210   38.0000   75.6010 N.am   17  GLY17      -0.1940
     21  CA        75.0110   39.0900   75.3280 C.3    17  GLY17       0.2014
     22  C         75.6890   40.4250   75.5980 C.2    17  GLY17       0.2638
     23  O         76.6170   40.4980   76.4060 O.2    17  GLY17      -0.2714
     24  N         75.2280   41.4600   74.9180 N.am   18  TYR18      -0.1973
     25  CA        75.6490   42.8400   75.1480 C.3    18  TYR18       0.1639
     26  C         74.5830   43.5700   75.9380 C.2    18  TYR18       0.2290
     27  O         73.3990   43.4290   75.6150 O.2    18  TYR18      -0.2864
     28  CB        75.8310   43.5320   73.7910 C.3    18  TYR18       0.0560
     29  CG        77.0620   43.0290   73.0680 C.ar   18  TYR18      -0.0198
     30  CD1       78.3090   43.6560   73.2670 C.ar   18  TYR18      -0.0009
     31  CD2       77.0020   41.9010   72.2270 C.ar   18  TYR18      -0.0009
     32  CE1       79.4510   43.2180   72.5950 C.ar   18  TYR18       0.0417
     33  CE2       78.1440   41.4490   71.5490 C.ar   18  TYR18       0.0417
     34  CZ        79.3600   42.0940   71.7350 C.ar   18  TYR18       0.1957
     35  OH        80.5040   41.6470   71.0760 O.3    18  TYR18      -0.2866
     36  N         70.3030   43.3670   79.0380 N.3    34  LEU34      -0.1245
     37  CA        70.5850   42.8590   77.7050 C.3    34  LEU34       0.1561
     38  C         69.8280   43.6230   76.6120 C.2    34  LEU34       0.2260
     39  O         68.6130   43.8190   76.6830 O.2    34  LEU34      -0.2867
     40  CB        70.1830   41.3680   77.6060 C.3    34  LEU34       0.0270
     41  CG        70.3510   40.7170   76.2240 C.3    34  LEU34       0.0019
     42  CD1       71.8290   40.4220   76.0520 C.3    34  LEU34       0.0001
     43  CD2       69.5680   39.3970   76.1710 C.3    34  LEU34       0.0001
     44  N         68.2110   43.5290   73.2030 N.3    36  ASP36      -0.1239
     45  CA        67.6740   42.4180   72.4300 C.3    36  ASP36       0.1674
     46  C         66.6940   42.8880   71.3650 C.2    36  ASP36       0.2266
     47  O         65.5180   43.1160   71.6600 O.2    36  ASP36      -0.2867
     48  CB        67.0150   41.4450   73.3890 C.3    36  ASP36       0.1410
     49  CG        66.2940   40.3040   72.6870 C.2    36  ASP36       0.3668
     50  OD1       66.5420   40.0530   71.4790 O.co2  36  ASP36      -0.2456
     51  OD2       65.4780   39.6370   73.3720 O.co2  36  ASP36      -0.2456
     52  N         65.4600   41.0680   69.1230 N.3    38  GLY38      -0.1210
     53  CA        64.5650   39.9620   68.7170 C.3    38  GLY38       0.1956
     54  C         63.3640   39.7040   69.6510 C.2    38  GLY38       0.2612
     55  O         62.7450   38.6290   69.5850 O.2    38  GLY38      -0.2717
     56  N         63.0310   40.6520   70.5330 N.am   39  SER39      -0.1952
     57  CA        61.8600   40.4960   71.4350 C.3    39  SER39       0.1924
     58  C         61.3670   41.8820   71.7910 C.2    39  SER39       0.2314
     59  O         61.9910   42.8320   71.3680 O.2    39  SER39      -0.2863
     60  CB        62.2000   39.7130   72.7010 C.3    39  SER39       0.2116
     61  OG        63.1170   40.4190   73.5330 O.3    39  SER39      -0.2180
     62  N         60.8880   30.1510   75.9720 N.3    75  TYR75      -0.1241
     63  CA        61.6960   30.1090   74.7490 C.3    75  TYR75       0.1605
     64  C         61.9510   28.6510   74.4220 C.2    75  TYR75       0.2264
     65  O         61.6310   27.7800   75.2360 O.2    75  TYR75      -0.2867
     66  CB        63.0270   30.8160   74.9710 C.3    75  TYR75       0.0534
     67  CG        62.8740   32.2200   75.5190 C.ar   75  TYR75      -0.0201
     68  CD1       62.1560   33.1860   74.8250 C.ar   75  TYR75      -0.0009
     69  CD2       63.4470   32.5730   76.7440 C.ar   75  TYR75      -0.0009
     70  CE1       62.0190   34.4730   75.3250 C.ar   75  TYR75       0.0417
     71  CE2       63.3210   33.8690   77.2490 C.ar   75  TYR75       0.0417
     72  CZ        62.6000   34.8020   76.5490 C.ar   75  TYR75       0.1957
     73  OH        62.4770   36.0830   77.0710 O.3    75  TYR75      -0.2866
     74  N         67.4430   30.6300   82.1040 N.3   112  PHE112     -0.1241
     75  CA        67.3460   31.9280   81.4480 C.3   112  PHE112      0.1605
     76  C         68.4990   32.8020   81.9050 C.2   112  PHE112      0.2264
     77  O         69.2890   33.2610   81.0890 O.2   112  PHE112     -0.2867
     78  CB        65.9980   32.5930   81.7380 C.3   112  PHE112      0.0534
     79  CG        65.8880   34.0270   81.2400 C.ar  112  PHE112     -0.0203
     80  CD1       65.8750   34.3100   79.8750 C.ar  112  PHE112     -0.0042
     81  CD2       65.7700   35.0830   82.1430 C.ar  112  PHE112     -0.0042
     82  CE1       65.7530   35.6180   79.4270 C.ar  112  PHE112     -0.0003
     83  CE2       65.6510   36.3970   81.7080 C.ar  112  PHE112     -0.0003
     84  CZ        65.6430   36.6630   80.3460 C.ar  112  PHE112     -0.0000
     85  N         72.1360   33.2960   83.2210 N.3   114  ILE114     -0.1245
     86  CA        73.3190   32.4840   82.9920 C.3   114  ILE114      0.1561
     87  C         74.3810   32.9100   83.9760 C.2   114  ILE114      0.2260
     88  O         74.5620   34.1080   84.2360 O.2   114  ILE114     -0.2867
     89  CB        73.8270   32.6560   81.5470 C.3   114  ILE114      0.0252
     90  CG1       72.8160   32.0570   80.5590 C.3   114  ILE114      0.0019
     91  CG2       75.2020   32.0290   81.3710 C.3   114  ILE114      0.0019
     92  CD1       72.7130   32.8540   79.2680 C.3   114  ILE114      0.0001
     93  N         74.2610   40.5820   83.3070 N.3   119  TRP119     -0.1241
     94  CA        72.9830   41.2670   83.1330 C.3   119  TRP119      0.1605
     95  C         71.8470   40.6560   83.9520 C.2   119  TRP119      0.2264
     96  O         71.8010   39.4360   84.2210 O.2   119  TRP119     -0.2867
     97  CB        72.5840   41.4820   81.6550 C.3   119  TRP119      0.0550
     98  CG        72.6080   40.2410   80.7880 C.ar  119  TRP119      0.0003
     99  CD1       73.6310   39.8440   79.9570 C.ar  119  TRP119      0.0946
    100  CD2       71.5730   39.2650   80.6340 C.ar  119  TRP119      0.0152
    101  NE1       73.2980   38.6860   79.3250 N.ar  119  TRP119     -0.2442
    102  CE2       72.0400   38.3080   79.7090 C.ar  119  TRP119      0.0810
    103  CE3       70.2860   39.1100   81.1800 C.ar  119  TRP119      0.0012
    104  CZ2       71.2720   37.1980   79.3180 C.ar  119  TRP119      0.0191
    105  CZ3       69.5270   38.0130   80.7910 C.ar  119  TRP119      0.0001
    106  CH2       70.0230   37.0700   79.8810 C.ar  119  TRP119      0.0015
    107  N         66.2560   42.1550   80.4870 N.3   122  ILE122     -0.1245
    108  CA        66.2970   42.2750   79.0110 C.3   122  ILE122      0.1561
    109  C         65.4670   43.4430   78.5070 C.2   122  ILE122      0.2260
    110  O         64.3990   43.7290   79.0400 O.2   122  ILE122     -0.2867
    111  CB        65.8250   41.0060   78.2630 C.3   122  ILE122      0.0252
    112  CG1       64.3480   40.7000   78.5450 C.3   122  ILE122      0.0019
    113  CG2       66.6920   39.8130   78.6270 C.3   122  ILE122      0.0019
    114  CD1       63.8740   39.3760   77.9330 C.3   122  ILE122      0.0001
    115  N         68.7360   40.1880   64.9800 N.3   232  ASP232     -0.1225
    116  CA        68.4760   39.8370   66.4060 C.3   232  ASP232      0.1805
    117  C         69.7140   39.8930   67.3000 C.2   232  ASP232      0.2598
    118  O         70.4470   38.9150   67.3870 O.2   232  ASP232     -0.2718
    119  CB        67.8770   38.4150   66.5230 C.3   232  ASP232      0.1424
    120  CG        67.4880   38.0660   67.9460 C.2   232  ASP232      0.3668
    121  OD1       67.5540   38.9840   68.8140 O.co2 232  ASP232     -0.2456
    122  OD2       67.1430   36.8690   68.2100 O.co2 232  ASP232     -0.2456
    123  N         69.9340   41.0240   67.9650 N.am  233  SER233     -0.1938
    124  CA        71.0850   41.1630   68.8800 C.3   233  SER233      0.2055
    125  C         71.0230   40.2330   70.0970 C.2   233  SER233      0.2644
    126  O         72.0310   40.0510   70.7960 O.2   233  SER233     -0.2714
    127  CB        71.1970   42.5880   69.3810 C.3   233  SER233      0.2130
    128  OG        70.0690   42.8620   70.1600 O.3   233  SER233     -0.2179
    129  N         69.8580   39.6490   70.3570 N.am  234  GLY234     -0.1939
    130  CA        69.6910   38.7670   71.5200 C.3   234  GLY234      0.2014
    131  C         69.9330   37.3030   71.2160 C.2   234  GLY234      0.2640
    132  O         69.6920   36.4480   72.0620 O.2   234  GLY234     -0.2714
    133  N         70.3810   37.0020   70.0000 N.am  235  THR235     -0.1936
    134  CA        70.8370   35.6500   69.6530 C.3   235  THR235      0.2028
    135  C         72.3370   35.7440   69.2770 C.2   235  THR235      0.2642
    136  O         72.7570   36.7370   68.6610 O.2   235  THR235     -0.2714
    137  CB        70.0870   35.1380   68.4210 C.3   235  THR235      0.1808
    138  OG1       68.7300   34.8950   68.7520 O.3   235  THR235     -0.2208
    139  CG2       70.6980   33.8550   67.8940 C.3   235  THR235      0.0379
    140  N         73.1200   34.7270   69.6500 N.am  236  THR236     -0.1950
    141  CA        74.5850   34.7100   69.4400 C.3   236  THR236      0.1897
    142  C         74.8930   34.4270   67.9760 C.2   236  THR236      0.2313
    143  O         75.5740   35.2180   67.3280 O.2   236  THR236     -0.2863
    144  CB        75.3130   33.6600   70.3180 C.3   236  THR236      0.1794
    145  OG1       75.1230   33.9560   71.7160 O.3   236  THR236     -0.2208
    146  CG2       76.8470   33.6160   70.0000 C.3   236  THR236      0.0378
    147  N         74.2470   38.1970   67.0100 N.3   339  ALA339     -0.1245
    148  CA        75.3470   39.0490   67.4860 C.3   339  ALA339      0.1562
    149  C         76.6290   38.9170   66.6670 C.2   339  ALA339      0.2260
    150  O         77.2780   39.9090   66.3970 O.2   339  ALA339     -0.2867
    151  CB        75.6530   38.7500   68.9390 C.3   339  ALA339      0.0290
@<TRIPOS>BOND
     1   115   116    1
     2   150   149    2
     3   116   119    1
     4   116   117    1
     5   119   120    1
     6   149   148    1
     7   147   148    1
     8   117   118    2
     9   117   123   am
    10   143   142    2
    11   148   151    1
    12   139   137    1
    13   120   122   ar
    14   120   121   ar
    15   123   124    1
    16   142   141    1
    17   137   138    1
    18   137   134    1
    19   136   135    2
    20    53    52    1
    21    53    54    1
    22   124   127    1
    23   124   125    1
    24   135   140   am
    25   135   134    1
    26   127   128    1
    27   141   140    1
    28   141   144    1
    29    55    54    2
    30    54    56   am
    31   134   133    1
    32   133   131   am
    33   146   144    1
    34   125   129   am
    35   125   126    2
    36     5     6    1
    37     5     2    1
    38   144   145    1
    39   129   130    1
    40    56    57    1
    41    35    34    1
    42   131   130    1
    43   131   132    2
    44    46    47    2
    45    46    45    1
    46    59    58    2
    47    57    58    1
    48    57    60    1
    49    50    49   ar
    50    33    34   ar
    51    33    31   ar
    52     2     3    1
    53     2     1    1
    54    34    32   ar
    55    31    29   ar
    56     4     3    2
    57     3     7   am
    58    45    44    1
    59    45    48    1
    60    32    30   ar
    61    49    51   ar
    62    49    48    1
    63    60    61    1
    64     7     8    1
    65    29    30   ar
    66    29    28    1
    67     8     9    1
    68    28    25    1
    69    64    63    1
    70    64    65    2
    71    63    66    1
    72    63    62    1
    73    68    70   ar
    74    68    67   ar
    75    24    25    1
    76    24    22   am
    77    66    67    1
    78     9    10    2
    79     9    11   am
    80    25    26    1
    81    70    72   ar
    82    21    22    1
    83    21    20    1
    84    67    69   ar
    85    11    12    1
    86    22    23    2
    87    20    13   am
    88    27    26    2
    89    42    41    1
    90    43    41    1
    91    41    40    1
    92    72    73    1
    93    72    71   ar
    94    38    39    2
    95    38    37    1
    96    13    12    1
    97    13    14    2
    98    69    71   ar
    99    12    15    1
   100    40    37    1
   101    37    36    1
   102    15    16    1
   103   114   112    1
   104    16    17    1
   105   111   112    1
   106   111   113    1
   107   111   108    1
   108   109   108    1
   109   109   110    2
   110   108   107    1
   111    92    90    1
   112   104   102   ar
   113   104   106   ar
   114   101   102   ar
   115   101    99   ar
   116    82    80   ar
   117    82    84   ar
   118    17    18    2
   119    17    19   am
   120   102   100   ar
   121    80    79   ar
   122   106   105   ar
   123    99    98   ar
   124    84    83   ar
   125    90    89    1
   126   100    98   ar
   127   100   103   ar
   128    98    97    1
   129   105   103   ar
   130    77    76    2
   131    79    78    1
   132    79    81   ar
   133    91    89    1
   134    75    78    1
   135    75    76    1
   136    75    74    1
   137    89    86    1
   138    97    94    1
   139    83    81   ar
   140    86    85    1
   141    86    87    1
   142    94    93    1
   143    94    95    1
   144    95    96    2
   145    87    88    2
