@<TRIPOS>MOLECULE
tmp/4zsrA00.pdb
 181 174 0 0 0
SMALL
GASTEIGER

@<TRIPOS>ATOM
      1  N         36.1690   52.8150   89.2590 N.3    15  SER15      -0.1202
      2  CA        35.1310   53.5500   89.9790 C.3    15  SER15       0.2020
      3  C         34.6160   54.7890   89.2570 C.2    15  SER15       0.2619
      4  O         33.4350   55.1190   89.3530 O.2    15  SER15      -0.2717
      5  CB        35.5980   53.9290   91.3780 C.3    15  SER15       0.2103
      6  OG        36.7160   54.7870   91.2830 O.3    15  SER15      -0.2182
      7  N         35.4970   55.4560   88.5190 N.am   16  GLY16      -0.1942
      8  CA        35.1170   56.6820   87.8350 C.3    16  GLY16       0.2014
      9  C         34.2200   56.4880   86.6200 C.2    16  GLY16       0.2639
     10  O         33.5340   57.4240   86.1980 O.2    16  GLY16      -0.2714
     11  N         34.2320   55.2840   86.0630 N.am   17  GLN17      -0.1963
     12  CA        33.5310   55.0300   84.7890 C.3    17  GLN17       0.1733
     13  C         32.4960   53.9350   84.8970 C.2    17  GLN17       0.2617
     14  O         31.6320   53.8120   84.0050 O.2    17  GLN17      -0.2715
     15  CB        34.5220   54.7140   83.6670 C.3    17  GLN17       0.0408
     16  CG        35.3720   55.9370   83.3160 C.3    17  GLN17       0.0908
     17  CD        35.8850   55.8940   81.8910 C.2    17  GLN17       0.2608
     18  OE1       35.5570   56.7730   81.0790 O.2    17  GLN17      -0.2717
     19  NE2       36.6670   54.8650   81.5660 N.am   17  GLN17      -0.0878
     20  N         32.5740   53.1600   85.9790 N.am   18  GLY18      -0.1940
     21  CA        31.6410   52.0550   86.2090 C.3    18  GLY18       0.2014
     22  C         32.2620   50.6810   85.9450 C.2    18  GLY18       0.2638
     23  O         33.1920   50.5460   85.1230 O.2    18  GLY18      -0.2714
     24  N         31.7280   49.6620   86.6220 N.am   19  TYR19      -0.1973
     25  CA        32.1620   48.2750   86.4220 C.3    19  TYR19       0.1639
     26  C         31.1120   47.5390   85.6080 C.2    19  TYR19       0.2290
     27  O         29.9010   47.6480   85.8870 O.2    19  TYR19      -0.2864
     28  CB        32.3630   47.5950   87.7660 C.3    19  TYR19       0.0560
     29  CG        33.6050   48.0780   88.4720 C.ar   19  TYR19      -0.0198
     30  CD1       34.8280   47.4630   88.2340 C.ar   19  TYR19      -0.0009
     31  CD2       33.5520   49.1510   89.3810 C.ar   19  TYR19      -0.0009
     32  CE1       35.9890   47.8920   88.8770 C.ar   19  TYR19       0.0417
     33  CE2       34.7150   49.6060   90.0200 C.ar   19  TYR19       0.0417
     34  CZ        35.9220   48.9560   89.7630 C.ar   19  TYR19       0.1957
     35  OH        37.0770   49.3470   90.3910 O.3    19  TYR19      -0.2866
     36  N         26.8270   47.8090   82.4900 N.3    35  LEU35      -0.1245
     37  CA        27.1470   48.3270   83.8290 C.3    35  LEU35       0.1561
     38  C         26.3960   47.5410   84.9030 C.2    35  LEU35       0.2260
     39  O         25.1850   47.3740   84.8080 O.2    35  LEU35      -0.2867
     40  CB        26.7520   49.8110   83.8950 C.3    35  LEU35       0.0270
     41  CG        26.9910   50.5060   85.2430 C.3    35  LEU35       0.0019
     42  CD1       28.4550   50.9010   85.3770 C.3    35  LEU35       0.0001
     43  CD2       26.0810   51.7230   85.3980 C.3    35  LEU35       0.0001
     44  N         24.6970   47.6030   88.2430 N.3    37  ASP37      -0.1239
     45  CA        24.1120   48.7210   88.9780 C.3    37  ASP37       0.1674
     46  C         23.1460   48.2540   90.0780 C.2    37  ASP37       0.2266
     47  O         21.9780   48.0020   89.8150 O.2    37  ASP37      -0.2867
     48  CB        23.3980   49.6690   87.9920 C.3    37  ASP37       0.1410
     49  CG        22.8280   50.8920   88.6730 C.2    37  ASP37       0.3668
     50  OD1       23.1340   51.1400   89.8630 O.co2  37  ASP37      -0.2456
     51  OD2       22.0630   51.6230   88.0000 O.co2  37  ASP37      -0.2456
     52  N         21.9040   50.0040   92.2380 N.3    39  GLY39      -0.1210
     53  CA        21.0650   51.1310   92.6280 C.3    39  GLY39       0.1956
     54  C         19.9000   51.4450   91.7100 C.2    39  GLY39       0.2612
     55  O         19.2630   52.4970   91.8650 O.2    39  GLY39      -0.2717
     56  N         19.6160   50.5590   90.7610 N.am   40  SER40      -0.1952
     57  CA        18.4100   50.7180   89.9120 C.3    40  SER40       0.1924
     58  C         17.9190   49.3360   89.5650 C.2    40  SER40       0.2314
     59  O         18.5550   48.3460   89.9540 O.2    40  SER40      -0.2863
     60  CB        18.6950   51.5060   88.6470 C.3    40  SER40       0.2116
     61  OG        19.6030   50.8310   87.7890 O.3    40  SER40      -0.2180
     62  N         13.2900   57.7910   81.7890 N.3    74  VAL74      -0.1245
     63  CA        14.0340   57.8390   83.0460 C.3    74  VAL74       0.1561
     64  C         14.8540   59.1280   83.1100 C.2    74  VAL74       0.2260
     65  O         15.9340   59.2240   82.5180 O.2    74  VAL74      -0.2867
     66  CB        14.9190   56.5820   83.2340 C.3    74  VAL74       0.0252
     67  CG1       15.8170   56.7110   84.4540 C.3    74  VAL74       0.0019
     68  CG2       14.0470   55.3400   83.3510 C.3    74  VAL74       0.0019
     69  N         17.0360   61.8080   85.3740 N.3    76  TYR76      -0.1241
     70  CA        17.8100   61.9800   86.6030 C.3    76  TYR76       0.1605
     71  C         18.4210   63.3910   86.5640 C.2    76  TYR76       0.2264
     72  O         18.2260   64.1250   85.5860 O.2    76  TYR76      -0.2867
     73  CB        18.8750   60.8810   86.7280 C.3    76  TYR76       0.0534
     74  CG        19.5860   60.6200   85.4300 C.ar   76  TYR76      -0.0201
     75  CD1       19.0800   59.7090   84.5040 C.ar   76  TYR76      -0.0009
     76  CD2       20.7440   61.3150   85.1060 C.ar   76  TYR76      -0.0009
     77  CE1       19.7190   59.4890   83.2980 C.ar   76  TYR76       0.0417
     78  CE2       21.3880   61.1050   83.9030 C.ar   76  TYR76       0.0417
     79  CZ        20.8710   60.1940   83.0060 C.ar   76  TYR76       0.1957
     80  OH        21.5210   59.9960   81.8200 O.3    76  TYR76      -0.2866
     81  N         21.4780   64.5710   86.2050 N.3    78  GLN78      -0.1245
     82  CA        22.4950   64.7600   85.1610 C.3    78  GLN78       0.1566
     83  C         21.9020   64.8520   83.7460 C.2    78  GLN78       0.2260
     84  O         22.4630   65.5200   82.8720 O.2    78  GLN78      -0.2867
     85  CB        23.5330   63.6220   85.1960 C.3    78  GLN78       0.0367
     86  CG        23.7200   62.9300   86.5450 C.3    78  GLN78       0.0905
     87  CD        24.7000   63.6450   87.4600 C.2    78  GLN78       0.2608
     88  OE1       25.7370   64.1420   87.0150 O.2    78  GLN78      -0.2717
     89  NE2       24.3810   63.6890   88.7520 N.am   78  GLN78      -0.0878
     90  N         17.4010   59.1550   79.9090 N.3    81  TRP81      -0.1241
     91  CA        17.2600   58.2760   78.7510 C.3    81  TRP81       0.1605
     92  C         15.8030   57.8870   78.5350 C.2    81  TRP81       0.2264
     93  O         15.0090   57.7940   79.4770 O.2    81  TRP81      -0.2867
     94  CB        18.1770   57.0510   78.8180 C.3    81  TRP81       0.0550
     95  CG        17.9050   56.1010   79.9320 C.ar   81  TRP81       0.0003
     96  CD1       18.5500   56.0480   81.1240 C.ar   81  TRP81       0.0946
     97  CD2       16.9390   55.0360   79.9500 C.ar   81  TRP81       0.0152
     98  NE1       18.0440   55.0350   81.8970 N.ar   81  TRP81      -0.2442
     99  CE2       17.0500   54.3970   81.2020 C.ar   81  TRP81       0.0810
    100  CE3       15.9840   54.5700   79.0350 C.ar   81  TRP81       0.0012
    101  CZ2       16.2500   53.3100   81.5660 C.ar   81  TRP81       0.0191
    102  CZ3       15.1890   53.5030   79.3970 C.ar   81  TRP81       0.0001
    103  CH2       15.3200   52.8810   80.6490 C.ar   81  TRP81       0.0015
    104  N         23.9990   60.1850   79.2980 N.3   113  PHE113     -0.1241
    105  CA        23.8810   58.8620   79.9100 C.3   113  PHE113      0.1605
    106  C         25.0930   58.0210   79.5380 C.2   113  PHE113      0.2264
    107  O         25.8410   57.5790   80.4110 O.2   113  PHE113     -0.2867
    108  CB        22.5800   58.1810   79.4700 C.3   113  PHE113      0.0534
    109  CG        22.3580   56.8270   80.0790 C.ar  113  PHE113     -0.0203
    110  CD1       22.0370   56.6960   81.4250 C.ar  113  PHE113     -0.0042
    111  CD2       22.4590   55.6780   79.3010 C.ar  113  PHE113     -0.0042
    112  CE1       21.8290   55.4430   81.9860 C.ar  113  PHE113     -0.0003
    113  CE2       22.2550   54.4240   79.8550 C.ar  113  PHE113     -0.0003
    114  CZ        21.9350   54.3100   81.1980 C.ar  113  PHE113     -0.0000
    115  N         28.8090   57.3750   78.2890 N.3   115  ILE115     -0.1245
    116  CA        30.0250   58.1060   78.5990 C.3   115  ILE115      0.1561
    117  C         31.1190   57.7130   77.6200 C.2   115  ILE115      0.2260
    118  O         31.4000   56.5230   77.4170 O.2   115  ILE115     -0.2867
    119  CB        30.4500   57.8780   80.0650 C.3   115  ILE115      0.0252
    120  CG1       29.3190   58.3470   80.9930 C.3   115  ILE115      0.0019
    121  CG2       31.7520   58.6190   80.3730 C.3   115  ILE115      0.0019
    122  CD1       29.1840   57.5850   82.2950 C.3   115  ILE115      0.0001
    123  N         30.9200   50.5530   78.1910 N.3   120  TRP120     -0.1241
    124  CA        29.6420   49.8370   78.3920 C.3   120  TRP120      0.1605
    125  C         28.5190   50.4560   77.5770 C.2   120  TRP120      0.2264
    126  O         28.5280   51.6540   77.2920 O.2   120  TRP120     -0.2867
    127  CB        29.2390   49.6430   79.8550 C.3   120  TRP120      0.0550
    128  CG        29.2690   50.8390   80.7370 C.ar  120  TRP120      0.0003
    129  CD1       30.2880   51.1790   81.5780 C.ar  120  TRP120      0.0946
    130  CD2       28.2430   51.8280   80.9190 C.ar  120  TRP120      0.0152
    131  NE1       29.9630   52.3150   82.2650 N.ar  120  TRP120     -0.2442
    132  CE2       28.7140   52.7360   81.8900 C.ar  120  TRP120      0.0810
    133  CE3       26.9670   52.0390   80.3590 C.ar  120  TRP120      0.0012
    134  CZ2       27.9710   53.8740   82.2940 C.ar  120  TRP120      0.0191
    135  CZ3       26.2180   53.1420   80.7790 C.ar  120  TRP120      0.0001
    136  CH2       26.7250   54.0470   81.7390 C.ar  120  TRP120      0.0015
    137  N         22.8950   49.1120   81.0220 N.3   123  ILE123     -0.1245
    138  CA        22.9310   48.9720   82.4900 C.3   123  ILE123      0.1561
    139  C         22.0970   47.7890   82.9510 C.2   123  ILE123      0.2260
    140  O         21.0120   47.5270   82.3790 O.2   123  ILE123     -0.2867
    141  CB        22.5040   50.2690   83.2280 C.3   123  ILE123      0.0252
    142  CG1       21.0350   50.6210   82.9660 C.3   123  ILE123      0.0019
    143  CG2       23.4510   51.3990   82.8450 C.3   123  ILE123      0.0019
    144  CD1       20.5440   51.7720   83.8420 C.3   123  ILE123      0.0001
    145  N         25.2320   50.9840   96.4370 N.3   233  ASP233     -0.1225
    146  CA        24.9720   51.3380   95.0380 C.3   233  ASP233      0.1805
    147  C         26.2460   51.2660   94.1990 C.2   233  ASP233      0.2598
    148  O         27.0230   52.2340   94.1100 O.2   233  ASP233     -0.2718
    149  CB        24.3600   52.7710   94.9630 C.3   233  ASP233      0.1424
    150  CG        23.9730   53.1640   93.5490 C.2   233  ASP233      0.3668
    151  OD1       24.0900   52.3230   92.6360 O.co2 233  ASP233     -0.2456
    152  OD2       23.5790   54.3470   93.3060 O.co2 233  ASP233     -0.2456
    153  N         26.4170   50.1600   93.4750 N.am  234  SER234     -0.1938
    154  CA        27.5660   50.0240   92.5750 C.3   234  SER234      0.2055
    155  C         27.5220   50.9540   91.3590 C.2   234  SER234      0.2644
    156  O         28.5380   51.1010   90.6730 O.2   234  SER234     -0.2714
    157  CB        27.7030   48.5610   92.1190 C.3   234  SER234      0.2130
    158  OG        26.5450   48.2130   91.3160 O.3   234  SER234     -0.2179
    159  N         26.3720   51.5950   91.0910 N.am  235  GLY235     -0.1939
    160  CA        26.2410   52.5390   89.9620 C.3   235  GLY235      0.2014
    161  C         26.4830   54.0020   90.3070 C.2   235  GLY235      0.2640
    162  O         26.1700   54.8570   89.5070 O.2   235  GLY235     -0.2714
    163  N         27.0440   54.2560   91.4930 N.am  236  THR236     -0.1936
    164  CA        27.4720   55.5930   91.9150 C.3   236  THR236      0.2028
    165  C         28.9350   55.4820   92.2530 C.2   236  THR236      0.2642
    166  O         29.3350   54.5340   92.9180 O.2   236  THR236     -0.2714
    167  CB        26.6930   56.0120   93.1790 C.3   236  THR236      0.1808
    168  OG1       25.3240   56.2310   92.8130 O.3   236  THR236     -0.2208
    169  CG2       27.2480   57.3280   93.8070 C.3   236  THR236      0.0379
    170  N         29.7260   56.4630   91.8250 N.am  237  THR237     -0.1950
    171  CA        31.1750   56.4290   92.0860 C.3   237  THR237      0.1897
    172  C         31.4960   56.6100   93.5890 C.2   237  THR237      0.2313
    173  O         32.2150   55.7820   94.2050 O.2   237  THR237     -0.2863
    174  CB        31.9000   57.5270   91.2910 C.3   237  THR237      0.1794
    175  OG1       31.8370   57.2380   89.8720 O.3   237  THR237     -0.2208
    176  CG2       33.3790   57.6040   91.7250 C.3   237  THR237      0.0378
    177  N         30.8550   52.9060   94.5440 N.3   340  ALA340     -0.1245
    178  CA        31.8990   51.9950   94.1090 C.3   340  ALA340      0.1562
    179  C         33.1800   52.1550   94.9270 C.2   340  ALA340      0.2260
    180  O         33.8360   51.1610   95.2020 O.2   340  ALA340     -0.2867
    181  CB        32.1860   52.2040   92.6230 C.3   340  ALA340      0.0290
@<TRIPOS>BOND
     1   126   125    2
     2   118   117    2
     3   125   124    1
     4   117   116    1
     5   123   124    1
     6   115   116    1
     7   124   127    1
     8    92    91    1
     9    92    93    2
    10   116   119    1
    11    91    94    1
    12    91    90    1
    13    94    95    1
    14   100   102   ar
    15   100    97   ar
    16   104   105    1
    17   111   113   ar
    18   111   109   ar
    19   102   103   ar
    20   108   105    1
    21   108   109    1
    22   106   105    1
    23   106   107    2
    24   113   114   ar
    25   127   128    1
    26    95    97   ar
    27    95    96   ar
    28    97    99   ar
    29   119   121    1
    30   119   120    1
    31   109   110   ar
    32   133   135   ar
    33   133   130   ar
    34   103   101   ar
    35   128   130   ar
    36   128   129   ar
    37   135   136   ar
    38   130   132   ar
    39   120   122    1
    40   137   138    1
    41    18    17    2
    42    96    98   ar
    43   114   112   ar
    44    99   101   ar
    45    99    98   ar
    46   110   112   ar
    47    19    17   am
    48   129   131   ar
    49   136   134   ar
    50    62    63    1
    51    80    79    1
    52   132   131   ar
    53   132   134   ar
    54    17    16    1
    55   140   139    2
    56    36    37    1
    57   138   139    1
    58   138   141    1
    59    65    64    2
    60   143   141    1
    61    84    83    2
    62   142   141    1
    63   142   144    1
    64    79    77   ar
    65    79    78   ar
    66    63    64    1
    67    63    66    1
    68    66    68    1
    69    66    67    1
    70    77    75   ar
    71    16    15    1
    72    15    12    1
    73    83    82    1
    74    37    40    1
    75    37    38    1
    76    40    41    1
    77    78    76   ar
    78    14    13    2
    79    75    74   ar
    80    12    13    1
    81    12    11    1
    82    39    38    2
    83    13    20   am
    84    76    74   ar
    85    23    22    2
    86    82    85    1
    87    82    81    1
    88    85    86    1
    89    41    42    1
    90    41    43    1
    91    69    70    1
    92    74    73    1
    93    72    71    2
    94    26    27    2
    95    26    25    1
    96    22    21    1
    97    22    24   am
    98    20    21    1
    99    11     9   am
   100    10     9    2
   101    25    24    1
   102    25    28    1
   103    86    87    1
   104    71    70    1
   105    70    73    1
   106     9     8    1
   107    88    87    2
   108    87    89   am
   109    28    29    1
   110    61    60    1
   111     8     7    1
   112    48    49    1
   113    48    45    1
   114    51    49   ar
   115    30    29   ar
   116    30    32   ar
   117    44    45    1
   118    29    31   ar
   119     7     3   am
   120    60    57    1
   121    49    50   ar
   122    32    34   ar
   123    45    46    1
   124     3     4    2
   125     3     2    1
   126     1     2    1
   127    31    33   ar
   128   162   161    2
   129    58    57    1
   130    58    59    2
   131    34    33   ar
   132    34    35    1
   133    47    46    2
   134   175   174    1
   135    57    56    1
   136   160   161    1
   137   160   159    1
   138     2     5    1
   139   161   163   am
   140   156   155    2
   141    56    54   am
   142   159   155   am
   143     6     5    1
   144   174   176    1
   145   174   171    1
   146   158   157    1
   147   155   154    1
   148   163   164    1
   149    54    55    2
   150    54    53    1
   151   170   171    1
   152   170   165   am
   153   164   165    1
   154   164   167    1
   155   171   172    1
   156   157   154    1
   157    52    53    1
   158   165   166    2
   159   154   153    1
   160   181   178    1
   161   151   150   ar
   162   168   167    1
   163   167   169    1
   164   152   150   ar
   165   153   147   am
   166   150   149    1
   167   172   173    2
   168   178   177    1
   169   178   179    1
   170   148   147    2
   171   147   146    1
   172   179   180    2
   173   149   146    1
   174   146   145    1
