@<TRIPOS>MOLECULE
tmp/4zt3B00.pdb
 203 202 0 0 0
SMALL
GASTEIGER

@<TRIPOS>ATOM
      1  N        119.2130  117.5870   -5.2900 N.3    16  PRO16      -0.2102
      2  CA       120.2900  118.1330   -6.1060 C.3    16  PRO16       0.1504
      3  C        120.0640  117.7040   -7.5340 C.2    16  PRO16       0.2576
      4  O        119.3570  116.7270   -7.7500 O.2    16  PRO16      -0.2718
      5  CB       121.5500  117.4520   -5.5530 C.3    16  PRO16       0.0282
      6  CG       121.1250  116.6960   -4.3330 C.3    16  PRO16       0.0208
      7  CD       119.6570  116.4440   -4.4830 C.3    16  PRO16       0.0893
      8  N        120.6320  118.4250   -8.4930 N.am   17  ILE17      -0.1966
      9  CA       120.6740  117.9430   -9.8780 C.3    17  ILE17       0.1727
     10  C        121.9830  117.1860  -10.0670 C.2    17  ILE17       0.2616
     11  O        123.0460  117.6360   -9.6410 O.2    17  ILE17      -0.2715
     12  CB       120.5020  119.0610  -10.9270 C.3    17  ILE17       0.0290
     13  CG1      121.4770  120.2140  -10.6950 C.3    17  ILE17       0.0022
     14  CG2      119.0720  119.5880  -10.9080 C.3    17  ILE17       0.0023
     15  CD1      121.4980  121.2000  -11.8400 C.3    17  ILE17       0.0001
     16  N        121.8900  116.0180  -10.6860 N.am   18  TYR18      -0.1960
     17  CA       122.9730  115.0450  -10.6640 C.3    18  TYR18       0.1771
     18  C        123.7760  115.0880  -11.9550 C.2    18  TYR18       0.2619
     19  O        123.2210  115.2800  -13.0380 O.2    18  TYR18      -0.2715
     20  CB       122.3990  113.6490  -10.4240 C.3    18  TYR18       0.0574
     21  CG       121.3760  113.6220   -9.3000 C.ar   18  TYR18      -0.0198
     22  CD1      121.7730  113.7730   -7.9750 C.ar   18  TYR18      -0.0009
     23  CD2      120.0150  113.4680   -9.5640 C.ar   18  TYR18      -0.0009
     24  CE1      120.8510  113.7610   -6.9430 C.ar   18  TYR18       0.0417
     25  CE2      119.0880  113.4530   -8.5380 C.ar   18  TYR18       0.0417
     26  CZ       119.5090  113.6010   -7.2290 C.ar   18  TYR18       0.1957
     27  OH       118.6020  113.5970   -6.1850 O.3    18  TYR18      -0.2866
     28  N        125.0920  114.9380  -11.8170 N.am   19  TYR19      -0.1974
     29  CA       126.0230  114.9410  -12.9480 C.3    19  TYR19       0.1639
     30  C        125.6910  113.6960  -13.8100 C.2    19  TYR19       0.2290
     31  O        125.3630  112.6340  -13.2760 O.2    19  TYR19      -0.2864
     32  CB       127.4940  114.9680  -12.4100 C.3    19  TYR19       0.0560
     33  CG       128.5280  115.6850  -13.2730 C.ar   19  TYR19      -0.0198
     34  CD1      128.2660  116.9290  -13.8420 C.ar   19  TYR19      -0.0009
     35  CD2      129.7920  115.1250  -13.4890 C.ar   19  TYR19      -0.0009
     36  CE1      129.2180  117.5750  -14.6350 C.ar   19  TYR19       0.0417
     37  CE2      130.7510  115.7590  -14.2700 C.ar   19  TYR19       0.0417
     38  CZ       130.4710  116.9880  -14.8450 C.ar   19  TYR19       0.1957
     39  OH       131.4310  117.6270  -15.6320 O.3    19  TYR19      -0.2866
     40  N        122.5490  117.6520  -14.1410 N.3    56  ASP56      -0.1239
     41  CA       123.5510  118.6840  -14.2740 C.3    56  ASP56       0.1674
     42  C        124.4310  118.2770  -15.4580 C.2    56  ASP56       0.2266
     43  O        125.3270  117.4560  -15.3120 O.2    56  ASP56      -0.2867
     44  CB       124.3430  118.7350  -12.9630 C.3    56  ASP56       0.1410
     45  CG       125.4950  119.7100  -13.0010 C.2    56  ASP56       0.3668
     46  OD1      125.5090  120.6460  -13.8330 O.co2  56  ASP56      -0.2456
     47  OD2      126.3980  119.5100  -12.1750 O.co2  56  ASP56      -0.2456
     48  N        126.2200  120.1050  -18.2200 N.3    58  HIS58      -0.1226
     49  CA       127.4180  120.7510  -18.7840 C.3    58  HIS58       0.1752
     50  C        128.7100  120.2980  -18.0990 C.2    58  HIS58       0.2597
     51  O        128.6730  119.5970  -17.0830 O.2    58  HIS58      -0.2718
     52  CB       127.2790  122.2760  -18.7200 C.3    58  HIS58       0.0759
     53  CG       126.1500  122.8050  -19.5510 C.ar   58  HIS58       0.0818
     54  ND1      125.1680  123.6340  -19.0480 N.ar   58  HIS58      -0.2268
     55  CD2      125.8300  122.5910  -20.8500 C.ar   58  HIS58       0.1154
     56  CE1      124.3040  123.9220  -20.0070 C.ar   58  HIS58       0.1986
     57  NE2      124.6840  123.3010  -21.1100 N.ar   58  HIS58      -0.2212
     58  N        129.8470  120.6650  -18.6860 N.am   59  GLY59      -0.1942
     59  CA       131.1440  120.4960  -18.0350 C.3    59  GLY59       0.2014
     60  C        132.2020  119.6930  -18.7670 C.2    59  GLY59       0.2639
     61  O        131.9290  119.0050  -19.7330 O.2    59  GLY59      -0.2714
     62  N        133.4240  119.7710  -18.2590 N.am   60  GLN60      -0.1963
     63  CA       134.5910  119.1260  -18.8700 C.3    60  GLN60       0.1733
     64  C        134.5450  117.5910  -18.8090 C.2    60  GLN60       0.2616
     65  O        134.8910  116.9070  -19.7800 O.2    60  GLN60      -0.2715
     66  CB       135.8590  119.6280  -18.1740 C.3    60  GLN60       0.0408
     67  CG       137.1560  119.1540  -18.7970 C.3    60  GLN60       0.0908
     68  CD       138.3940  119.6850  -18.0840 C.2    60  GLN60       0.2608
     69  OE1      138.3200  120.4770  -17.1390 O.2    60  GLN60      -0.2717
     70  NE2      139.5500  119.2570  -18.5580 N.am   60  GLN60      -0.0878
     71  N        134.0990  117.0550  -17.6720 N.am   61  LYS61      -0.1977
     72  CA       134.0780  115.5990  -17.4870 C.3    61  LYS61       0.1596
     73  C        132.9860  114.9690  -18.3600 C.2    61  LYS61       0.2287
     74  O        133.2020  113.8980  -18.9120 O.2    61  LYS61      -0.2864
     75  CB       133.9010  115.1750  -16.0210 C.3    61  LYS61       0.0298
     76  CG       135.1350  115.2320  -15.1300 C.3    61  LYS61       0.0038
     77  CD       134.9170  114.3790  -13.8800 C.3    61  LYS61       0.0206
     78  CE       135.7700  114.8160  -12.6900 C.3    61  LYS61       0.1093
     79  NZ       135.0150  115.6160  -11.6740 N.3    61  LYS61      -0.1314
     80  N        141.2110  121.1860  -12.7450 N.3   137  GLU137     -0.1245
     81  CA       140.5370  122.4350  -13.0720 C.3   137  GLU137      0.1567
     82  C        140.6730  123.4180  -11.8960 C.2   137  GLU137      0.2260
     83  O        139.7690  124.1960  -11.6160 O.2   137  GLU137     -0.2867
     84  CB       139.0550  122.1060  -13.3740 C.3   137  GLU137      0.0388
     85  CG       138.4630  122.7520  -14.5980 C.3   137  GLU137      0.1160
     86  CD       137.1060  122.1670  -14.9290 C.2   137  GLU137      0.3649
     87  OE1      136.5420  121.4240  -14.0920 O.co2 137  GLU137     -0.2457
     88  OE2      136.6070  122.4330  -16.0350 O.co2 137  GLU137     -0.2457
     89  N        136.7800  123.5190  -21.3350 N.3   215  LEU215     -0.1245
     90  CA       135.5230  122.7770  -21.2230 C.3   215  LEU215      0.1561
     91  C        135.0140  122.1360  -22.5220 C.2   215  LEU215      0.2260
     92  O        133.8990  121.6070  -22.5530 O.2   215  LEU215     -0.2867
     93  CB       134.4650  123.7280  -20.6750 C.3   215  LEU215      0.0270
     94  CG       134.8440  124.0790  -19.2370 C.3   215  LEU215      0.0019
     95  CD1      134.6180  125.5330  -18.8470 C.3   215  LEU215      0.0001
     96  CD2      134.1100  123.1460  -18.3120 C.3   215  LEU215      0.0001
     97  N        129.2040  124.1970  -22.2210 N.3   219  ALA219     -0.1245
     98  CA       128.7950  125.0080  -21.0870 C.3   219  ALA219      0.1562
     99  C        128.1090  126.2870  -21.5730 C.2   219  ALA219      0.2260
    100  O        128.1070  126.5880  -22.7660 O.2   219  ALA219     -0.2867
    101  CB       129.9990  125.3300  -20.2050 C.3   219  ALA219      0.0290
    102  N        130.2470  129.8490  -18.0760 N.3   229  VAL229     -0.1231
    103  CA       129.8100  129.9070  -16.6990 C.3   229  VAL229      0.1692
    104  C        130.1570  128.5880  -16.0540 C.2   229  VAL229      0.2592
    105  O        129.8370  127.5150  -16.5720 O.2   229  VAL229     -0.2718
    106  CB       128.3060  130.1270  -16.5930 C.3   229  VAL229      0.0266
    107  CG1      127.8880  130.2380  -15.1310 C.3   229  VAL229      0.0020
    108  CG2      127.9110  131.3700  -17.3670 C.3   229  VAL229      0.0020
    109  N        130.8570  128.6580  -14.9330 N.am  230  TYR230     -0.1962
    110  CA       131.3240  127.4360  -14.3160 C.3   230  TYR230      0.1771
    111  C        130.2110  126.6940  -13.5220 C.2   230  TYR230      0.2619
    112  O        129.0300  127.1070  -13.4840 O.2   230  TYR230     -0.2715
    113  CB       132.6230  127.7200  -13.5250 C.3   230  TYR230      0.0574
    114  CG       133.4880  126.4870  -13.2090 C.ar  230  TYR230     -0.0198
    115  CD1      133.7850  125.5170  -14.1790 C.ar  230  TYR230     -0.0009
    116  CD2      134.0040  126.2960  -11.9360 C.ar  230  TYR230     -0.0009
    117  CE1      134.5510  124.4000  -13.8690 C.ar  230  TYR230      0.0417
    118  CE2      134.7740  125.1870  -11.6200 C.ar  230  TYR230      0.0417
    119  CZ       135.0450  124.2450  -12.5850 C.ar  230  TYR230      0.1957
    120  OH       135.8170  123.1610  -12.2410 O.3   230  TYR230     -0.2866
    121  N        130.5900  125.5580  -12.9480 N.am  231  VAL231     -0.1963
    122  CA       129.6770  124.6800  -12.2060 C.3   231  VAL231      0.1727
    123  C        128.7430  125.3740  -11.2110 C.2   231  VAL231      0.2616
    124  O        127.5900  124.9840  -11.0450 O.2   231  VAL231     -0.2715
    125  CB       130.4600  123.5560  -11.4590 C.3   231  VAL231      0.0290
    126  CG1      131.4630  124.1330  -10.4640 C.3   231  VAL231      0.0023
    127  CG2      129.5020  122.5940  -10.7500 C.3   231  VAL231      0.0023
    128  N        129.2360  126.4100  -10.5560 N.am  232  TRP232     -0.1974
    129  CA       128.5050  126.9600   -9.4410 C.3   232  TRP232      0.1640
    130  C        127.2740  127.7130   -9.9670 C.2   232  TRP232      0.2290
    131  O        126.1440  127.3180   -9.6730 O.2   232  TRP232     -0.2864
    132  CB       129.4090  127.8250   -8.5400 C.3   232  TRP232      0.0576
    133  CG       130.8870  127.4530   -8.5190 C.ar  232  TRP232      0.0006
    134  CD1      131.9070  128.1200   -9.1310 C.ar  232  TRP232      0.0946
    135  CD2      131.4920  126.3430   -7.8360 C.ar  232  TRP232      0.0152
    136  NE1      133.1050  127.4980   -8.8760 N.ar  232  TRP232     -0.2442
    137  CE2      132.8790  126.4010   -8.0890 C.ar  232  TRP232      0.0810
    138  CE3      130.9940  125.2990   -7.0450 C.ar  232  TRP232      0.0012
    139  CZ2      133.7800  125.4570   -7.5750 C.ar  232  TRP232      0.0191
    140  CZ3      131.8920  124.3580   -6.5340 C.ar  232  TRP232      0.0001
    141  CH2      133.2690  124.4470   -6.8010 C.ar  232  TRP232      0.0015
    142  N        125.9000  127.8350  -12.9280 N.3   234  ASP234     -0.1225
    143  CA       125.0310  127.0490  -13.7880 C.3   234  ASP234      0.1805
    144  C        124.0670  126.1640  -12.9860 C.2   234  ASP234      0.2598
    145  O        122.8460  126.3780  -13.0080 O.2   234  ASP234     -0.2718
    146  CB       125.8820  126.2310  -14.7770 C.3   234  ASP234      0.1424
    147  CG       125.0520  125.3710  -15.7260 C.2   234  ASP234      0.3668
    148  OD1      123.8010  125.4080  -15.6480 O.co2 234  ASP234     -0.2456
    149  OD2      125.6610  124.6510  -16.5530 O.co2 234  ASP234     -0.2456
    150  N        124.6280  125.2130  -12.2480 N.am  235  ALA235     -0.1966
    151  CA       123.8460  124.1570  -11.6000 C.3   235  ALA235      0.1728
    152  C        122.9620  124.6260  -10.4360 C.2   235  ALA235      0.2616
    153  O        121.7950  124.2440  -10.3520 O.2   235  ALA235     -0.2715
    154  CB       124.7620  123.0280  -11.1470 C.3   235  ALA235      0.0334
    155  N        123.5120  125.4470   -9.5450 N.am  236  LEU236     -0.1977
    156  CA       122.7540  125.9650   -8.3980 C.3   236  LEU236      0.1596
    157  C        121.5500  126.7820   -8.8320 C.2   236  LEU236      0.2287
    158  O        120.5200  126.8110   -8.1610 O.2   236  LEU236     -0.2864
    159  CB       123.6470  126.8280   -7.5130 C.3   236  LEU236      0.0297
    160  CG       124.6410  126.0470   -6.6460 C.3   236  LEU236      0.0022
    161  CD1      125.7630  126.9440   -6.1460 C.3   236  LEU236      0.0001
    162  CD2      123.9180  125.3910   -5.4800 C.3   236  LEU236      0.0001
    163  N        117.4140  125.7520   -9.2530 N.3   239  TYR239     -0.1241
    164  CA       116.3390  125.9000   -8.2740 C.3   239  TYR239      0.1605
    165  C        115.5050  127.1410   -8.6010 C.2   239  TYR239      0.2264
    166  O        114.2730  127.1220   -8.5290 O.2   239  TYR239     -0.2867
    167  CB       116.9010  126.0120   -6.8560 C.3   239  TYR239      0.0534
    168  CG       117.8100  124.8750   -6.4370 C.ar  239  TYR239     -0.0201
    169  CD1      117.4240  123.5500   -6.5940 C.ar  239  TYR239     -0.0009
    170  CD2      119.0520  125.1310   -5.8610 C.ar  239  TYR239     -0.0009
    171  CE1      118.2510  122.5090   -6.1940 C.ar  239  TYR239      0.0417
    172  CE2      119.8870  124.0940   -5.4630 C.ar  239  TYR239      0.0417
    173  CZ       119.4860  122.7860   -5.6350 C.ar  239  TYR239      0.1957
    174  OH       120.3320  121.7800   -5.2340 O.3   239  TYR239     -0.2866
    175  N        128.1760  118.2630   -0.8100 N.3   277  ILE277     -0.1245
    176  CA       127.9350  119.5380   -1.5070 C.3   277  ILE277      0.1561
    177  C        127.3270  120.6120   -0.6150 C.2   277  ILE277      0.2260
    178  O        126.6180  121.5010   -1.0840 O.2   277  ILE277     -0.2867
    179  CB       127.0890  119.3430   -2.7740 C.3   277  ILE277      0.0252
    180  CG1      125.7010  118.7810   -2.4520 C.3   277  ILE277      0.0019
    181  CG2      127.8160  118.4130   -3.7220 C.3   277  ILE277      0.0019
    182  CD1      124.7960  118.6560   -3.6640 C.3   277  ILE277      0.0001
    183  N        128.5140  124.4500   -1.1800 N.3   280  PHE280     -0.1227
    184  CA       127.9650  125.1220   -2.3600 C.3   280  PHE280      0.1736
    185  C        126.5750  125.6700   -2.0880 C.2   280  PHE280      0.2595
    186  O        126.2170  126.7430   -2.5690 O.2   280  PHE280     -0.2718
    187  CB       127.9540  124.1600   -3.5520 C.3   280  PHE280      0.0547
    188  CG       129.2430  123.3710   -3.6890 C.ar  280  PHE280     -0.0202
    189  CD1      130.4640  123.9380   -3.3180 C.ar  280  PHE280     -0.0042
    190  CD2      129.2400  122.0620   -4.1420 C.ar  280  PHE280     -0.0042
    191  CE1      131.6520  123.2280   -3.4160 C.ar  280  PHE280     -0.0003
    192  CE2      130.4290  121.3480   -4.2490 C.ar  280  PHE280     -0.0003
    193  CZ       131.6350  121.9320   -3.8900 C.ar  280  PHE280     -0.0000
    194  N        125.8080  124.9190   -1.3070 N.am  281  HIS281     -0.1975
    195  CA       124.4280  125.2620   -0.9910 C.3   281  HIS281      0.1656
    196  C        124.2810  126.1760    0.2210 C.2   281  HIS281      0.2291
    197  O        123.3220  126.9360    0.3080 O.2   281  HIS281     -0.2864
    198  CB       123.6290  123.9790   -0.7790 C.3   281  HIS281      0.0771
    199  CG       123.3800  123.2230   -2.0450 C.ar  281  HIS281      0.0820
    200  ND1      124.3170  122.3820   -2.6020 N.ar  281  HIS281     -0.2267
    201  CD2      122.3090  123.1990   -2.8740 C.ar  281  HIS281      0.1154
    202  CE1      123.8320  121.8700   -3.7190 C.ar  281  HIS281      0.1986
    203  NE2      122.6140  122.3480   -3.9050 N.ar  281  HIS281     -0.2212
@<TRIPOS>BOND
     1   100    99    2
     2    92    91    2
     3    91    90    1
     4    97    98    1
     5    99    98    1
     6    89    90    1
     7    90    93    1
     8    57    55   ar
     9    57    56   ar
    10    98   101    1
    11    55    53   ar
    12    93    94    1
    13    56    54   ar
    14    65    64    2
    15    61    60    2
    16    53    54   ar
    17    53    52    1
    18    94    95    1
    19    94    96    1
    20    74    73    2
    21    63    64    1
    22    63    62    1
    23    63    66    1
    24    64    71   am
    25    67    66    1
    26    67    68    1
    27    49    52    1
    28    49    48    1
    29    49    50    1
    30    60    62   am
    31    60    59    1
    32    58    50   am
    33    58    59    1
    34    70    68   am
    35    73    72    1
    36    50    51    2
    37    68    69    2
    38   102   103    1
    39    71    72    1
    40    72    75    1
    41   108   106    1
    42   103   106    1
    43   103   104    1
    44   106   107    1
    45   105   104    2
    46   149   147   ar
    47   104   109   am
    48    88    86   ar
    49    75    76    1
    50   147   148   ar
    51   147   146    1
    52    39    38    1
    53    42    43    2
    54    42    41    1
    55    76    77    1
    56   109   110    1
    57    86    85    1
    58    86    87   ar
    59    38    36   ar
    60    38    37   ar
    61   146   143    1
    62    36    34   ar
    63    85    84    1
    64   110   113    1
    65   110   111    1
    66    41    40    1
    67    41    44    1
    68    37    35   ar
    69   115   117   ar
    70   115   114   ar
    71    77    78    1
    72   117   119   ar
    73    34    33   ar
    74    46    45   ar
    75    30    31    2
    76    30    29    1
    77   143   144    1
    78   143   142    1
    79   113   114    1
    80   111   112    2
    81   111   121   am
    82    35    33   ar
    83    84    81    1
    84    33    32    1
    85   114   116   ar
    86    81    80    1
    87    81    82    1
    88    19    18    2
    89   145   144    2
    90    45    44    1
    91    45    47   ar
    92   144   150   am
    93    29    32    1
    94    29    28    1
    95   121   122    1
    96    78    79    1
    97   119   120    1
    98   119   118   ar
    99   150   151    1
   100   122   125    1
   101   122   123    1
   102    18    28   am
   103    18    17    1
   104   116   118   ar
   105    82    83    2
   106    15    13    1
   107   151   154    1
   108   151   152    1
   109   125   127    1
   110   125   126    1
   111   123   124    2
   112   123   128   am
   113    12    14    1
   114    12    13    1
   115    12     9    1
   116    16    17    1
   117    16    10   am
   118    17    20    1
   119   128   129    1
   120   152   153    2
   121   152   155   am
   122    20    21    1
   123    10     9    1
   124    10    11    2
   125   130   131    2
   126   130   129    1
   127     9     8    1
   128    23    21   ar
   129    23    25   ar
   130   155   156    1
   131   129   132    1
   132    21    22   ar
   133   163   164    1
   134   134   136   ar
   135   134   133   ar
   136   136   137   ar
   137   157   156    1
   138   157   158    2
   139   165   166    2
   140   165   164    1
   141   132   133    1
   142    25    26   ar
   143   133   135   ar
   144     8     3   am
   145   156   159    1
   146   164   167    1
   147   137   135   ar
   148   137   139   ar
   149    22    24   ar
   150   135   138   ar
   151     4     3    2
   152   139   141   ar
   153     3     2    1
   154   159   160    1
   155    26    24   ar
   156    26    27    1
   157   138   140   ar
   158   167   168    1
   159   141   140   ar
   160   160   161    1
   161   160   162    1
   162   169   168   ar
   163   169   171   ar
   164   168   170   ar
   165   171   173   ar
   166     2     5    1
   167     2     1    1
   168   170   172   ar
   169   173   172   ar
   170   173   174    1
   171     5     6    1
   172     1     7    1
   173     7     6    1
   174   192   190   ar
   175   192   193   ar
   176   190   188   ar
   177   203   202   ar
   178   203   201   ar
   179   193   191   ar
   180   181   179    1
   181   202   200   ar
   182   188   187    1
   183   188   189   ar
   184   182   180    1
   185   187   184    1
   186   191   189   ar
   187   201   199   ar
   188   179   180    1
   189   179   176    1
   190   200   199   ar
   191   186   185    2
   192   184   185    1
   193   184   183    1
   194   185   194   am
   195   199   198    1
   196   176   175    1
   197   176   177    1
   198   194   195    1
   199   178   177    2
   200   195   198    1
   201   195   196    1
   202   196   197    2
