@<TRIPOS>MOLECULE
tmp/4zt4B00.pdb
 198 195 0 0 0
SMALL
GASTEIGER

@<TRIPOS>ATOM
      1  N        -33.0520   11.5960    5.2360 N.3    16  PRO16      -0.2102
      2  CA       -34.1190   12.1350    6.0660 C.3    16  PRO16       0.1504
      3  C        -33.8320   11.7300    7.4950 C.2    16  PRO16       0.2575
      4  O        -33.0070   10.8310    7.7170 O.2    16  PRO16      -0.2718
      5  CB       -35.3780   11.4120    5.5530 C.3    16  PRO16       0.0282
      6  CG       -34.9700   10.7550    4.2630 C.3    16  PRO16       0.0208
      7  CD       -33.5150   10.4530    4.4360 C.3    16  PRO16       0.0893
      8  N        -34.4770   12.3810    8.4540 N.am   17  ILE17      -0.1980
      9  CA       -34.4610   11.8870    9.8350 C.3    17  ILE17       0.1595
     10  C        -35.7450   11.1010   10.0490 C.2    17  ILE17       0.2287
     11  O        -36.8170   11.5380    9.6570 O.2    17  ILE17      -0.2864
     12  CB       -34.2670   12.9950   10.8830 C.3    17  ILE17       0.0276
     13  CG1      -35.2440   14.1560   10.6610 C.3    17  ILE17       0.0022
     14  CG2      -32.8280   13.4910   10.8470 C.3    17  ILE17       0.0022
     15  CD1      -35.2600   15.1550   11.8000 C.3    17  ILE17       0.0001
     16  N        -38.8810    8.7540   11.6840 N.3    19  TYR19      -0.1241
     17  CA       -39.8580    8.8120   12.7780 C.3    19  TYR19       0.1605
     18  C        -39.6410    7.5800   13.6830 C.2    19  TYR19       0.2264
     19  O        -39.4980    6.4720   13.1860 O.2    19  TYR19      -0.2867
     20  CB       -41.2960    8.9270   12.1870 C.3    19  TYR19       0.0534
     21  CG       -42.3650    9.5290   13.1090 C.ar   19  TYR19      -0.0201
     22  CD1      -42.1170   10.6870   13.8490 C.ar   19  TYR19      -0.0009
     23  CD2      -43.6460    8.9590   13.2060 C.ar   19  TYR19      -0.0009
     24  CE1      -43.0880   11.2360   14.6770 C.ar   19  TYR19       0.0417
     25  CE2      -44.6210    9.5020   14.0330 C.ar   19  TYR19       0.0417
     26  CZ       -44.3420   10.6420   14.7670 C.ar   19  TYR19       0.1957
     27  OH       -45.2850   11.2050   15.6090 O.3    19  TYR19      -0.2866
     28  N        -36.3870   11.6140   13.9750 N.3    56  ASP56      -0.1239
     29  CA       -37.4480   12.6060   14.1170 C.3    56  ASP56       0.1674
     30  C        -38.2940   12.1650   15.3290 C.2    56  ASP56       0.2266
     31  O        -39.0400   11.1900   15.2280 O.2    56  ASP56      -0.2867
     32  CB       -38.2670   12.5910   12.8200 C.3    56  ASP56       0.1410
     33  CG       -39.4190   13.5750   12.8230 C.2    56  ASP56       0.3668
     34  OD1      -39.4610   14.4960   13.6750 O.co2  56  ASP56      -0.2456
     35  OD2      -40.2900   13.4090   11.9500 O.co2  56  ASP56      -0.2456
     36  N        -40.3410   14.0380   17.9980 N.3    58  HIS58      -0.1226
     37  CA       -41.5120   14.6650   18.5910 C.3    58  HIS58       0.1752
     38  C        -42.8210   14.2380   17.9110 C.2    58  HIS58       0.2597
     39  O        -42.8020   13.5530   16.8830 O.2    58  HIS58      -0.2718
     40  CB       -41.3430   16.1790   18.5720 C.3    58  HIS58       0.0759
     41  CG       -40.1870   16.6630   19.4000 C.ar   58  HIS58       0.0818
     42  ND1      -39.1960   17.4880   18.9070 N.ar   58  HIS58      -0.2268
     43  CD2      -39.8700   16.4350   20.6960 C.ar   58  HIS58       0.1154
     44  CE1      -38.3180   17.7410   19.8620 C.ar   58  HIS58       0.1986
     45  NE2      -38.7060   17.1170   20.9580 N.ar   58  HIS58      -0.2212
     46  N        -43.9470   14.6270   18.5170 N.am   59  GLY59      -0.1942
     47  CA       -45.2710   14.4010   17.9370 C.3    59  GLY59       0.2014
     48  C        -46.2340   13.4460   18.6290 C.2    59  GLY59       0.2638
     49  O        -45.8600   12.6460   19.4770 O.2    59  GLY59      -0.2714
     50  N        -47.4940   13.5360   18.2130 N.am   60  GLN60      -0.1977
     51  CA       -48.5970   12.7480   18.7650 C.3    60  GLN60       0.1601
     52  C        -48.4110   11.2240   18.7220 C.2    60  GLN60       0.2287
     53  O        -48.5520   10.5460   19.7470 O.2    60  GLN60      -0.2864
     54  CB       -49.8760   13.1050   17.9990 C.3    60  GLN60       0.0394
     55  CG       -51.1410   12.5020   18.5760 C.3    60  GLN60       0.0908
     56  CD       -52.4080   13.1330   18.0320 C.2    60  GLN60       0.2608
     57  OE1      -52.3880   13.8980   17.0650 O.2    60  GLN60      -0.2717
     58  NE2      -53.5250   12.8190   18.6700 N.am   60  GLN60      -0.0878
     59  N        -54.9500   15.1270   12.5770 N.3   137  GLU137     -0.1245
     60  CA       -54.3440   16.4320   12.8390 C.3   137  GLU137      0.1567
     61  C        -54.5300   17.3590   11.6370 C.2   137  GLU137      0.2260
     62  O        -53.6230   18.1160   11.2950 O.2   137  GLU137     -0.2867
     63  CB       -52.8410   16.2820   13.1470 C.3   137  GLU137      0.0388
     64  CG       -52.4540   14.9890   13.8770 C.3   137  GLU137      0.1160
     65  CD       -51.0280   15.0250   14.4300 C.2   137  GLU137      0.3649
     66  OE1      -50.6720   15.9510   15.1910 O.co2 137  GLU137     -0.2457
     67  OE2      -50.2430   14.1190   14.0910 O.co2 137  GLU137     -0.2457
     68  N        -50.7070   17.4260   20.9840 N.3   214  LEU214     -0.1245
     69  CA       -49.4670   16.6520   20.8720 C.3   214  LEU214      0.1561
     70  C        -48.9730   16.0480   22.1990 C.2   214  LEU214      0.2260
     71  O        -47.8290   15.5990   22.2870 O.2   214  LEU214     -0.2867
     72  CB       -48.3700   17.5330   20.2650 C.3   214  LEU214      0.0270
     73  CG       -48.7030   18.0040   18.8360 C.3   214  LEU214      0.0019
     74  CD1      -47.8730   19.2010   18.3770 C.3   214  LEU214      0.0001
     75  CD2      -48.5460   16.8600   17.8530 C.3   214  LEU214      0.0001
     76  N        -43.1800   18.0430   22.0560 N.3   218  ALA218     -0.1245
     77  CA       -42.8000   18.8620   20.9160 C.3   218  ALA218      0.1562
     78  C        -42.1000   20.1300   21.4230 C.2   218  ALA218      0.2260
     79  O        -41.9960   20.3470   22.6290 O.2   218  ALA218     -0.2867
     80  CB       -44.0290   19.2110   20.0870 C.3   218  ALA218      0.0290
     81  N        -44.3430   23.7760   18.0570 N.3   228  VAL228     -0.1231
     82  CA       -43.8800   23.8070   16.6810 C.3   228  VAL228      0.1692
     83  C        -44.2650   22.4840   16.0280 C.2   228  VAL228      0.2592
     84  O        -43.9830   21.3970   16.5510 O.2   228  VAL228     -0.2718
     85  CB       -42.3530   24.0030   16.5970 C.3   228  VAL228      0.0266
     86  CG1      -41.8820   24.0000   15.1480 C.3   228  VAL228      0.0020
     87  CG2      -41.9560   25.3080   17.2660 C.3   228  VAL228      0.0020
     88  N        -44.9330   22.5570   14.8860 N.am  229  TYR229     -0.1962
     89  CA       -45.3770   21.3210   14.2590 C.3   229  TYR229      0.1771
     90  C        -44.1860   20.6200   13.5160 C.2   229  TYR229      0.2619
     91  O        -43.0360   21.1030   13.5510 O.2   229  TYR229     -0.2715
     92  CB       -46.6130   21.6010   13.3860 C.3   229  TYR229      0.0574
     93  CG       -47.3810   20.3460   12.9380 C.ar  229  TYR229     -0.0198
     94  CD1      -47.7120   19.3160   13.8370 C.ar  229  TYR229     -0.0009
     95  CD2      -47.7470   20.1810   11.6050 C.ar  229  TYR229     -0.0009
     96  CE1      -48.3820   18.1720   13.4110 C.ar  229  TYR229      0.0417
     97  CE2      -48.4190   19.0500   11.1760 C.ar  229  TYR229      0.0417
     98  CZ       -48.7320   18.0510   12.0710 C.ar  229  TYR229      0.1957
     99  OH       -49.3970   16.9490   11.5920 O.3   229  TYR229     -0.2866
    100  N        -44.4350   19.4730   12.8800 N.am  230  VAL230     -0.1963
    101  CA       -43.3730   18.6860   12.2160 C.3   230  VAL230      0.1727
    102  C        -42.5600   19.5040   11.2030 C.2   230  VAL230      0.2616
    103  O        -41.3510   19.3310   11.0560 O.2   230  VAL230     -0.2715
    104  CB       -43.9520   17.4110   11.5230 C.3   230  VAL230      0.0290
    105  CG1      -44.9380   17.7600   10.4080 C.3   230  VAL230      0.0023
    106  CG2      -42.8380   16.5160   10.9790 C.3   230  VAL230      0.0023
    107  N        -43.2250   20.4110   10.5140 N.am  231  TRP231     -0.1974
    108  CA       -42.5830   21.1100    9.4290 C.3   231  TRP231      0.1640
    109  C        -41.2940   21.8010    9.9110 C.2   231  TRP231      0.2290
    110  O        -40.1880   21.3910    9.5270 O.2   231  TRP231     -0.2864
    111  CB       -43.5720   22.0850    8.7670 C.3   231  TRP231      0.0576
    112  CG       -44.9410   21.4620    8.4850 C.ar  231  TRP231      0.0006
    113  CD1      -46.1520   21.8910    8.9520 C.ar  231  TRP231      0.0946
    114  CD2      -45.2100   20.2810    7.7140 C.ar  231  TRP231      0.0152
    115  NE1      -47.1560   21.0690    8.4930 N.ar  231  TRP231     -0.2442
    116  CE2      -46.6060   20.0700    7.7370 C.ar  231  TRP231      0.0810
    117  CE3      -44.4060   19.3910    6.9950 C.ar  231  TRP231      0.0012
    118  CZ2      -47.2170   19.0000    7.0710 C.ar  231  TRP231      0.0191
    119  CZ3      -45.0090   18.3290    6.3280 C.ar  231  TRP231      0.0001
    120  CH2      -46.4000   18.1420    6.3710 C.ar  231  TRP231      0.0015
    121  N        -39.7940   21.8150   12.8200 N.3   233  ASP233     -0.1225
    122  CA       -38.9120   21.0000   13.6580 C.3   233  ASP233      0.1805
    123  C        -37.9650   20.0860   12.8540 C.2   233  ASP233      0.2598
    124  O        -36.7370   20.2830   12.8530 O.2   233  ASP233     -0.2718
    125  CB       -39.7600   20.1970   14.6570 C.3   233  ASP233      0.1424
    126  CG       -38.9350   19.3260   15.6060 C.2   233  ASP233      0.3668
    127  OD1      -37.6790   19.3270   15.5330 O.co2 233  ASP233     -0.2456
    128  OD2      -39.5720   18.6540   16.4520 O.co2 233  ASP233     -0.2456
    129  N        -38.5430   19.1140   12.1580 N.am  234  ALA234     -0.1966
    130  CA       -37.7640   18.0880   11.4610 C.3   234  ALA234      0.1728
    131  C        -36.8410   18.6350   10.3620 C.2   234  ALA234      0.2616
    132  O        -35.6520   18.3410   10.3590 O.2   234  ALA234     -0.2715
    133  CB       -38.6930   17.0200   10.8900 C.3   234  ALA234      0.0334
    134  N        -37.3700   19.4360    9.4410 N.am  235  LEU235     -0.1977
    135  CA       -36.5550   19.9440    8.3220 C.3   235  LEU235      0.1596
    136  C        -35.3540   20.7500    8.7910 C.2   235  LEU235      0.2287
    137  O        -34.3010   20.7560    8.1560 O.2   235  LEU235     -0.2864
    138  CB       -37.3960   20.8120    7.3940 C.3   235  LEU235      0.0297
    139  CG       -38.4120   20.0710    6.5280 C.3   235  LEU235      0.0022
    140  CD1      -39.3980   21.0570    5.9380 C.3   235  LEU235      0.0001
    141  CD2      -37.7210   19.2940    5.4190 C.3   235  LEU235      0.0001
    142  N        -33.4040   20.1200   11.0690 N.3   237  ASN237     -0.1225
    143  CA       -32.2870   19.2600   11.4360 C.3   237  ASN237      0.1785
    144  C        -31.0780   19.4620   10.5200 C.2   237  ASN237      0.2597
    145  O        -29.9380   19.4310   10.9780 O.2   237  ASN237     -0.2718
    146  CB       -32.6990   17.7840   11.4320 C.3   237  ASN237      0.1169
    147  CG       -32.3780   17.0930   10.1200 C.2   237  ASN237      0.2627
    148  OD1      -31.2650   16.5850    9.9250 O.2   237  ASN237     -0.2716
    149  ND2      -33.3470   17.0790    9.2110 N.am  237  ASN237     -0.0877
    150  N        -31.3410   19.6700    9.2270 N.am  238  TYR238     -0.1976
    151  CA       -30.2720   19.8730    8.2580 C.3   238  TYR238      0.1639
    152  C        -29.4550   21.1300    8.6010 C.2   238  TYR238      0.2290
    153  O        -28.2230   21.1340    8.4910 O.2   238  TYR238     -0.2864
    154  CB       -30.8270   19.9710    6.8340 C.3   238  TYR238      0.0560
    155  CG       -31.6930   18.8060    6.4030 C.ar  238  TYR238     -0.0198
    156  CD1      -31.2710   17.4890    6.5550 C.ar  238  TYR238     -0.0009
    157  CD2      -32.9280   19.0290    5.8200 C.ar  238  TYR238     -0.0009
    158  CE1      -32.0690   16.4300    6.1480 C.ar  238  TYR238      0.0417
    159  CE2      -33.7300   17.9800    5.4080 C.ar  238  TYR238      0.0417
    160  CZ       -33.2990   16.6880    5.5800 C.ar  238  TYR238      0.1957
    161  OH       -34.1160   15.6960    5.1420 O.3   238  TYR238     -0.2866
    162  N        -42.1350    9.8270   -0.9110 N.3   275  ASP275     -0.1225
    163  CA       -43.1710   10.1530    0.0890 C.3   275  ASP275      0.1805
    164  C        -43.0300   11.5230    0.7730 C.2   275  ASP275      0.2597
    165  O        -44.0240   12.0440    1.2730 O.2   275  ASP275     -0.2718
    166  CB       -43.2740    9.0470    1.1720 C.3   275  ASP275      0.1424
    167  CG       -41.9200    8.7410    1.8570 C.2   275  ASP275      0.3668
    168  OD1      -40.9250    8.4380    1.1600 O.co2 275  ASP275     -0.2456
    169  OD2      -41.8650    8.7650    3.1040 O.co2 275  ASP275     -0.2456
    170  N        -41.8320   12.1080    0.8010 N.am  276  ILE276     -0.1980
    171  CA       -41.6520   13.3970    1.4820 C.3   276  ILE276      0.1595
    172  C        -41.1230   14.4920    0.5600 C.2   276  ILE276      0.2287
    173  O        -40.5100   15.4570    1.0220 O.2   276  ILE276     -0.2864
    174  CB       -40.7660   13.2720    2.7450 C.3   276  ILE276      0.0276
    175  CG1      -39.3280   12.8540    2.3920 C.3   276  ILE276      0.0022
    176  CG2      -41.3930   12.2770    3.7060 C.3   276  ILE276      0.0022
    177  CD1      -38.4450   12.5920    3.5960 C.3   276  ILE276      0.0001
    178  N        -42.3730   18.2630    1.0630 N.3   279  PHE279     -0.1227
    179  CA       -41.8340   18.9350    2.2510 C.3   279  PHE279      0.1736
    180  C        -40.4450   19.5000    1.9770 C.2   279  PHE279      0.2595
    181  O        -40.0950   20.5510    2.4880 O.2   279  PHE279     -0.2718
    182  CB       -41.8100   17.9660    3.4420 C.3   279  PHE279      0.0547
    183  CG       -43.0960   17.1760    3.5950 C.ar  279  PHE279     -0.0202
    184  CD1      -44.3260   17.7240    3.2130 C.ar  279  PHE279     -0.0042
    185  CD2      -43.0830   15.8920    4.0940 C.ar  279  PHE279     -0.0042
    186  CE1      -45.5150   17.0080    3.3460 C.ar  279  PHE279     -0.0003
    187  CE2      -44.2630   15.1670    4.2270 C.ar  279  PHE279     -0.0003
    188  CZ       -45.4830   15.7230    3.8550 C.ar  279  PHE279     -0.0000
    189  N        -39.6680   18.7880    1.1670 N.am  280  HIS280     -0.1975
    190  CA       -38.2760   19.1600    0.8850 C.3   280  HIS280      0.1656
    191  C        -38.1280   20.0840   -0.3140 C.2   280  HIS280      0.2291
    192  O        -37.1960   20.8850   -0.3690 O.2   280  HIS280     -0.2864
    193  CB       -37.4330   17.9050    0.6660 C.3   280  HIS280      0.0771
    194  CG       -37.1250   17.1740    1.9300 C.ar  280  HIS280      0.0820
    195  ND1      -38.0260   16.3290    2.5340 N.ar  280  HIS280     -0.2267
    196  CD2      -36.0270   17.1870    2.7230 C.ar  280  HIS280      0.1154
    197  CE1      -37.4930   15.8450    3.6420 C.ar  280  HIS280      0.1986
    198  NE2      -36.2800   16.3470    3.7780 N.ar  280  HIS280     -0.2212
@<TRIPOS>BOND
     1   162   163    1
     2   192   191    2
     3   191   190    1
     4   163   164    1
     5   163   166    1
     6   172   173    2
     7   172   171    1
     8   193   190    1
     9   193   194    1
    10   164   170   am
    11   164   165    2
    12   170   171    1
    13   190   189    1
    14   178   179    1
    15   168   167   ar
    16   189   180   am
    17   166   167    1
    18   171   174    1
    19   167   169   ar
    20   194   195   ar
    21   194   196   ar
    22   180   179    1
    23   180   181    2
    24   179   182    1
    25   175   174    1
    26   175   177    1
    27   195   197   ar
    28   196   198   ar
    29   174   176    1
    30   184   186   ar
    31   184   183   ar
    32   186   188   ar
    33   182   183    1
    34   183   185   ar
    35   197   198   ar
    36   188   187   ar
    37   185   187   ar
    38     6     7    1
    39     6     5    1
    40     7     1    1
    41   161   160    1
    42     1     2    1
    43   159   160   ar
    44   159   157   ar
    45   141   139    1
    46     5     2    1
    47   160   158   ar
    48   157   155   ar
    49   140   139    1
    50     2     3    1
    51   158   156   ar
    52   119   120   ar
    53   119   117   ar
    54   120   118   ar
    55   155   156   ar
    56   155   154    1
    57   139   138    1
    58   154   151    1
    59   117   114   ar
    60   118   116   ar
    61   138   135    1
    62     3     4    2
    63     3     8   am
    64   114   116   ar
    65   114   112   ar
    66   116   115   ar
    67   137   136    2
    68   151   152    1
    69   151   150    1
    70   135   136    1
    71   135   134    1
    72     8     9    1
    73   112   111    1
    74   112   113   ar
    75   153   152    2
    76   115   113   ar
    77   111   108    1
    78   149   147   am
    79   150   144   am
    80   108   109    1
    81   108   107    1
    82   134   131   am
    83   110   109    2
    84    11    10    2
    85     9    10    1
    86     9    12    1
    87   148   147    2
    88   147   146    1
    89   132   131    2
    90   131   130    1
    91   105   104    1
    92   107   102   am
    93   144   145    2
    94   144   143    1
    95    13    12    1
    96    13    15    1
    97    14    12    1
    98   133   130    1
    99   106   104    1
   100   103   102    2
   101   142   143    1
   102    97    95   ar
   103    97    98   ar
   104   102   101    1
   105    62    61    2
   106   146   143    1
   107   130   129    1
   108   104   101    1
   109    99    98    1
   110    95    93   ar
   111    61    60    1
   112    16    17    1
   113    35    33   ar
   114    98    96   ar
   115   129   123   am
   116    20    17    1
   117    20    21    1
   118   101   100    1
   119    59    60    1
   120    17    18    1
   121    32    33    1
   122    32    29    1
   123   121   122    1
   124    33    34   ar
   125    60    63    1
   126   124   123    2
   127   123   122    1
   128   100    90   am
   129    93    92    1
   130    93    94   ar
   131    21    23   ar
   132    21    22   ar
   133    63    64    1
   134    19    18    2
   135    23    25   ar
   136    92    89    1
   137    96    94   ar
   138    90    91    2
   139    90    89    1
   140   122   125    1
   141    22    24   ar
   142    64    65    1
   143    28    29    1
   144    25    26   ar
   145    67    65   ar
   146    29    30    1
   147    89    88    1
   148    65    66   ar
   149   125   126    1
   150    24    26   ar
   151    26    27    1
   152    88    83   am
   153    86    85    1
   154    31    30    2
   155   127   126   ar
   156   126   128   ar
   157    83    84    2
   158    83    82    1
   159    85    82    1
   160    85    87    1
   161    82    81    1
   162    39    38    2
   163    57    56    2
   164    75    73    1
   165    38    46   am
   166    38    37    1
   167    47    46    1
   168    47    48    1
   169    36    37    1
   170    54    55    1
   171    54    51    1
   172    56    55    1
   173    56    58   am
   174    50    48   am
   175    50    51    1
   176    74    73    1
   177    40    37    1
   178    40    41    1
   179    48    49    2
   180    52    51    1
   181    52    53    2
   182    73    72    1
   183    42    41   ar
   184    42    44   ar
   185    41    43   ar
   186    44    45   ar
   187    80    77    1
   188    72    69    1
   189    43    45   ar
   190    69    68    1
   191    69    70    1
   192    77    78    1
   193    77    76    1
   194    78    79    2
   195    70    71    2
