@<TRIPOS>MOLECULE
tmp/4zt7B00.pdb
 202 201 0 0 0
SMALL
GASTEIGER

@<TRIPOS>ATOM
      1  N        -32.8470   11.4680    5.1300 N.3    16  PRO16      -0.2102
      2  CA       -33.9120   11.9790    5.9620 C.3    16  PRO16       0.1504
      3  C        -33.6160   11.5550    7.3870 C.2    16  PRO16       0.2576
      4  O        -32.8520   10.6010    7.5930 O.2    16  PRO16      -0.2718
      5  CB       -35.1710   11.2630    5.4240 C.3    16  PRO16       0.0282
      6  CG       -34.7630   10.6370    4.1230 C.3    16  PRO16       0.0208
      7  CD       -33.3010   10.3480    4.2960 C.3    16  PRO16       0.0893
      8  N        -34.2100   12.2420    8.3570 N.am   17  ILE17      -0.1966
      9  CA       -34.1870   11.7650    9.7410 C.3    17  ILE17       0.1727
     10  C        -35.4780   10.9960    9.9700 C.2    17  ILE17       0.2616
     11  O        -36.5470   11.4430    9.5680 O.2    17  ILE17      -0.2715
     12  CB       -33.9670   12.8920   10.7750 C.3    17  ILE17       0.0290
     13  CG1      -34.9730   14.0350   10.6000 C.3    17  ILE17       0.0022
     14  CG2      -32.5430   13.4260   10.6660 C.3    17  ILE17       0.0023
     15  CD1      -35.0140   14.9880   11.7810 C.3    17  ILE17       0.0001
     16  N        -35.3720    9.8310   10.5980 N.am   18  TYR18      -0.1960
     17  CA       -36.4430    8.8410   10.5880 C.3    18  TYR18       0.1771
     18  C        -37.2860    8.8630   11.8670 C.2    18  TYR18       0.2619
     19  O        -36.7610    9.0380   12.9630 O.2    18  TYR18      -0.2715
     20  CB       -35.8330    7.4580   10.3660 C.3    18  TYR18       0.0574
     21  CG       -34.8480    7.4170    9.2110 C.ar   18  TYR18      -0.0198
     22  CD1      -35.2840    7.6150    7.9040 C.ar   18  TYR18      -0.0009
     23  CD2      -33.4890    7.2120    9.4260 C.ar   18  TYR18      -0.0009
     24  CE1      -34.4060    7.5900    6.8390 C.ar   18  TYR18       0.0417
     25  CE2      -32.5940    7.1870    8.3680 C.ar   18  TYR18       0.0417
     26  CZ       -33.0550    7.3760    7.0770 C.ar   18  TYR18       0.1957
     27  OH       -32.2080    7.3530    5.9950 O.3    18  TYR18      -0.2866
     28  N        -38.5990    8.6870   11.7160 N.am   19  TYR19      -0.1974
     29  CA       -39.5350    8.7480   12.8500 C.3    19  TYR19       0.1639
     30  C        -39.3430    7.4960   13.7110 C.2    19  TYR19       0.2290
     31  O        -39.2480    6.3920   13.1860 O.2    19  TYR19      -0.2864
     32  CB       -40.9920    8.9120   12.3570 C.3    19  TYR19       0.0560
     33  CG       -41.9180    9.6440   13.3140 C.ar   19  TYR19      -0.0198
     34  CD1      -41.5130   10.8110   13.9650 C.ar   19  TYR19      -0.0009
     35  CD2      -43.2220    9.1960   13.5400 C.ar   19  TYR19      -0.0009
     36  CE1      -42.3450   11.4830   14.8320 C.ar   19  TYR19       0.0417
     37  CE2      -44.0650    9.8770   14.4050 C.ar   19  TYR19       0.0417
     38  CZ       -43.6240   11.0220   15.0470 C.ar   19  TYR19       0.1957
     39  OH       -44.4540   11.6950   15.9260 O.3    19  TYR19      -0.2866
     40  N        -36.0780   11.5020   13.9660 N.3    56  ASP56      -0.1239
     41  CA       -37.1230   12.4980   14.1470 C.3    56  ASP56       0.1674
     42  C        -37.9170   12.0290   15.3770 C.2    56  ASP56       0.2266
     43  O        -38.6410   11.0410   15.2950 O.2    56  ASP56      -0.2867
     44  CB       -37.9910   12.5050   12.8790 C.3    56  ASP56       0.1410
     45  CG       -39.0040   13.6370   12.8450 C.2    56  ASP56       0.3668
     46  OD1      -39.0380   14.4720   13.7630 O.co2  56  ASP56      -0.2456
     47  OD2      -39.7510   13.7160   11.8560 O.co2  56  ASP56      -0.2456
     48  N        -39.8980   13.9420   18.0310 N.3    58  HIS58      -0.1226
     49  CA       -41.0450   14.5950   18.6510 C.3    58  HIS58       0.1752
     50  C        -42.3820   14.1680   18.0220 C.2    58  HIS58       0.2597
     51  O        -42.4090   13.4430   17.0270 O.2    58  HIS58      -0.2718
     52  CB       -40.8670   16.1150   18.6140 C.3    58  HIS58       0.0759
     53  CG       -39.7130   16.6020   19.4380 C.ar   58  HIS58       0.0818
     54  ND1      -38.7100   17.4030   18.9320 N.ar   58  HIS58      -0.2268
     55  CD2      -39.3950   16.3810   20.7340 C.ar   58  HIS58       0.1154
     56  CE1      -37.8300   17.6610   19.8830 C.ar   58  HIS58       0.1986
     57  NE2      -38.2180   17.0450   20.9840 N.ar   58  HIS58      -0.2212
     58  N        -43.4800   14.6010   18.6360 N.am   59  GLY59      -0.1942
     59  CA       -44.8070   14.4150   18.0680 C.3    59  GLY59       0.2014
     60  C        -45.7730   13.4610   18.7470 C.2    59  GLY59       0.2638
     61  O        -45.4160   12.6660   19.5880 O.2    59  GLY59      -0.2714
     62  N        -47.0220   13.5610   18.3190 N.am   60  GLN60      -0.1977
     63  CA       -48.1530   12.8020   18.8660 C.3    60  GLN60       0.1601
     64  C        -48.0030   11.2810   18.8370 C.2    60  GLN60       0.2287
     65  O        -48.2230   10.6070   19.8530 O.2    60  GLN60      -0.2864
     66  CB       -49.3810   13.1690   18.0500 C.3    60  GLN60       0.0394
     67  CG       -50.7120   12.7230   18.6030 C.3    60  GLN60       0.0908
     68  CD       -51.8250   13.2480   17.6920 C.2    60  GLN60       0.2608
     69  OE1      -51.8440   14.4350   17.3510 O.2    60  GLN60      -0.2717
     70  NE2      -52.7060   12.3640   17.2320 N.am   60  GLN60      -0.0878
     71  N        -54.2600   15.1550   12.6310 N.3   137  GLU137     -0.1245
     72  CA       -53.6520   16.4620   12.8880 C.3   137  GLU137      0.1567
     73  C        -53.8770   17.4100   11.7180 C.2   137  GLU137      0.2260
     74  O        -53.0010   18.2100   11.4030 O.2   137  GLU137     -0.2867
     75  CB       -52.1390   16.3250   13.1370 C.3   137  GLU137      0.0388
     76  CG       -51.7380   15.0270   13.8460 C.3   137  GLU137      0.1160
     77  CD       -50.3570   15.0900   14.4900 C.2   137  GLU137      0.3649
     78  OE1      -50.0960   16.0010   15.3020 O.co2 137  GLU137     -0.2457
     79  OE2      -49.5230   14.2130   14.1840 O.co2 137  GLU137     -0.2457
     80  N        -50.2580   17.2820   21.1680 N.3   218  LEU218     -0.1245
     81  CA       -49.0170   16.5170   21.0510 C.3   218  LEU218      0.1561
     82  C        -48.5200   15.9060   22.3680 C.2   218  LEU218      0.2260
     83  O        -47.3740   15.4540   22.4520 O.2   218  LEU218     -0.2867
     84  CB       -47.9340   17.4150   20.4720 C.3   218  LEU218      0.0270
     85  CG       -48.3360   17.9520   19.0950 C.3   218  LEU218      0.0019
     86  CD1      -47.6770   19.2840   18.7590 C.3   218  LEU218      0.0001
     87  CD2      -48.0110   16.9040   18.0540 C.3   218  LEU218      0.0001
     88  N        -42.7420   17.9670   22.1310 N.3   222  ALA222     -0.1245
     89  CA       -42.3620   18.7790   20.9890 C.3   222  ALA222      0.1562
     90  C        -41.6280   20.0050   21.4970 C.2   222  ALA222      0.2260
     91  O        -41.5580   20.2400   22.7040 O.2   222  ALA222     -0.2867
     92  CB       -43.5910   19.1870   20.1920 C.3   222  ALA222      0.0290
     93  N        -43.8760   23.6490   18.0620 N.3   232  VAL232     -0.1231
     94  CA       -43.4140   23.6680   16.6870 C.3   232  VAL232      0.1692
     95  C        -43.7960   22.3310   16.0570 C.2   232  VAL232      0.2592
     96  O        -43.4950   21.2560   16.5860 O.2   232  VAL232     -0.2718
     97  CB       -41.8970   23.8670   16.6070 C.3   232  VAL232      0.0266
     98  CG1      -41.4190   23.7890   15.1610 C.3   232  VAL232      0.0020
     99  CG2      -41.5280   25.1980   17.2430 C.3   232  VAL232      0.0020
    100  N        -44.5050   22.4050   14.9360 N.am  233  TYR233     -0.1962
    101  CA       -44.9680   21.1960   14.2960 C.3   233  TYR233      0.1771
    102  C        -43.7960   20.5330   13.4990 C.2   233  TYR233      0.2619
    103  O        -42.6270   20.9530   13.5980 O.2   233  TYR233     -0.2715
    104  CB       -46.2370   21.5080   13.4770 C.3   233  TYR233      0.0574
    105  CG       -47.0210   20.2850   13.0000 C.ar  233  TYR233     -0.0198
    106  CD1      -47.2640   19.1900   13.8410 C.ar  233  TYR233     -0.0009
    107  CD2      -47.4930   20.2090   11.6930 C.ar  233  TYR233     -0.0009
    108  CE1      -47.9460   18.0660   13.3900 C.ar  233  TYR233      0.0417
    109  CE2      -48.1780   19.0920   11.2400 C.ar  233  TYR233      0.0417
    110  CZ       -48.3970   18.0260   12.0840 C.ar  233  TYR233      0.1957
    111  OH       -49.0820   16.9310   11.6140 O.3   233  TYR233     -0.2866
    112  N        -44.0940   19.4770   12.7520 N.am  234  VAL234     -0.1963
    113  CA       -43.0640   18.6540   12.1010 C.3   234  VAL234      0.1727
    114  C        -42.1580   19.4440   11.1460 C.2   234  VAL234      0.2616
    115  O        -40.9490   19.1880   11.0500 O.2   234  VAL234     -0.2715
    116  CB       -43.6840   17.4400   11.3350 C.3   234  VAL234      0.0290
    117  CG1      -44.6670   17.8770   10.2500 C.3   234  VAL234      0.0023
    118  CG2      -42.5930   16.5680   10.7140 C.3   234  VAL234      0.0023
    119  N        -42.7430   20.4030   10.4490 N.am  235  TRP235     -0.1974
    120  CA       -42.0610   21.0150    9.3390 C.3   235  TRP235      0.1640
    121  C        -40.7980   21.7760    9.8180 C.2   235  TRP235      0.2290
    122  O        -39.6760   21.4550    9.3810 O.2   235  TRP235     -0.2864
    123  CB       -43.0220   21.9010    8.5070 C.3   235  TRP235      0.0576
    124  CG       -44.4300   21.3580    8.3360 C.ar  235  TRP235      0.0006
    125  CD1      -45.5770   21.8850    8.8740 C.ar  235  TRP235      0.0946
    126  CD2      -44.8400   20.2000    7.5900 C.ar  235  TRP235      0.0152
    127  NE1      -46.6590   21.1380    8.5020 N.ar  235  TRP235     -0.2442
    128  CE2      -46.2410   20.0930    7.7260 C.ar  235  TRP235      0.0810
    129  CE3      -44.1620   19.2410    6.8250 C.ar  235  TRP235      0.0012
    130  CZ2      -46.9850   19.0570    7.1280 C.ar  235  TRP235      0.0191
    131  CZ3      -44.8960   18.2150    6.2340 C.ar  235  TRP235      0.0001
    132  CH2      -46.2950   18.1360    6.3860 C.ar  235  TRP235      0.0015
    133  N        -39.4370   21.7110   12.8120 N.3   237  ASP237     -0.1225
    134  CA       -38.5680   20.8700   13.6190 C.3   237  ASP237      0.1805
    135  C        -37.6510   19.9670   12.7810 C.2   237  ASP237      0.2598
    136  O        -36.4200   20.1540   12.7670 O.2   237  ASP237     -0.2718
    137  CB       -39.4100   20.0470   14.6100 C.3   237  ASP237      0.1424
    138  CG       -38.5690   19.1890   15.5590 C.2   237  ASP237      0.3668
    139  OD1      -37.3130   19.2200   15.4830 O.co2 237  ASP237     -0.2456
    140  OD2      -39.1800   18.5030   16.4050 O.co2 237  ASP237     -0.2456
    141  N        -38.2620   19.0250   12.0650 N.am  238  ALA238     -0.1966
    142  CA       -37.5180   17.9450   11.4300 C.3   238  ALA238      0.1728
    143  C        -36.6020   18.4210   10.2910 C.2   238  ALA238      0.2616
    144  O        -35.4590   17.9860   10.2130 O.2   238  ALA238     -0.2715
    145  CB       -38.4640   16.8540   10.9380 C.3   238  ALA238      0.0334
    146  N        -37.0910   19.3030    9.4190 N.am  239  LEU239     -0.1977
    147  CA       -36.2970   19.7590    8.2630 C.3   239  LEU239      0.1596
    148  C        -35.1090   20.5710    8.7180 C.2   239  LEU239      0.2287
    149  O        -34.0310   20.5200    8.1230 O.2   239  LEU239     -0.2864
    150  CB       -37.1340   20.5920    7.2970 C.3   239  LEU239      0.0297
    151  CG       -38.1490   19.8030    6.4660 C.3   239  LEU239      0.0022
    152  CD1      -39.2200   20.7140    5.9100 C.3   239  LEU239      0.0001
    153  CD2      -37.4560   19.0680    5.3340 C.3   239  LEU239      0.0001
    154  N        -33.1400   19.9860   10.9370 N.3   241  ASN241     -0.1225
    155  CA       -32.0200   19.1340   11.3430 C.3   241  ASN241      0.1785
    156  C        -30.8040   19.3100   10.4270 C.2   241  ASN241      0.2597
    157  O        -29.6550   19.2310   10.8700 O.2   241  ASN241     -0.2718
    158  CB       -32.4200   17.6550   11.3830 C.3   241  ASN241      0.1169
    159  CG       -32.1660   16.9430   10.0620 C.2   241  ASN241      0.2627
    160  OD1      -31.0910   16.3610    9.8510 O.2   241  ASN241     -0.2716
    161  ND2      -33.1310   17.0260    9.1470 N.am  241  ASN241     -0.0877
    162  N        -31.0760   19.5540    9.1480 N.am  242  TYR242     -0.1976
    163  CA       -30.0160   19.7630    8.1810 C.3   242  TYR242      0.1639
    164  C        -29.2000   21.0160    8.5190 C.2   242  TYR242      0.2290
    165  O        -27.9640   21.0150    8.4370 O.2   242  TYR242     -0.2864
    166  CB       -30.5950   19.8870    6.7790 C.3   242  TYR242      0.0560
    167  CG       -31.4300   18.7190    6.3460 C.ar  242  TYR242     -0.0198
    168  CD1      -30.9800   17.4120    6.4900 C.ar  242  TYR242     -0.0009
    169  CD2      -32.6820   18.9240    5.7750 C.ar  242  TYR242     -0.0009
    170  CE1      -31.7550   16.3450    6.0740 C.ar  242  TYR242      0.0417
    171  CE2      -33.4570   17.8630    5.3550 C.ar  242  TYR242      0.0417
    172  CZ       -32.9940   16.5840    5.5090 C.ar  242  TYR242      0.1957
    173  OH       -33.8000   15.5810    5.0780 O.3   242  TYR242     -0.2866
    174  N        -41.6250   12.2150    0.6080 N.3   280  ILE280     -0.1245
    175  CA       -41.3930   13.4860    1.3080 C.3   280  ILE280      0.1561
    176  C        -40.7940   14.5860    0.4290 C.2   280  ILE280      0.2260
    177  O        -40.1910   15.5300    0.9340 O.2   280  ILE280     -0.2867
    178  CB       -40.5790   13.2900    2.6020 C.3   280  ILE280      0.0252
    179  CG1      -39.1670   12.7770    2.3050 C.3   280  ILE280      0.0019
    180  CG2      -41.3240   12.3410    3.5290 C.3   280  ILE280      0.0019
    181  CD1      -38.3280   12.5720    3.5480 C.3   280  ILE280      0.0001
    182  N        -42.1240   18.3430    0.9340 N.3   283  PHE283     -0.1227
    183  CA       -41.5790   18.9790    2.1490 C.3   283  PHE283      0.1736
    184  C        -40.1690   19.4930    1.8900 C.2   283  PHE283      0.2595
    185  O        -39.7950   20.5380    2.3970 O.2   283  PHE283     -0.2718
    186  CB       -41.6070   17.9980    3.3420 C.3   283  PHE283      0.0547
    187  CG       -42.9060   17.2230    3.4410 C.ar  283  PHE283     -0.0202
    188  CD1      -44.1190   17.8070    3.0500 C.ar  283  PHE283     -0.0042
    189  CD2      -42.9280   15.9190    3.8950 C.ar  283  PHE283     -0.0042
    190  CE1      -45.3220   17.1100    3.1280 C.ar  283  PHE283     -0.0003
    191  CE2      -44.1320   15.2130    3.9780 C.ar  283  PHE283     -0.0003
    192  CZ       -45.3320   15.8090    3.5990 C.ar  283  PHE283     -0.0000
    193  N        -39.4000   18.7460    1.1020 N.am  284  HIS284     -0.1975
    194  CA       -38.0070   19.0970    0.8050 C.3   284  HIS284      0.1656
    195  C        -37.8330   20.0590   -0.3680 C.2   284  HIS284      0.2291
    196  O        -36.8770   20.8270   -0.3920 O.2   284  HIS284     -0.2864
    197  CB       -37.1910   17.8290    0.5730 C.3   284  HIS284      0.0771
    198  CG       -36.8680   17.1040    1.8390 C.ar  284  HIS284      0.0820
    199  ND1      -37.7840   16.3100    2.4900 N.ar  284  HIS284     -0.2267
    200  CD2      -35.7480   17.0930    2.6010 C.ar  284  HIS284      0.1154
    201  CE1      -37.2360   15.8290    3.5920 C.ar  284  HIS284      0.1986
    202  NE2      -36.0020   16.2920    3.6830 N.ar  284  HIS284     -0.2212
@<TRIPOS>BOND
     1   196   195    2
     2   195   194    1
     3   176   177    2
     4   176   175    1
     5   197   194    1
     6   197   198    1
     7   174   175    1
     8   194   193    1
     9   182   183    1
    10   193   184   am
    11   175   178    1
    12   198   199   ar
    13   198   200   ar
    14   184   183    1
    15   184   185    2
    16   183   186    1
    17   179   178    1
    18   179   181    1
    19   199   201   ar
    20   200   202   ar
    21   178   180    1
    22   188   190   ar
    23   188   187   ar
    24   190   192   ar
    25   186   187    1
    26   187   189   ar
    27   201   202   ar
    28   192   191   ar
    29   189   191   ar
    30     6     7    1
    31     6     5    1
    32     7     1    1
    33   173   172    1
    34     1     2    1
    35   153   151    1
    36   171   172   ar
    37   171   169   ar
    38     5     2    1
    39   172   170   ar
    40   169   167   ar
    41   152   151    1
    42     2     3    1
    43    27    26    1
    44   170   168   ar
    45   131   132   ar
    46   131   129   ar
    47   167   168   ar
    48   167   166    1
    49   132   130   ar
    50   151   150    1
    51   166   163    1
    52   129   126   ar
    53    24    26   ar
    54    24    22   ar
    55    26    25   ar
    56   130   128   ar
    57   150   147    1
    58     3     4    2
    59     3     8   am
    60   126   128   ar
    61   126   124   ar
    62   128   127   ar
    63    22    21   ar
    64   149   148    2
    65   163   164    1
    66   163   162    1
    67   147   148    1
    68   147   146    1
    69   124   123    1
    70   124   125   ar
    71     8     9    1
    72    25    23   ar
    73   165   164    2
    74   127   125   ar
    75   123   120    1
    76   161   159   am
    77   162   156   am
    78    21    23   ar
    79    21    20    1
    80   120   121    1
    81   120   119    1
    82   122   121    2
    83   146   143   am
    84    11    10    2
    85     9    10    1
    86     9    12    1
    87   160   159    2
    88    10    16   am
    89   159   158    1
    90   144   143    2
    91   117   116    1
    92   143   142    1
    93    20    17    1
    94   156   157    2
    95   156   155    1
    96   119   114   am
    97    17    16    1
    98    17    18    1
    99    13    12    1
   100    13    15    1
   101    14    12    1
   102   118   116    1
   103   154   155    1
   104   145   142    1
   105   115   114    2
   106   114   113    1
   107   109   107   ar
   108   109   110   ar
   109   116   113    1
   110   155   158    1
   111    74    73    2
   112   142   141    1
   113   111   110    1
   114   107   105   ar
   115    28    18   am
   116    28    29    1
   117    73    72    1
   118    47    45   ar
   119    18    19    2
   120   141   135   am
   121   110   108   ar
   122   113   112    1
   123    32    29    1
   124    32    33    1
   125    71    72    1
   126   112   102   am
   127   136   135    2
   128   135   134    1
   129   133   134    1
   130    45    44    1
   131    45    46   ar
   132    29    30    1
   133    44    41    1
   134    72    75    1
   135   105   104    1
   136   105   106   ar
   137    75    76    1
   138    31    30    2
   139    33    35   ar
   140    33    34   ar
   141   108   106   ar
   142   104   101    1
   143   102   103    2
   144   102   101    1
   145    35    37   ar
   146   134   137    1
   147    76    77    1
   148    34    36   ar
   149    40    41    1
   150    41    42    1
   151    79    77   ar
   152   101   100    1
   153    37    38   ar
   154    77    78   ar
   155   137   138    1
   156    36    38   ar
   157   100    95   am
   158    38    39    1
   159    98    97    1
   160    43    42    2
   161   139   138   ar
   162   138   140   ar
   163    95    96    2
   164    95    94    1
   165    97    94    1
   166    97    99    1
   167    94    93    1
   168    51    50    2
   169    70    68   am
   170    69    68    2
   171    68    67    1
   172    50    58   am
   173    50    49    1
   174    48    49    1
   175    66    67    1
   176    66    63    1
   177    87    85    1
   178    59    58    1
   179    59    60    1
   180    62    60   am
   181    62    63    1
   182    52    49    1
   183    52    53    1
   184    60    61    2
   185    86    85    1
   186    64    63    1
   187    64    65    2
   188    54    53   ar
   189    54    56   ar
   190    85    84    1
   191    53    55   ar
   192    56    57   ar
   193    92    89    1
   194    84    81    1
   195    55    57   ar
   196    89    90    1
   197    89    88    1
   198    81    80    1
   199    81    82    1
   200    90    91    2
   201    82    83    2
