@<TRIPOS>MOLECULE
tmp/4zt8A01.pdb
 95 92 0 0 0
SMALL
GASTEIGER

@<TRIPOS>ATOM
      1  N        -21.8320   19.4540    0.7580 N.3    69  VAL69      -0.1231
      2  CA       -21.4700   18.1370    1.3220 C.3    69  VAL69       0.1692
      3  C        -20.0470   17.6680    0.9400 C.2    69  VAL69       0.2592
      4  O        -19.7430   16.4770    1.0390 O.2    69  VAL69      -0.2718
      5  CB       -22.5090   17.0160    0.9960 C.3    69  VAL69       0.0266
      6  CG1      -22.6060   16.0310    2.1560 C.3    69  VAL69       0.0020
      7  CG2      -23.8980   17.5820    0.7030 C.3    69  VAL69       0.0020
      8  N        -19.1800   18.6000    0.5300 N.am   70  TYR70      -0.1962
      9  CA       -17.7950   18.2670    0.1830 C.3    70  TYR70       0.1771
     10  C        -16.9450   18.1240    1.4420 C.2    70  TYR70       0.2619
     11  O        -16.9820   18.9640    2.3400 O.2    70  TYR70      -0.2715
     12  CB       -17.1410   19.3260   -0.7220 C.3    70  TYR70       0.0574
     13  CG       -17.7530   19.5260   -2.0960 C.ar   70  TYR70      -0.0198
     14  CD1      -17.5230   20.7030   -2.8040 C.ar   70  TYR70      -0.0009
     15  CD2      -18.5630   18.5580   -2.6860 C.ar   70  TYR70      -0.0009
     16  CE1      -18.0790   20.9100   -4.0570 C.ar   70  TYR70       0.0417
     17  CE2      -19.1230   18.7540   -3.9370 C.ar   70  TYR70       0.0417
     18  CZ       -18.8790   19.9330   -4.6180 C.ar   70  TYR70       0.1957
     19  OH       -19.4250   20.1460   -5.8630 O.3    70  TYR70      -0.2866
     20  N        -16.1740   17.0490    1.4980 N.am   71  ILE71      -0.1977
     21  CA       -15.2020   16.8450    2.5510 C.3    71  ILE71       0.1596
     22  C        -14.0520   17.8260    2.3360 C.2    71  ILE71       0.2287
     23  O        -13.4640   17.8810    1.2520 O.2    71  ILE71      -0.2864
     24  CB       -14.7080   15.3840    2.5740 C.3    71  ILE71       0.0276
     25  CG1      -15.8750   14.4680    2.9680 C.3    71  ILE71       0.0022
     26  CG2      -13.5350   15.2320    3.5330 C.3    71  ILE71       0.0022
     27  CD1      -15.5380   12.9970    3.0370 C.3    71  ILE71       0.0001
     28  N         -7.3990   19.1840    2.0430 N.3    83  PHE83      -0.1241
     29  CA        -7.1220   19.1330    0.6170 C.3    83  PHE83       0.1605
     30  C         -6.3830   20.3890    0.1780 C.2    83  PHE83       0.2264
     31  O         -6.5190   21.4550    0.7770 O.2    83  PHE83      -0.2867
     32  CB        -8.4060   18.9750   -0.2000 C.3    83  PHE83       0.0534
     33  CG        -8.9990   17.5960   -0.1300 C.ar   83  PHE83      -0.0203
     34  CD1       -8.2600   16.4910   -0.5350 C.ar   83  PHE83      -0.0042
     35  CD2      -10.2930   17.4010    0.3350 C.ar   83  PHE83      -0.0042
     36  CE1       -8.7970   15.2210   -0.4710 C.ar   83  PHE83      -0.0003
     37  CE2      -10.8380   16.1300    0.3940 C.ar   83  PHE83      -0.0003
     38  CZ       -10.0890   15.0390   -0.0110 C.ar   83  PHE83      -0.0000
     39  N         -9.5280   17.7550   -3.5860 N.3   109  GLY109     -0.1210
     40  CA       -10.5030   16.7500   -3.1730 C.3   109  GLY109      0.1956
     41  C        -11.4200   16.2280   -4.2590 C.2   109  GLY109      0.2612
     42  O        -12.3070   15.4260   -3.9850 O.2   109  GLY109     -0.2717
     43  N        -11.2210   16.6570   -5.4990 N.am  110  ASN110     -0.1960
     44  CA       -12.0960   16.1870   -6.5660 C.3   110  ASN110      0.1819
     45  C        -11.7230   14.7750   -7.0060 C.2   110  ASN110      0.2621
     46  O        -10.5690   14.3400   -6.8730 O.2   110  ASN110     -0.2715
     47  CB       -12.1260   17.1550   -7.7460 C.3   110  ASN110      0.1195
     48  CG       -10.8160   17.2150   -8.4910 C.2   110  ASN110      0.2630
     49  OD1      -10.5580   16.4110   -9.3890 O.2   110  ASN110     -0.2716
     50  ND2       -9.9870   18.1860   -8.1400 N.am  110  ASN110     -0.0877
     51  N        -12.7180   14.0560   -7.5090 N.am  111  TYR111     -0.1974
     52  CA       -12.5490   12.6470   -7.8240 C.3   111  TYR111      0.1639
     53  C        -11.3950   12.3920   -8.7980 C.2   111  TYR111      0.2290
     54  O        -10.6530   11.4310   -8.6380 O.2   111  TYR111     -0.2864
     55  CB       -13.8410   12.0680   -8.3900 C.3   111  TYR111      0.0560
     56  CG       -14.9000   11.6840   -7.3640 C.ar  111  TYR111     -0.0198
     57  CD1      -14.5670   11.0280   -6.1800 C.ar  111  TYR111     -0.0009
     58  CD2      -16.2510   11.9230   -7.6170 C.ar  111  TYR111     -0.0009
     59  CE1      -15.5450   10.6530   -5.2650 C.ar  111  TYR111      0.0417
     60  CE2      -17.2320   11.5520   -6.7070 C.ar  111  TYR111      0.0417
     61  CZ       -16.8750   10.9160   -5.5360 C.ar  111  TYR111      0.1957
     62  OH       -17.8480   10.5450   -4.6400 O.3   111  TYR111     -0.2866
     63  N        -15.6350    9.4090    1.0080 N.3   155  ILE155     -0.1245
     64  CA       -16.5460   10.3410    0.3380 C.3   155  ILE155      0.1561
     65  C        -17.8090    9.6290   -0.1390 C.2   155  ILE155      0.2260
     66  O        -18.9240   10.1500    0.0080 O.2   155  ILE155     -0.2867
     67  CB       -15.8550   11.0370   -0.8530 C.3   155  ILE155      0.0252
     68  CG1      -14.8250   12.0570   -0.3530 C.3   155  ILE155      0.0019
     69  CG2      -16.8700   11.7490   -1.7400 C.3   155  ILE155      0.0019
     70  CD1      -13.8060   12.4480   -1.4040 C.3   155  ILE155      0.0001
     71  N        -20.8250   11.2670    2.1700 N.3   159  ALA159     -0.1231
     72  CA       -21.4470   12.3210    1.3590 C.3   159  ALA159      0.1694
     73  C        -22.3490   11.8050    0.2330 C.2   159  ALA159      0.2591
     74  O        -23.4940   12.2550    0.1000 O.2   159  ALA159     -0.2718
     75  CB       -20.3820   13.2410    0.7840 C.3   159  ALA159      0.0304
     76  N        -21.8530   10.8690   -0.5710 N.am  160  GLU160     -0.1979
     77  CA       -22.6420   10.3830   -1.7070 C.3   160  GLU160      0.1602
     78  C        -23.8970    9.6340   -1.2320 C.2   160  GLU160      0.2287
     79  O        -24.9660    9.7610   -1.8390 O.2   160  GLU160     -0.2864
     80  CB       -21.8040    9.5180   -2.6640 C.3   160  GLU160      0.0415
     81  CG       -20.5850   10.2170   -3.2640 C.3   160  GLU160      0.1163
     82  CD       -20.9180   11.3280   -4.2540 C.2   160  GLU160      0.3649
     83  OE1      -22.0760   11.8030   -4.2940 O.co2 160  GLU160     -0.2457
     84  OE2      -20.0100   11.7390   -5.0030 O.co2 160  GLU160     -0.2457
     85  N        -26.4890   12.0950   -0.2610 N.3   163  ARG163     -0.1245
     86  CA       -27.1060   12.7210   -1.4390 C.3   163  ARG163      0.1563
     87  C        -28.1390   11.8640   -2.1490 C.2   163  ARG163      0.2260
     88  O        -29.0820   12.4000   -2.7390 O.2   163  ARG163     -0.2867
     89  CB       -26.0400   13.1100   -2.4620 C.3   163  ARG163      0.0307
     90  CG       -25.1800   14.2740   -2.0350 C.3   163  ARG163      0.0489
     91  CD       -23.9530   14.3540   -2.9140 C.3   163  ARG163      0.2205
     92  NE       -23.0590   15.4320   -2.5050 N.pl3 163  ARG163     -0.0865
     93  CZ       -21.7340   15.3900   -2.6200 C.cat 163  ARG163      0.5346
     94  NH1      -21.1430   14.3150   -3.1300 N.pl3 163  ARG163      0.1354
     95  NH2      -20.9970   16.4160   -2.2190 N.pl3 163  ARG163      0.1354
@<TRIPOS>BOND
     1    49    48    2
     2    53    54    2
     3    53    52    1
     4    48    50   am
     5    48    47    1
     6    55    52    1
     7    55    56    1
     8    52    51    1
     9    47    44    1
    10    58    56   ar
    11    58    60   ar
    12    51    45   am
    13    56    57   ar
    14    45    46    2
    15    45    44    1
    16    60    61   ar
    17    44    43    1
    18    57    59   ar
    19    19    18    1
    20    61    59   ar
    21    61    62    1
    22    43    41   am
    23    84    82   ar
    24    18    16   ar
    25    18    17   ar
    26    83    82   ar
    27    41    42    2
    28    41    40    1
    29    82    81    1
    30    16    14   ar
    31    17    15   ar
    32    39    40    1
    33    81    80    1
    34    94    93    1
    35    91    92    1
    36    91    90    1
    37    14    13   ar
    38    88    87    2
    39    15    13   ar
    40    80    77    1
    41    93    92    2
    42    93    95    1
    43    89    90    1
    44    89    86    1
    45    87    86    1
    46    13    12    1
    47    79    78    2
    48    69    67    1
    49    77    78    1
    50    77    76    1
    51    86    85    1
    52    70    68    1
    53    67    68    1
    54    67    64    1
    55    12     9    1
    56    76    73   am
    57    34    36   ar
    58    34    33   ar
    59    36    38   ar
    60    32    33    1
    61    32    29    1
    62    65    66    2
    63    65    64    1
    64    33    35   ar
    65    38    37   ar
    66    74    73    2
    67    30    29    1
    68    30    31    2
    69     9     8    1
    70     9    10    1
    71    73    72    1
    72    35    37   ar
    73    64    63    1
    74     8     3   am
    75    29    28    1
    76     7     5    1
    77     1     2    1
    78    75    72    1
    79     3     4    2
    80     3     2    1
    81     5     2    1
    82     5     6    1
    83    23    22    2
    84    72    71    1
    85    10    20   am
    86    10    11    2
    87    20    21    1
    88    22    21    1
    89    21    24    1
    90    24    25    1
    91    24    26    1
    92    25    27    1
