@<TRIPOS>MOLECULE
tmp/4ztcA00.pdb
 184 177 0 0 0
SMALL
GASTEIGER

@<TRIPOS>ATOM
      1  N         38.4720    6.3310   -1.6870 N.3     4  PHE4       -0.1241
      2  CA        37.1230    5.8550   -1.6350 C.3     4  PHE4        0.1605
      3  C         36.6730    5.4620   -3.0330 C.2     4  PHE4        0.2264
      4  O         37.3160    5.7550   -4.0720 O.2     4  PHE4       -0.2867
      5  CB        36.1940    6.9250   -1.0550 C.3     4  PHE4        0.0534
      6  CG        36.5980    7.4100    0.3090 C.ar    4  PHE4       -0.0203
      7  CD1       36.1400    6.7630    1.4640 C.ar    4  PHE4       -0.0042
      8  CD2       37.3960    8.5470    0.4610 C.ar    4  PHE4       -0.0042
      9  CE1       36.4610    7.2390    2.7310 C.ar    4  PHE4       -0.0003
     10  CE2       37.7250    9.0010    1.7300 C.ar    4  PHE4       -0.0003
     11  CZ        37.2670    8.3410    2.8630 C.ar    4  PHE4       -0.0000
     12  N         34.2410    6.5320   -4.8540 N.3     6  SER6       -0.1203
     13  CA        33.8310    7.5760   -5.7790 C.3     6  SER6        0.2005
     14  C         33.3720    8.7510   -4.9520 C.2     6  SER6        0.2461
     15  O         32.2100    9.1010   -4.9860 O.2     6  SER6       -0.2732
     16  CB        32.7340    7.0560   -6.7420 C.3     6  SER6        0.2103
     17  OG        32.3480    7.9960   -7.7690 O.3     6  SER6       -0.2182
     18  N         34.3080    9.3550   -4.1800 N.am    7  PRO7       -0.2718
     19  CA        33.9400   10.4510   -3.3370 C.3     7  PRO7        0.1520
     20  C         33.4800   11.6840   -4.1230 C.2     7  PRO7        0.2440
     21  O         33.5470   11.7350   -5.3520 O.2     7  PRO7       -0.2731
     22  CB        35.2340   10.7520   -2.5680 C.3     7  PRO7        0.0310
     23  CG        36.3260   10.3330   -3.4840 C.3     7  PRO7        0.0237
     24  CD        35.7680    9.1350   -4.2170 C.3     7  PRO7        0.0939
     25  N         32.9880   12.6820   -3.4240 N.am    8  PRO8       -0.2727
     26  CA        32.7320   13.9200   -4.1550 C.3     8  PRO8        0.1402
     27  C         33.9930   14.4600   -4.7790 C.2     8  PRO8        0.2269
     28  O         35.0650   14.3650   -4.1610 O.2     8  PRO8       -0.2865
     29  CB        32.2320   14.8690   -3.0640 C.3     8  PRO8        0.0296
     30  CG        31.5250   13.9470   -2.1090 C.3     8  PRO8        0.0237
     31  CD        32.3880   12.7120   -2.0750 C.3     8  PRO8        0.0939
     32  N         16.2620   12.7460   -4.6820 N.3    55  SER55      -0.1202
     33  CA        16.9090   11.4390   -4.7770 C.3    55  SER55       0.2020
     34  C         16.4460   10.7590   -6.0560 C.2    55  SER55       0.2619
     35  O         15.3660   11.0530   -6.5700 O.2    55  SER55      -0.2717
     36  CB        16.5620   10.5200   -3.5720 C.3    55  SER55       0.2103
     37  OG        15.1990   10.1070   -3.6070 O.3    55  SER55      -0.2182
     38  N         17.2190    9.8090   -6.5530 N.am   56  ALA56      -0.1965
     39  CA        16.7530    8.9650   -7.6660 C.3    56  ALA56       0.1728
     40  C         15.7220    7.9510   -7.2240 C.2    56  ALA56       0.2616
     41  O         14.8850    7.5310   -8.0270 O.2    56  ALA56      -0.2715
     42  CB        17.8950    8.2450   -8.3690 C.3    56  ALA56       0.0334
     43  N         15.8010    7.5200   -5.9770 N.am   57  THR57      -0.1951
     44  CA        14.7030    6.7430   -5.4070 C.3    57  THR57       0.1897
     45  C         13.3590    7.4520   -5.6020 C.2    57  THR57       0.2313
     46  O         12.3820    6.8240   -6.0110 O.2    57  THR57      -0.2863
     47  CB        14.9320    6.4040   -3.9210 C.3    57  THR57       0.1794
     48  OG1       16.2320    5.8220   -3.7390 O.3    57  THR57      -0.2208
     49  CG2       13.8650    5.4090   -3.4400 C.3    57  THR57       0.0378
     50  N         12.1790    7.3060   -9.2380 N.3    60  LEU60      -0.1245
     51  CA        11.6290    6.0340   -9.5910 C.3    60  LEU60       0.1561
     52  C         10.2700    5.8650   -8.9710 C.2    60  LEU60       0.2260
     53  O          9.3970    5.3180   -9.5850 O.2    60  LEU60      -0.2867
     54  CB        12.5360    4.9050   -9.0780 C.3    60  LEU60       0.0270
     55  CG        13.9190    4.8340   -9.7150 C.3    60  LEU60       0.0019
     56  CD1       14.8700    3.9940   -8.8700 C.3    60  LEU60       0.0001
     57  CD2       13.7390    4.2350  -11.0770 C.3    60  LEU60       0.0001
     58  N         21.3150   -5.3180   -8.7170 N.3    81  THR81      -0.1203
     59  CA        21.1320   -3.8780   -8.5620 C.3    81  THR81       0.1994
     60  C         21.1940   -3.5150   -7.0760 C.2    81  THR81       0.2617
     61  O         21.3900   -4.3690   -6.2580 O.2    81  THR81      -0.2717
     62  CB        19.7890   -3.4430   -9.1510 C.3    81  THR81       0.1784
     63  OG1       19.7510   -2.0040   -9.2430 O.3    81  THR81      -0.2211
     64  CG2       18.6260   -3.9860   -8.2860 C.3    81  THR81       0.0376
     65  N         21.0410   -2.2350   -6.7710 N.am   82  PHE82      -0.1975
     66  CA        20.9560   -1.6830   -5.4040 C.3    82  PHE82       0.1639
     67  C         19.4930   -1.5740   -5.0390 C.2    82  PHE82       0.2290
     68  O         18.6550   -1.2320   -5.8670 O.2    82  PHE82      -0.2864
     69  CB        21.5540   -0.2770   -5.3750 C.3    82  PHE82       0.0560
     70  CG        21.5580    0.3880   -4.0050 C.ar   82  PHE82      -0.0200
     71  CD1       22.1830   -0.1870   -2.9170 C.ar   82  PHE82      -0.0042
     72  CD2       20.9380    1.5990   -3.8260 C.ar   82  PHE82      -0.0042
     73  CE1       22.2000    0.4340   -1.7050 C.ar   82  PHE82      -0.0003
     74  CE2       20.9370    2.2280   -2.5980 C.ar   82  PHE82      -0.0003
     75  CZ        21.5860    1.6460   -1.5350 C.ar   82  PHE82      -0.0000
     76  N         17.4960    0.4240   -3.6930 N.3    84  ALA84      -0.1231
     77  CA        16.7720    1.6720   -4.0520 C.3    84  ALA84       0.1694
     78  C         15.9980    1.5720   -5.3440 C.2    84  ALA84       0.2592
     79  O         14.9490    2.2470   -5.5230 O.2    84  ALA84      -0.2718
     80  CB        17.7480    2.8300   -4.1720 C.3    84  ALA84       0.0304
     81  N         16.5410    0.8010   -6.2780 N.am   85  SER85      -0.1952
     82  CA        15.9410    0.5800   -7.5830 C.3    85  SER85       0.1924
     83  C         14.5500   -0.0150   -7.4740 C.2    85  SER85       0.2314
     84  O         13.6840    0.3270   -8.2820 O.2    85  SER85      -0.2863
     85  CB        16.7980   -0.3940   -8.4070 C.3    85  SER85       0.2116
     86  OG        16.1870   -0.6760   -9.6600 O.3    85  SER85      -0.2180
     87  N         17.8970   -1.6220  -14.3980 N.3   129  THR129     -0.1218
     88  CA        19.1250   -1.0360  -13.9540 C.3   129  THR129      0.1862
     89  C         20.1590   -1.0490  -15.0660 C.2   129  THR129      0.2287
     90  O         20.2320   -2.0040  -15.8400 O.2   129  THR129     -0.2866
     91  CB        19.6460   -1.7650  -12.7110 C.3   129  THR129      0.1770
     92  OG1       18.7570   -1.5160  -11.6130 O.3   129  THR129     -0.2211
     93  CG2       21.0250   -1.2820  -12.3370 C.3   129  THR129      0.0375
     94  N         16.4640    2.7410  -14.8760 N.3   155  ASP155     -0.1239
     95  CA        17.1520    3.1790  -13.6990 C.3   155  ASP155      0.1674
     96  C         18.6160    3.3960  -14.1000 C.2   155  ASP155      0.2266
     97  O         19.4320    2.4880  -14.0470 O.2   155  ASP155     -0.2867
     98  CB        16.9960    2.1570  -12.5850 C.3   155  ASP155      0.1410
     99  CG        17.7160    2.5620  -11.3120 C.2   155  ASP155      0.3668
    100  OD1       17.6630    1.7900  -10.3240 O.co2 155  ASP155     -0.2456
    101  OD2       18.3140    3.6550  -11.2810 O.co2 155  ASP155     -0.2456
    102  N         20.4430    5.5470  -12.5030 N.3   157  ALA157     -0.1231
    103  CA        20.9140    6.2200  -11.3500 C.3   157  ALA157      0.1694
    104  C         22.4470    6.2310  -11.2600 C.2   157  ALA157      0.2591
    105  O         23.0140    7.2270  -10.8150 O.2   157  ALA157     -0.2718
    106  CB        20.3020    5.6070  -10.0660 C.3   157  ALA157      0.0304
    107  N         23.0840    5.1340  -11.6700 N.am  158  GLU158     -0.1979
    108  CA        24.5370    5.0290  -11.6750 C.3   158  GLU158      0.1602
    109  C         25.1290    5.3630  -13.0510 C.2   158  GLU158      0.2287
    110  O         26.3250    5.2680  -13.2550 O.2   158  GLU158     -0.2864
    111  CB        24.9380    3.6030  -11.3170 C.3   158  GLU158      0.0415
    112  CG        24.7710    3.2270   -9.8490 C.3   158  GLU158      0.1163
    113  CD        24.8830    1.6960   -9.6330 C.2   158  GLU158      0.3649
    114  OE1       25.5720    1.0250  -10.4420 O.co2 158  GLU158     -0.2457
    115  OE2       24.2710    1.1510   -8.6540 O.co2 158  GLU158     -0.2457
    116  N         20.7450    9.6240  -10.4010 N.3   179  SER179     -0.1217
    117  CA        21.0740    9.9790   -8.9950 C.3   179  SER179      0.1889
    118  C         22.2070   11.0050   -8.9510 C.2   179  SER179      0.2288
    119  O         23.1490   10.9040   -9.7470 O.2   179  SER179     -0.2866
    120  CB        21.5860    8.7180   -8.2970 C.3   179  SER179      0.2089
    121  OG        21.9050    8.9340   -6.9320 O.3   179  SER179     -0.2183
    122  N         23.4610   11.4300   -5.6690 N.3   181  ASN181     -0.1225
    123  CA        23.8320   11.0930   -4.3180 C.3   181  ASN181      0.1785
    124  C         25.3540   11.2140   -4.1580 C.2   181  ASN181      0.2598
    125  O         26.0630   11.5510   -5.1050 O.2   181  ASN181     -0.2718
    126  CB        23.3120    9.7200   -3.8900 C.3   181  ASN181      0.1169
    127  CG        22.9600    9.6930   -2.3790 C.2   181  ASN181      0.2627
    128  OD1       23.5780   10.4070   -1.6060 O.2   181  ASN181     -0.2716
    129  ND2       21.9360    8.9330   -1.9780 N.am  181  ASN181     -0.0877
    130  N         25.8410   11.0230   -2.9350 N.am  182  GLY182     -0.1942
    131  CA        27.1430   11.5280   -2.5530 C.3   182  GLY182      0.2014
    132  C         28.2540   10.8080   -3.2770 C.2   182  GLY182      0.2638
    133  O         29.3770   11.2640   -3.3070 O.2   182  GLY182     -0.2714
    134  N         27.9530    9.6400   -3.8070 N.am  183  ASN183     -0.1972
    135  CA        28.9740    8.8560   -4.4570 C.3   183  ASN183      0.1688
    136  C         28.7840    8.6770   -5.9330 C.2   183  ASN183      0.2292
    137  O         29.5110    7.8960   -6.5430 O.2   183  ASN183     -0.2864
    138  CB        29.1910    7.5080   -3.7570 C.3   183  ASN183      0.1181
    139  CG        28.1450    6.4650   -4.0920 C.2   183  ASN183      0.2629
    140  OD1       28.3780    5.3120   -3.7920 O.2   183  ASN183     -0.2716
    141  ND2       26.9990    6.8410   -4.6730 N.am  183  ASN183     -0.0877
    142  N         20.2790   13.9200   -4.3700 N.3   191  GLY191     -0.1225
    143  CA        19.4650   14.4540   -5.4010 C.3   191  GLY191      0.1811
    144  C         19.2060   13.4860   -6.5330 C.2   191  GLY191      0.2280
    145  O         19.8330   12.4470   -6.6430 O.2   191  GLY191     -0.2866
    146  N         31.1680    4.2740  -14.0100 N.3   281  TRP281     -0.1241
    147  CA        30.9690    4.9370  -12.7130 C.3   281  TRP281      0.1605
    148  C         31.8420    4.3340  -11.5840 C.2   281  TRP281      0.2264
    149  O         32.4460    5.0700  -10.8190 O.2   281  TRP281     -0.2867
    150  CB        29.4810    4.9480  -12.2800 C.3   281  TRP281      0.0550
    151  CG        29.3930    5.3420  -10.8170 C.ar  281  TRP281      0.0003
    152  CD1       29.8230    6.5320  -10.2450 C.ar  281  TRP281      0.0946
    153  CD2       28.8970    4.5500   -9.7590 C.ar  281  TRP281      0.0152
    154  NE1       29.6060    6.5080   -8.9000 N.ar  281  TRP281     -0.2442
    155  CE2       29.0420    5.3030   -8.5720 C.ar  281  TRP281      0.0810
    156  CE3       28.3130    3.2730   -9.6910 C.ar  281  TRP281      0.0012
    157  CZ2       28.6540    4.8100   -7.3340 C.ar  281  TRP281      0.0191
    158  CZ3       27.9210    2.8000   -8.4640 C.ar  281  TRP281      0.0001
    159  CH2       28.0890    3.5780   -7.3030 C.ar  281  TRP281      0.0015
    160  N         34.7720   -2.7980   -2.4510 N.3   329  ARG329     -0.1245
    161  CA        33.5310   -3.3910   -2.0050 C.3   329  ARG329      0.1563
    162  C         33.1430   -4.5500   -2.9130 C.2   329  ARG329      0.2260
    163  O         33.4610   -4.5020   -4.0810 O.2   329  ARG329     -0.2867
    164  CB        32.4220   -2.3440   -2.0300 C.3   329  ARG329      0.0307
    165  CG        32.5680   -1.2590   -0.9830 C.3   329  ARG329      0.0489
    166  CD        31.2390   -0.5670   -0.7890 C.3   329  ARG329      0.2205
    167  NE        31.3800    0.7310   -0.1270 N.pl3 329  ARG329     -0.0865
    168  CZ        30.3660    1.5470    0.1360 C.cat 329  ARG329      0.5346
    169  NH1       29.1160    1.2060   -0.1840 N.pl3 329  ARG329      0.1354
    170  NH2       30.6080    2.7160    0.7040 N.pl3 329  ARG329      0.1354
    171  N         27.2260   -5.6910   -6.1530 N.3   332  TRP332     -0.1241
    172  CA        25.9450   -5.5910   -5.4850 C.3   332  TRP332      0.1605
    173  C         25.3710   -6.9830   -5.2690 C.2   332  TRP332      0.2264
    174  O         25.3660   -7.7860   -6.1770 O.2   332  TRP332     -0.2867
    175  CB        24.9670   -4.7170   -6.2700 C.3   332  TRP332      0.0550
    176  CG        25.3170   -3.2250   -6.4140 C.ar  332  TRP332      0.0003
    177  CD1       24.6030   -2.3070   -7.1350 C.ar  332  TRP332      0.0946
    178  CD2       26.4640   -2.5130   -5.8990 C.ar  332  TRP332      0.0152
    179  NE1       25.1830   -1.0580   -7.0390 N.ar  332  TRP332     -0.2442
    180  CE2       26.3380   -1.1600   -6.3230 C.ar  332  TRP332      0.0810
    181  CE3       27.5420   -2.8640   -5.0860 C.ar  332  TRP332      0.0012
    182  CZ2       27.2890   -0.1690   -6.0010 C.ar  332  TRP332      0.0191
    183  CZ3       28.4920   -1.8880   -4.7720 C.ar  332  TRP332      0.0001
    184  CH2       28.3450   -0.5460   -5.2190 C.ar  332  TRP332      0.0015
@<TRIPOS>BOND
     1    90    89    2
     2    89    88    1
     3    94    95    1
     4    87    88    1
     5    96    97    2
     6    96    95    1
     7   146   147    1
     8    88    91    1
     9    95    98    1
    10   110   109    2
    11   109   108    1
    12   147   150    1
    13   147   148    1
    14    91    93    1
    15    91    92    1
    16    98    99    1
    17   102   103    1
    18   150   151    1
    19   108   107    1
    20   108   111    1
    21   107   104   am
    22   148   149    2
    23   103   104    1
    24   103   106    1
    25   111   112    1
    26    99   101   ar
    27    99   100   ar
    28   104   105    2
    29    57    55    1
    30   151   152   ar
    31   151   153   ar
    32   114   113   ar
    33   116   117    1
    34   152   154   ar
    35   112   113    1
    36   153   156   ar
    37   153   155   ar
    38   119   118    2
    39    55    54    1
    40    55    56    1
    41   156   158   ar
    42    86    85    1
    43   113   115   ar
    44    51    50    1
    45    51    54    1
    46    51    52    1
    47    53    52    2
    48    63    62    1
    49    62    59    1
    50    62    64    1
    51   117   118    1
    52   117   120    1
    53   154   155   ar
    54    58    59    1
    55   155   157   ar
    56    59    60    1
    57   158   159   ar
    58    85    82    1
    59    42    39    1
    60   120   121    1
    61    84    83    2
    62    41    40    2
    63    17    16    1
    64    39    40    1
    65    39    38    1
    66    82    83    1
    67    82    81    1
    68   157   159   ar
    69    40    43   am
    70   177   179   ar
    71   177   176   ar
    72    60    65   am
    73    60    61    2
    74   179   180   ar
    75    65    66    1
    76    16    13    1
    77   145   144    2
    78    35    34    2
    79    38    34   am
    80   137   136    2
    81   144   143    1
    82   176   175    1
    83   176   178   ar
    84   180   182   ar
    85   180   178   ar
    86    81    78   am
    87   175   172    1
    88   174   173    2
    89   171   172    1
    90    34    33    1
    91    46    45    2
    92   182   184   ar
    93    43    44    1
    94   136   135    1
    95   178   181   ar
    96    68    67    2
    97    13    14    1
    98    13    12    1
    99   122   123    1
   100    45    44    1
   101    79    78    2
   102   172   173    1
   103    44    47    1
   104    66    69    1
   105    66    67    1
   106   143   142    1
   107    69    70    1
   108    21    20    2
   109    78    77    1
   110   184   183   ar
   111   125   124    2
   112   181   183   ar
   113    15    14    2
   114    14    18   am
   115    27    28    2
   116    27    26    1
   117    33    32    1
   118    33    36    1
   119   141   139   am
   120   135   134    1
   121   135   138    1
   122   123   124    1
   123   123   126    1
   124    24    18    1
   125    24    23    1
   126    18    19    1
   127    80    77    1
   128   124   130   am
   129    26    25    1
   130    26    29    1
   131    20    25   am
   132    20    19    1
   133   139   140    2
   134   139   138    1
   135   163   162    2
   136     4     3    2
   137    77    76    1
   138    70    72   ar
   139    70    71   ar
   140    47    48    1
   141    47    49    1
   142   126   127    1
   143    72    74   ar
   144   134   132   am
   145    37    36    1
   146    23    22    1
   147    25    31    1
   148    19    22    1
   149   133   132    2
   150   132   131    1
   151    29    30    1
   152     3     2    1
   153   130   131    1
   154    71    73   ar
   155   162   161    1
   156    74    75   ar
   157   160   161    1
   158   127   129   am
   159   127   128    2
   160    30    31    1
   161   164   161    1
   162   164   165    1
   163    73    75   ar
   164     1     2    1
   165     2     5    1
   166     5     6    1
   167   165   166    1
   168   166   167    1
   169   169   168    1
   170   167   168    2
   171   168   170    1
   172     6     8   ar
   173     6     7   ar
   174     8    10   ar
   175     7     9   ar
   176    10    11   ar
   177     9    11   ar
