@<TRIPOS>MOLECULE
tmp/4ztdC00.pdb
 123 119 0 0 0
SMALL
GASTEIGER

@<TRIPOS>ATOM
      1  N         32.0030  -16.5610   24.7860 N.3    39  MET39      -0.1245
      2  CA        31.2650  -17.7620   25.1470 C.3    39  MET39       0.1570
      3  C         29.8280  -17.3760   25.4420 C.2    39  MET39       0.2261
      4  O         29.5350  -16.2040   25.6700 O.2    39  MET39      -0.2867
      5  CB        31.8870  -18.4560   26.3580 C.3    39  MET39       0.0387
      6  CG        33.2280  -19.0730   26.0780 C.3    39  MET39       0.0595
      7  SD        33.6910  -20.2040   27.3860 S.3    39  MET39      -0.1393
      8  CE        34.8810  -21.2300   26.5310 C.3    39  MET39       0.0692
      9  N         28.7160  -21.1400   29.1240 N.3    43  HIS43      -0.1226
     10  CA        30.1000  -21.4920   28.8410 C.3    43  HIS43       0.1752
     11  C         30.2590  -22.8560   28.1800 C.2    43  HIS43       0.2596
     12  O         31.3160  -23.4690   28.2770 O.2    43  HIS43      -0.2718
     13  CB        30.9300  -21.4520   30.1230 C.3    43  HIS43       0.0759
     14  CG        31.2770  -20.0700   30.5730 C.ar   43  HIS43       0.0818
     15  ND1       30.5360  -18.9620   30.2180 N.ar   43  HIS43      -0.2268
     16  CD2       32.2940  -19.6100   31.3390 C.ar   43  HIS43       0.1154
     17  CE1       31.0780  -17.8830   30.7500 C.ar   43  HIS43       0.1986
     18  NE2       32.1480  -18.2490   31.4360 N.ar   43  HIS43      -0.2212
     19  N         29.2180  -23.3240   27.5000 N.am   44  VAL44      -0.1966
     20  CA        29.2970  -24.5840   26.7680 C.3    44  VAL44       0.1727
     21  C         29.8640  -24.3570   25.3640 C.2    44  VAL44       0.2617
     22  O         30.6580  -25.1600   24.8640 O.2    44  VAL44      -0.2715
     23  CB        27.9190  -25.2700   26.6640 C.3    44  VAL44       0.0290
     24  CG1       28.0150  -26.5400   25.8300 C.3    44  VAL44       0.0023
     25  CG2       27.3870  -25.5840   28.0490 C.3    44  VAL44       0.0023
     26  N         29.4700  -23.2540   24.7350 N.am   45  SER45      -0.1936
     27  CA        29.8900  -22.9930   23.3620 C.3    45  SER45       0.2055
     28  C         30.7340  -21.7300   23.2380 C.2    45  SER45       0.2642
     29  O         30.7720  -20.8940   24.1390 O.2    45  SER45      -0.2714
     30  CB        28.6770  -22.8950   22.4330 C.3    45  SER45       0.2130
     31  OG        27.9630  -21.6920   22.6470 O.3    45  SER45      -0.2179
     32  N         31.4090  -21.6090   22.1020 N.am   46  LEU46      -0.1977
     33  CA        32.3460  -20.5260   21.8580 C.3    46  LEU46       0.1596
     34  C         32.2010  -19.9810   20.4470 C.2    46  LEU46       0.2287
     35  O         32.4360  -20.6850   19.4710 O.2    46  LEU46      -0.2864
     36  CB        33.7770  -21.0110   22.0770 C.3    46  LEU46       0.0297
     37  CG        34.8890  -20.0900   21.5810 C.3    46  LEU46       0.0022
     38  CD1       34.9670  -18.8320   22.4260 C.3    46  LEU46       0.0001
     39  CD2       36.2190  -20.8210   21.5700 C.3    46  LEU46       0.0001
     40  N         41.3430  -14.1490   23.8200 N.3   125  LEU125     -0.1245
     41  CA        41.7200  -15.5410   23.6720 C.3   125  LEU125      0.1561
     42  C         42.0290  -15.6840   22.1840 C.2   125  LEU125      0.2260
     43  O         42.7310  -14.8500   21.6080 O.2   125  LEU125     -0.2867
     44  CB        40.5920  -16.4800   24.1050 C.3   125  LEU125      0.0270
     45  CG        40.9100  -17.7820   24.8390 C.3   125  LEU125      0.0019
     46  CD1       41.8150  -17.5150   26.0140 C.3   125  LEU125      0.0001
     47  CD2       39.6200  -18.4280   25.3120 C.3   125  LEU125      0.0001
     48  N         41.9820  -19.1930   19.8990 N.3   127  ILE127     -0.1245
     49  CA        42.7340  -20.3830   19.5260 C.3   127  ILE127      0.1561
     50  C         41.8980  -21.2990   18.6280 C.2   127  ILE127      0.2260
     51  O         41.2030  -22.1850   19.1230 O.2   127  ILE127     -0.2867
     52  CB        43.1970  -21.1730   20.7750 C.3   127  ILE127      0.0252
     53  CG1       43.1830  -20.2840   22.0250 C.3   127  ILE127      0.0019
     54  CG2       44.5750  -21.7790   20.5470 C.3   127  ILE127      0.0019
     55  CD1       44.3530  -19.3210   22.1320 C.3   127  ILE127      0.0001
     56  N         43.0250  -23.5280   16.6420 N.3   129  GLU129     -0.1231
     57  CA        44.0110  -24.5250   16.2340 C.3   129  GLU129      0.1699
     58  C         43.4030  -25.9070   16.0090 C.2   129  GLU129      0.2592
     59  O         42.2050  -26.0980   16.2390 O.2   129  GLU129     -0.2718
     60  CB        45.1230  -24.6210   17.2880 C.3   129  GLU129      0.0402
     61  CG        44.8170  -25.5350   18.4840 C.3   129  GLU129      0.1161
     62  CD        43.8380  -24.9370   19.4860 C.2   129  GLU129      0.3649
     63  OE1       42.7780  -24.4250   19.0720 O.co2 129  GLU129     -0.2457
     64  OE2       44.1310  -24.9850   20.7000 O.co2 129  GLU129     -0.2457
     65  N         44.2530  -26.8110   15.5000 N.am  130  GLN130     -0.1979
     66  CA        44.1070  -28.2830   15.4720 C.3   130  GLN130      0.1601
     67  C         44.0590  -28.9130   14.0790 C.2   130  GLN130      0.2287
     68  O         43.6970  -28.2800   13.0850 O.2   130  GLN130     -0.2864
     69  CB        42.8650  -28.7630   16.2290 C.3   130  GLN130      0.0394
     70  CG        43.1550  -29.6810   17.4010 C.3   130  GLN130      0.0908
     71  CD        43.5230  -28.9260   18.6600 C.2   130  GLN130      0.2608
     72  OE1       44.7000  -28.7060   18.9440 O.2   130  GLN130     -0.2717
     73  NE2       42.5140  -28.5290   19.4280 N.am  130  GLN130     -0.0878
     74  N         42.0230  -32.2070   12.5400 N.3   132  TYR132     -0.1241
     75  CA        40.8530  -32.9660   12.9560 C.3   132  TYR132      0.1605
     76  C         40.7540  -34.3240   12.2800 C.2   132  TYR132      0.2264
     77  O         41.2070  -34.5100   11.1520 O.2   132  TYR132     -0.2867
     78  CB        39.5810  -32.1610   12.6950 C.3   132  TYR132      0.0534
     79  CG        39.4580  -30.9450   13.5780 C.ar  132  TYR132     -0.0201
     80  CD1       40.1190  -29.7670   13.2620 C.ar  132  TYR132     -0.0009
     81  CD2       38.6880  -30.9750   14.7310 C.ar  132  TYR132     -0.0009
     82  CE1       40.0160  -28.6520   14.0650 C.ar  132  TYR132      0.0417
     83  CE2       38.5780  -29.8610   15.5420 C.ar  132  TYR132      0.0417
     84  CZ        39.2450  -28.7030   15.2030 C.ar  132  TYR132      0.1957
     85  OH        39.1480  -27.5870   15.9990 O.3   132  TYR132     -0.2866
     86  N         37.6560  -33.2830   21.6470 N.3   232  VAL232     -0.1231
     87  CA        37.7820  -31.8620   21.3150 C.3   232  VAL232      0.1678
     88  C         36.4180  -31.3240   20.8610 C.2   232  VAL232      0.2434
     89  O         35.6000  -32.0850   20.3390 O.2   232  VAL232     -0.2733
     90  CB        38.8480  -31.6070   20.2140 C.3   232  VAL232      0.0265
     91  CG1       40.1680  -32.2690   20.5760 C.3   232  VAL232      0.0020
     92  CG2       38.3630  -32.0860   18.8620 C.3   232  VAL232      0.0020
     93  N         36.1560  -30.0190   21.0780 N.am  233  PRO233     -0.2729
     94  CA        34.8550  -29.4520   20.7000 C.3   233  PRO233      0.1401
     95  C         34.6510  -29.3950   19.1900 C.2   233  PRO233      0.2269
     96  O         35.5890  -29.0930   18.4510 O.2   233  PRO233     -0.2865
     97  CB        34.8980  -28.0400   21.2960 C.3   233  PRO233      0.0296
     98  CG        36.3400  -27.7160   21.3900 C.3   233  PRO233      0.0237
     99  CD        37.0270  -29.0130   21.7130 C.3   233  PRO233      0.0939
    100  N         32.1750  -23.2760   18.3720 N.3   249  TYR249     -0.1241
    101  CA        32.8320  -24.3930   19.0330 C.3   249  TYR249      0.1605
    102  C         31.8890  -24.9710   20.0700 C.2   249  TYR249      0.2264
    103  O         31.4460  -24.2620   20.9680 O.2   249  TYR249     -0.2867
    104  CB        34.1370  -23.9530   19.6990 C.3   249  TYR249      0.0534
    105  CG        35.1860  -23.4610   18.7340 C.ar  249  TYR249     -0.0201
    106  CD1       35.1930  -22.1440   18.3000 C.ar  249  TYR249     -0.0009
    107  CD2       36.1730  -24.3140   18.2580 C.ar  249  TYR249     -0.0009
    108  CE1       36.1500  -21.6880   17.4100 C.ar  249  TYR249      0.0417
    109  CE2       37.1350  -23.8690   17.3690 C.ar  249  TYR249      0.0417
    110  CZ        37.1180  -22.5550   16.9470 C.ar  249  TYR249      0.1957
    111  OH        38.0700  -22.1060   16.0620 O.3   249  TYR249     -0.2866
    112  N         31.5010  -27.9690   22.8480 N.3   251  ALA251     -0.1231
    113  CA        31.9950  -29.0850   23.6310 C.3   251  ALA251      0.1679
    114  C         30.9830  -30.2290   23.6110 C.2   251  ALA251      0.2434
    115  O         29.7810  -29.9990   23.7620 O.2   251  ALA251     -0.2733
    116  CB        32.2770  -28.6400   25.0520 C.3   251  ALA251      0.0304
    117  N         31.4650  -31.4670   23.4080 N.am  252  PRO252     -0.2729
    118  CA        30.5830  -32.6370   23.3690 C.3   252  PRO252      0.1401
    119  C         30.1520  -33.0880   24.7600 C.2   252  PRO252      0.2269
    120  O         30.5590  -32.4570   25.7360 O.2   252  PRO252     -0.2865
    121  CB        31.4500  -33.7030   22.7010 C.3   252  PRO252      0.0296
    122  CG        32.8360  -33.3410   23.1020 C.3   252  PRO252      0.0237
    123  CD        32.8680  -31.8310   23.1340 C.3   252  PRO252      0.0939
@<TRIPOS>BOND
     1    77    76    2
     2    76    75    1
     3    74    75    1
     4    78    75    1
     5    78    79    1
     6    68    67    2
     7    80    79   ar
     8    80    82   ar
     9    79    81   ar
    10    82    84   ar
    11    67    66    1
    12    81    83   ar
    13    84    83   ar
    14    84    85    1
    15    66    65    1
    16    66    69    1
    17    65    58   am
    18    58    57    1
    19    58    59    2
    20   111   110    1
    21    69    70    1
    22    57    56    1
    23    57    60    1
    24   110   109   ar
    25   110   108   ar
    26    60    61    1
    27   109   107   ar
    28    70    71    1
    29   108   106   ar
    30   107   105   ar
    31   106   105   ar
    32   100   101    1
    33    96    95    2
    34    61    62    1
    35    50    51    2
    36    50    49    1
    37    71    72    2
    38    71    73   am
    39   105   104    1
    40    92    90    1
    41   101   104    1
    42   101   102    1
    43    63    62   ar
    44    95    94    1
    45    35    34    2
    46    62    64   ar
    47    49    48    1
    48    49    52    1
    49   102   103    2
    50    90    91    1
    51    90    87    1
    52    89    88    2
    53    34    33    1
    54    54    52    1
    55    94    93    1
    56    94    97    1
    57    52    53    1
    58    88    93   am
    59    88    87    1
    60    93    99    1
    61    97    98    1
    62    87    86    1
    63    98    99    1
    64    39    37    1
    65    37    36    1
    66    37    38    1
    67    43    42    2
    68    33    36    1
    69    33    32    1
    70    53    55    1
    71    32    28   am
    72    42    41    1
    73    30    31    1
    74    30    27    1
    75   121   122    1
    76   121   118    1
    77   112   113    1
    78   122   123    1
    79   123   117    1
    80    28    27    1
    81    28    29    2
    82    27    26    1
    83   118   117    1
    84   118   119    1
    85   117   114   am
    86   114   113    1
    87   114   115    2
    88   113   116    1
    89    41    40    1
    90    41    44    1
    91    44    45    1
    92    26    21   am
    93   119   120    2
    94     1     2    1
    95    45    47    1
    96    45    46    1
    97    22    21    2
    98     2     3    1
    99     2     5    1
   100    21    20    1
   101     3     4    2
   102    24    23    1
   103     6     5    1
   104     6     7    1
   105     8     7    1
   106    23    20    1
   107    23    25    1
   108    20    19    1
   109    19    11   am
   110    11    12    2
   111    11    10    1
   112    10     9    1
   113    10    13    1
   114    13    14    1
   115    15    14   ar
   116    15    17   ar
   117    14    16   ar
   118    17    18   ar
   119    16    18   ar
