@<TRIPOS>MOLECULE
tmp/4zteA00.pdb
 112 109 0 0 0
SMALL
GASTEIGER

@<TRIPOS>ATOM
      1  N         -2.0650   13.1130   29.8960 N.3     1  ILE1       -0.1231
      2  CA        -0.6160   13.3390   29.6230 C.3     1  ILE1        0.1678
      3  C         -0.1870   12.5900   28.3640 C.2     1  ILE1        0.2434
      4  O          0.0310   11.3800   28.4020 O.2     1  ILE1       -0.2733
      5  CB         0.2520   12.8790   30.8110 C.3     1  ILE1        0.0265
      6  CG1        1.6630   13.4590   30.6960 C.3     1  ILE1        0.0019
      7  CG2        0.3030   11.3590   30.8820 C.3     1  ILE1        0.0020
      8  CD1        2.4160   13.4840   32.0080 C.3     1  ILE1        0.0001
      9  N         -0.1310   13.3020   27.2260 N.am    2  PRO2       -0.2718
     10  CA        -0.0110   12.6620   25.9170 C.3     2  PRO2        0.1520
     11  C          1.2950   11.8870   25.7670 C.2     2  PRO2        0.2440
     12  O          2.0650   11.7870   26.7240 O.2     2  PRO2       -0.2731
     13  CB        -0.0510   13.8440   24.9450 C.3     2  PRO2        0.0310
     14  CG         0.4840   14.9910   25.7280 C.3     2  PRO2        0.0237
     15  CD         0.0630   14.7610   27.1520 C.3     2  PRO2        0.0939
     16  N          1.4930   11.2440   24.6080 N.am    3  PRO3       -0.2716
     17  CA         2.5840   10.2880   24.4690 C.3     3  PRO3        0.1536
     18  C          3.9050   10.8600   24.9690 C.2     3  PRO3        0.2598
     19  O          4.1760   12.0440   24.7800 O.2     3  PRO3       -0.2715
     20  CB         2.6390   10.0320   22.9610 C.3     3  PRO3        0.0310
     21  CG         1.2590   10.3160   22.4800 C.3     3  PRO3        0.0237
     22  CD         0.7440   11.4240   23.3520 C.3     3  PRO3        0.0939
     23  N          4.5820   10.0950   25.8130 N.am    4  ILE4       -0.1964
     24  CA         5.9690   10.3700   26.1390 C.3     4  ILE4        0.1727
     25  C          6.8880    9.7830   25.0700 C.2     4  ILE4        0.2617
     26  O          6.5230    8.8320   24.3860 O.2     4  ILE4       -0.2715
     27  CB         6.3270    9.7820   27.5100 C.3     4  ILE4        0.0290
     28  CG1        5.4760   10.4450   28.5920 C.3     4  ILE4        0.0022
     29  CG2        7.8080    9.9650   27.8050 C.3     4  ILE4        0.0023
     30  CD1        5.4800    9.6900   29.9000 C.3     4  ILE4        0.0001
     31  N          7.9880   10.4760   24.8050 N.am    5  SER5       -0.1936
     32  CA         8.8690   10.1300   23.6990 C.3     5  SER5        0.2055
     33  C         10.3070   10.0610   24.2010 C.2     5  SER5        0.2643
     34  O         10.7720   10.9700   24.8860 O.2     5  SER5       -0.2714
     35  CB         8.7500   11.1730   22.5830 C.3     5  SER5        0.2130
     36  OG         9.5450   10.8290   21.4650 O.3     5  SER5       -0.2179
     37  N         10.9400    8.9090   24.0080 N.am    6  CYS6       -0.1954
     38  CA        12.3230    8.7130   24.4190 C.3     6  CYS6        0.1828
     39  C         13.1110    8.0580   23.2890 C.2     6  CYS6        0.2467
     40  O         12.6380    7.1130   22.6670 O.2     6  CYS6       -0.2730
     41  CB        12.3900    7.8430   25.6790 C.3     6  CYS6        0.0996
     42  SG        14.0470    7.7170   26.4080 S.3     6  CYS6       -0.0797
     43  N         14.2870    8.6140   22.9720 N.am    7  PRO7       -0.2726
     44  CA        15.1530    8.0260   21.9580 C.3     7  PRO7        0.1402
     45  C         15.8300    6.7570   22.4610 C.2     7  PRO7        0.2269
     46  O         16.0840    6.6230   23.6590 O.2     7  PRO7       -0.2865
     47  CB        16.1990    9.1220   21.6970 C.3     7  PRO7        0.0296
     48  CG        15.6790   10.3580   22.3520 C.3     7  PRO7        0.0237
     49  CD        14.8120    9.8940   23.4760 C.3     7  PRO7        0.0939
     50  N         20.2860    5.9390   24.5820 N.3    10  GLU10      -0.1245
     51  CA        20.7450    7.1100   25.3260 C.3    10  GLU10       0.1567
     52  C         21.9060    6.7450   26.2420 C.2    10  GLU10       0.2260
     53  O         21.9660    5.6330   26.7590 O.2    10  GLU10      -0.2867
     54  CB        19.6040    7.7190   26.1380 C.3    10  GLU10       0.0388
     55  CG        18.6610    8.5790   25.3120 C.3    10  GLU10       0.1160
     56  CD        18.0710    9.7310   26.1020 C.2    10  GLU10       0.3649
     57  OE1       17.6400    9.5060   27.2530 O.co2  10  GLU10      -0.2457
     58  OE2       17.9340   10.8350   25.5320 O.co2  10  GLU10      -0.2457
     59  N         16.7480    8.2990   34.5390 N.3    16  LYS16      -0.1231
     60  CA        16.5120    9.5980   33.9220 C.3    16  LYS16       0.1693
     61  C         15.0450    9.9750   34.0540 C.2    16  LYS16       0.2592
     62  O         14.1620    9.1690   33.7610 O.2    16  LYS16      -0.2718
     63  CB        16.8880    9.5610   32.4390 C.3    16  LYS16       0.0285
     64  CG        18.3780    9.6220   32.1660 C.3    16  LYS16       0.0035
     65  CD        18.6510    9.7580   30.6760 C.3    16  LYS16       0.0206
     66  CE        19.9620    9.0970   30.2830 C.3    16  LYS16       0.1093
     67  NZ        21.1370    9.9730   30.5510 N.3    16  LYS16      -0.1314
     68  N         14.7940   11.2220   34.4320 N.am   17  ASN17      -0.1960
     69  CA        13.4320   11.7110   34.6020 C.3    17  ASN17       0.1819
     70  C         12.7290   11.8350   33.2630 C.2    17  ASN17       0.2621
     71  O         13.2880   12.3690   32.3090 O.2    17  ASN17      -0.2715
     72  CB        13.4410   13.0720   35.2970 C.3    17  ASN17       0.1195
     73  CG        13.8740   12.9820   36.7470 C.2    17  ASN17       0.2630
     74  OD1       13.8610   11.9070   37.3460 O.2    17  ASN17      -0.2716
     75  ND2       14.1810   14.1270   37.3410 N.am   17  ASN17      -0.0877
     76  N         11.4940   11.3520   33.2010 N.am   18  LEU18      -0.1963
     77  CA        10.6650   11.5490   32.0230 C.3    18  LEU18       0.1728
     78  C          9.6300   12.6310   32.2870 C.2    18  LEU18       0.2616
     79  O          9.6710   13.7000   31.6840 O.2    18  LEU18      -0.2715
     80  CB         9.9770   10.2430   31.6300 C.3    18  LEU18       0.0311
     81  CG        10.9140    9.1370   31.1380 C.3    18  LEU18       0.0022
     82  CD1       10.1240    7.8930   30.7680 C.3    18  LEU18       0.0001
     83  CD2       11.7370    9.6170   29.9540 C.3    18  LEU18       0.0001
     84  N          8.7860   12.4030   33.2840 N.am   19  VAL19      -0.1977
     85  CA         7.6760   13.3010   33.5500 C.3    19  VAL19       0.1596
     86  C          7.1060   13.0160   34.9340 C.2    19  VAL19       0.2287
     87  O          7.3280   11.9400   35.4890 O.2    19  VAL19      -0.2864
     88  CB         6.5740   13.1400   32.4840 C.3    19  VAL19       0.0276
     89  CG1        5.6570   11.9790   32.8340 C.3    19  VAL19       0.0022
     90  CG2        5.7850   14.4300   32.3320 C.3    19  VAL19       0.0022
     91  N          6.7520    6.2360   23.5030 N.3    94  THR94      -0.1218
     92  CA         7.1680    5.9660   22.1340 C.3    94  THR94       0.1862
     93  C          8.6810    6.0570   22.0460 C.2    94  THR94       0.2287
     94  O          9.2840    6.9990   22.5640 O.2    94  THR94      -0.2866
     95  CB         6.5450    6.9780   21.1550 C.3    94  THR94       0.1770
     96  OG1        5.1170    6.8880   21.2250 O.3    94  THR94      -0.2211
     97  CG2        7.0040    6.6990   19.7220 C.3    94  THR94       0.0375
     98  N         11.9040    6.5250   19.9390 N.3    96  THR96      -0.1218
     99  CA        12.2610    7.1140   18.6500 C.3    96  THR96       0.1862
    100  C         13.6060    6.5900   18.1590 C.2    96  THR96       0.2287
    101  O         14.4770    6.2290   18.9530 O.2    96  THR96      -0.2866
    102  CB        12.3030    8.6550   18.7090 C.3    96  THR96       0.1770
    103  OG1       13.2210    9.0840   19.7200 O.3    96  THR96      -0.2211
    104  CG2       10.9230    9.2210   19.0020 C.3    96  THR96       0.0375
    105  N          9.5420    7.2980    9.5120 N.3   137  ASN137     -0.1240
    106  CA         9.7180    8.5980   10.1520 C.3   137  ASN137      0.1653
    107  C         11.0540    9.2430    9.8130 C.2   137  ASN137      0.2266
    108  O         11.2490   10.4330   10.0620 O.2   137  ASN137     -0.2867
    109  CB         9.6050    8.4570   11.6650 C.3   137  ASN137      0.1155
    110  CG         8.2050    8.1110   12.1110 C.2   137  ASN137      0.2627
    111  OD1        7.2780    8.8980   11.9430 O.2   137  ASN137     -0.2716
    112  ND2        8.0560    6.9580   12.7390 N.am  137  ASN137     -0.0877
@<TRIPOS>BOND
     1   105   106    1
     2   107   108    2
     3   107   106    1
     4   106   109    1
     5   109   110    1
     6   111   110    2
     7   110   112   am
     8   100    99    1
     9   100   101    2
    10    99   102    1
    11    99    98    1
    12   102   104    1
    13   102   103    1
    14    97    95    1
    15    95    96    1
    16    95    92    1
    17    36    35    1
    18    47    44    1
    19    47    48    1
    20    44    45    1
    21    44    43    1
    22    93    92    1
    23    93    94    2
    24    92    91    1
    25    48    49    1
    26    45    46    2
    27    21    20    1
    28    21    22    1
    29    35    32    1
    30    40    39    2
    31    20    17    1
    32    43    39   am
    33    43    49    1
    34    39    38    1
    35    22    16    1
    36    32    33    1
    37    32    31    1
    38    37    33   am
    39    37    38    1
    40    33    34    2
    41    26    25    2
    42    38    41    1
    43    17    16    1
    44    17    18    1
    45    50    51    1
    46    16    11   am
    47    19    18    2
    48    31    25   am
    49    13    14    1
    50    13    10    1
    51    18    23   am
    52    25    24    1
    53    55    56    1
    54    55    54    1
    55    51    54    1
    56    51    52    1
    57    58    56   ar
    58    41    42    1
    59    14    15    1
    60    11    10    1
    61    11    12    2
    62    23    24    1
    63    10     9    1
    64    56    57   ar
    65    24    27    1
    66    52    53    2
    67    15     9    1
    68     9     3   am
    69    27    29    1
    70    27    28    1
    71     3     4    2
    72     3     2    1
    73    28    30    1
    74     2     1    1
    75     2     5    1
    76    83    81    1
    77    66    67    1
    78    66    65    1
    79    65    64    1
    80     6     5    1
    81     6     8    1
    82    82    81    1
    83     5     7    1
    84    81    80    1
    85    80    77    1
    86    79    78    2
    87    77    78    1
    88    77    76    1
    89    64    63    1
    90    78    84   am
    91    71    70    2
    92    90    88    1
    93    63    60    1
    94    88    89    1
    95    88    85    1
    96    76    70   am
    97    70    69    1
    98    84    85    1
    99    85    86    1
   100    62    61    2
   101    60    61    1
   102    60    59    1
   103    61    68   am
   104    68    69    1
   105    69    72    1
   106    86    87    2
   107    72    73    1
   108    73    75   am
   109    73    74    2
