@<TRIPOS>MOLECULE
tmp/4ztfA00.pdb
 98 94 0 0 0
SMALL
GASTEIGER

@<TRIPOS>ATOM
      1  N         32.4340  -35.9300   10.2960 N.3   121  ASP121     -0.1225
      2  CA        32.1190  -35.5360   11.6560 C.3   121  ASP121      0.1805
      3  C         32.0410  -34.0410   11.7490 C.2   121  ASP121      0.2597
      4  O         32.5350  -33.3340   10.8540 O.2   121  ASP121     -0.2718
      5  CB        33.2070  -36.0340   12.6150 C.3   121  ASP121      0.1424
      6  CG        32.7820  -36.0490   14.0580 C.2   121  ASP121      0.3668
      7  OD1       31.5780  -36.2360   14.3200 O.co2 121  ASP121     -0.2456
      8  OD2       33.6470  -35.8590   14.9260 O.co2 121  ASP121     -0.2456
      9  N         31.4270  -33.5640   12.8540 N.am  122  TYR122     -0.1976
     10  CA        31.2810  -32.1620   13.1790 C.3   122  TYR122      0.1639
     11  C         32.1640  -31.7700   14.3740 C.2   122  TYR122      0.2290
     12  O         32.3770  -32.5680   15.2950 O.2   122  TYR122     -0.2864
     13  CB        29.8110  -31.8250   13.4760 C.3   122  TYR122      0.0560
     14  CG        29.0330  -31.4490   12.2390 C.ar  122  TYR122     -0.0198
     15  CD1       29.1920  -30.1990   11.6430 C.ar  122  TYR122     -0.0009
     16  CD2       28.1410  -32.3440   11.6520 C.ar  122  TYR122     -0.0009
     17  CE1       28.4840  -29.8530   10.4890 C.ar  122  TYR122      0.0417
     18  CE2       27.4330  -32.0140   10.4940 C.ar  122  TYR122      0.0417
     19  CZ        27.6030  -30.7660    9.9190 C.ar  122  TYR122      0.1957
     20  OH        26.9270  -30.4460    8.7670 O.3   122  TYR122     -0.2866
     21  N         29.3140  -41.0600   12.6160 N.3   178  ASP178     -0.1225
     22  CA        28.8160  -41.4510   13.9330 C.3   178  ASP178      0.1805
     23  C         27.2730  -41.4130   13.8750 C.2   178  ASP178      0.2598
     24  O         26.7150  -41.2650   12.7780 O.2   178  ASP178     -0.2718
     25  CB        29.4300  -40.6090   15.0930 C.3   178  ASP178      0.1424
     26  CG        29.2920  -39.0850   15.0670 C.2   178  ASP178      0.3668
     27  OD1       28.2710  -38.5830   14.5510 O.co2 178  ASP178     -0.2456
     28  OD2       30.1910  -38.4000   15.5940 O.co2 178  ASP178     -0.2456
     29  N         26.5860  -41.5440   15.0200 N.am  179  GLN179     -0.1965
     30  CA        25.1230  -41.5400   14.9890 C.3   179  GLN179      0.1733
     31  C         24.5110  -40.1630   15.3600 C.2   179  GLN179      0.2617
     32  O         23.4120  -40.0780   15.9210 O.2   179  GLN179     -0.2715
     33  CB        24.5430  -42.7020   15.8000 C.3   179  GLN179      0.0408
     34  CG        24.9780  -44.0610   15.2250 C.3   179  GLN179      0.0908
     35  CD        24.2880  -45.2490   15.8420 C.2   179  GLN179      0.2608
     36  OE1       23.2050  -45.1440   16.4520 O.2   179  GLN179     -0.2717
     37  NE2       24.8970  -46.4180   15.6890 N.am  179  GLN179     -0.0878
     38  N         25.2140  -39.1010   14.9770 N.am  180  GLY180     -0.1940
     39  CA        24.7410  -37.7460   15.1790 C.3   180  GLY180      0.2014
     40  C         23.5000  -37.5220   14.3430 C.2   180  GLY180      0.2638
     41  O         23.4040  -38.0250   13.2130 O.2   180  GLY180     -0.2714
     42  N         22.5240  -36.7840   14.9060 N.am  181  ALA181     -0.1977
     43  CA        21.2510  -36.4440   14.2530 C.3   181  ALA181      0.1597
     44  C         21.4050  -36.1110   12.7570 C.2   181  ALA181      0.2287
     45  O         20.6490  -36.6420   11.9580 O.2   181  ALA181     -0.2864
     46  CB        20.5940  -35.2840   14.9820 C.3   181  ALA181      0.0319
     47  N         28.0290  -43.8860   20.7650 N.3   205  TYR205     -0.1241
     48  CA        28.8770  -43.3390   21.8430 C.3   205  TYR205      0.1605
     49  C         30.2510  -44.0090   21.9230 C.2   205  TYR205      0.2264
     50  O         30.7020  -44.4080   22.9990 O.2   205  TYR205     -0.2867
     51  CB        28.1510  -43.3770   23.1910 C.3   205  TYR205      0.0534
     52  CG        26.7380  -42.8490   23.1310 C.ar  205  TYR205     -0.0201
     53  CD1       26.4800  -41.4830   23.1910 C.ar  205  TYR205     -0.0009
     54  CD2       25.6550  -43.7170   23.0180 C.ar  205  TYR205     -0.0009
     55  CE1       25.1770  -40.9900   23.1640 C.ar  205  TYR205      0.0417
     56  CE2       24.3460  -43.2390   22.9730 C.ar  205  TYR205      0.0417
     57  CZ        24.1090  -41.8720   23.0460 C.ar  205  TYR205      0.1957
     58  OH        22.8050  -41.4020   23.0050 O.3   205  TYR205     -0.2866
     59  N         33.4160  -42.7560   19.7750 N.3   207  PRO207     -0.2102
     60  CA        34.0630  -41.9540   18.7240 C.3   207  PRO207      0.1504
     61  C         35.3790  -42.5290   18.1740 C.2   207  PRO207      0.2575
     62  O         35.8160  -42.1010   17.1110 O.2   207  PRO207     -0.2718
     63  CB        34.2020  -40.5870   19.3620 C.3   207  PRO207      0.0282
     64  CG        34.1720  -40.8350   20.8360 C.3   207  PRO207      0.0208
     65  CD        33.3230  -42.0110   21.0510 C.3   207  PRO207      0.0893
     66  N         35.9590  -43.5440   18.8320 N.am  208  GLN208     -0.1980
     67  CA        37.1610  -44.2410   18.3670 C.3   208  GLN208      0.1601
     68  C         36.8670  -44.9120   17.0230 C.2   208  GLN208      0.2287
     69  O         37.7930  -45.1590   16.2350 O.2   208  GLN208     -0.2864
     70  CB        37.5500  -45.3470   19.3540 C.3   208  GLN208      0.0394
     71  CG        38.0390  -44.8270   20.6900 C.3   208  GLN208      0.0908
     72  CD        36.9580  -44.7120   21.7280 C.2   208  GLN208      0.2608
     73  OE1       35.9430  -44.0290   21.5610 O.2   208  GLN208     -0.2717
     74  NE2       37.1700  -45.3750   22.8480 N.am  208  GLN208     -0.0878
     75  N         37.6620  -42.8270   14.4480 N.3   211  GLY211     -0.1225
     76  CA        39.0560  -42.5120   14.7570 C.3   211  GLY211      0.1811
     77  C         39.7930  -41.6810   13.7330 C.2   211  GLY211      0.2280
     78  O         40.4580  -40.7040   14.0930 O.2   211  GLY211     -0.2866
     79  N         38.2420  -38.1650   13.7720 N.3   214  GLU214     -0.1245
     80  CA        38.4000  -37.6360   15.1150 C.3   214  GLU214      0.1567
     81  C         39.7790  -37.1040   15.2670 C.2   214  GLU214      0.2260
     82  O         39.9520  -35.9490   15.6580 O.2   214  GLU214     -0.2867
     83  CB        38.0790  -38.6830   16.1810 C.3   214  GLU214      0.0388
     84  CG        36.6070  -39.0150   16.3410 C.3   214  GLU214      0.1160
     85  CD        35.6110  -37.8790   16.4720 C.2   214  GLU214      0.3649
     86  OE1       36.0160  -36.6960   16.5830 O.co2 214  GLU214     -0.2457
     87  OE2       34.3990  -38.1840   16.4570 O.co2 214  GLU214     -0.2457
     88  N         23.5760  -41.1180   28.9480 N.3   322  ARG322     -0.1245
     89  CA        23.6780  -39.8600   29.6900 C.3   322  ARG322      0.1563
     90  C         23.1210  -40.1090   31.1040 C.2   322  ARG322      0.2260
     91  O         21.9680  -39.7560   31.3900 O.2   322  ARG322     -0.2867
     92  CB        22.9240  -38.7400   28.9360 C.3   322  ARG322      0.0307
     93  CG        23.3940  -37.3270   29.3120 C.3   322  ARG322      0.0489
     94  CD        24.5920  -36.8000   28.5360 C.3   322  ARG322      0.2205
     95  NE        24.2890  -36.6120   27.1110 N.pl3 322  ARG322     -0.0865
     96  CZ        24.5020  -37.5560   26.2200 C.cat 322  ARG322      0.5346
     97  NH1       25.0080  -38.6970   26.6480 N.pl3 322  ARG322      0.1354
     98  NH2       24.2310  -37.4110   24.9220 N.pl3 322  ARG322      0.1354
@<TRIPOS>BOND
     1    20    19    1
     2    19    17   ar
     3    19    18   ar
     4     1     2    1
     5    17    15   ar
     6    18    16   ar
     7     4     3    2
     8    15    14   ar
     9    16    14   ar
    10     2     3    1
    11     2     5    1
    12     3     9   am
    13    45    44    2
    14    14    13    1
    15     5     6    1
    16    21    22    1
    17    44    43    1
    18    24    23    2
    19     9    10    1
    20    10    13    1
    21    10    11    1
    22    41    40    2
    23    77    78    2
    24    77    76    1
    25    79    80    1
    26    23    22    1
    27    23    29   am
    28    22    25    1
    29     6     7   ar
    30     6     8   ar
    31    43    42    1
    32    43    46    1
    33    40    42   am
    34    40    39    1
    35    11    12    2
    36    75    76    1
    37    27    26   ar
    38    38    39    1
    39    38    31   am
    40    30    29    1
    41    30    31    1
    42    30    33    1
    43    26    25    1
    44    26    28   ar
    45    80    81    1
    46    80    83    1
    47    34    33    1
    48    34    35    1
    49    81    82    2
    50    31    32    2
    51    37    35   am
    52    35    36    2
    53    83    84    1
    54    69    68    2
    55    84    85    1
    56    87    85   ar
    57    85    86   ar
    58    68    67    1
    59    62    61    2
    60    61    60    1
    61    61    66   am
    62    67    66    1
    63    67    70    1
    64    60    63    1
    65    60    59    1
    66    70    71    1
    67    63    64    1
    68    59    65    1
    69    71    72    1
    70    47    48    1
    71    64    65    1
    72    73    72    2
    73    72    74   am
    74    48    49    1
    75    48    51    1
    76    49    50    2
    77    56    54   ar
    78    56    57   ar
    79    58    57    1
    80    54    52   ar
    81    57    55   ar
    82    52    53   ar
    83    52    51    1
    84    55    53   ar
    85    98    96    1
    86    96    97    1
    87    96    95    2
    88    95    94    1
    89    94    93    1
    90    92    93    1
    91    92    89    1
    92    88    89    1
    93    89    90    1
    94    90    91    2
