@<TRIPOS>MOLECULE
tmp/4zthA00.pdb
 151 140 0 0 0
SMALL
GASTEIGER

@<TRIPOS>ATOM
      1  N         -8.1440    2.1030   28.2470 N.3    27  VAL27      -0.1245
      2  CA        -6.7620    1.7450   28.4420 C.3    27  VAL27       0.1561
      3  C         -5.9260    2.9930   28.5950 C.2    27  VAL27       0.2260
      4  O         -4.8900    2.9650   29.2300 O.2    27  VAL27      -0.2867
      5  CB        -6.2650    0.9040   27.2550 C.3    27  VAL27       0.0252
      6  CG1       -4.7400    0.7580   27.2540 C.3    27  VAL27       0.0019
      7  CG2       -6.9470   -0.4500   27.2780 C.3    27  VAL27       0.0019
      8  N         -8.2720    4.8130   23.6630 N.3    35  VAL35      -0.1245
      9  CA        -8.2860    3.4360   23.4030 C.3    35  VAL35       0.1561
     10  C         -9.0120    2.7320   24.5320 C.2    35  VAL35       0.2260
     11  O         -8.8690    3.0980   25.7130 O.2    35  VAL35      -0.2867
     12  CB        -6.8110    2.9230   23.3350 C.3    35  VAL35       0.0252
     13  CG1       -6.7250    1.4070   23.2100 C.3    35  VAL35       0.0019
     14  CG2       -6.0500    3.6070   22.1810 C.3    35  VAL35       0.0019
     15  N         -8.0640   -4.0970   20.9080 N.3    48  ALA48      -0.1245
     16  CA        -8.0080   -2.7070   21.3380 C.3    48  ALA48       0.1562
     17  C         -8.7450   -1.8850   20.2530 C.2    48  ALA48       0.2260
     18  O         -8.5500   -2.1020   19.0290 O.2    48  ALA48      -0.2867
     19  CB        -6.5280   -2.2880   21.4880 C.3    48  ALA48       0.0290
     20  N         -9.4070    2.0040   19.0770 N.3    50  LYS50      -0.1245
     21  CA        -9.0210    3.3890   19.2340 C.3    50  LYS50       0.1561
     22  C        -10.0480    4.2980   18.5430 C.2    50  LYS50       0.2260
     23  O        -10.3780    4.0880   17.3400 O.2    50  LYS50      -0.2867
     24  CB        -7.6590    3.6100   18.6190 C.3    50  LYS50       0.0271
     25  CG        -7.1350    5.0790   18.5160 C.3    50  LYS50       0.0035
     26  CD        -5.7810    4.9470   17.7850 C.3    50  LYS50       0.0206
     27  CE        -4.8560    6.1330   17.7690 C.3    50  LYS50       0.1093
     28  NZ        -3.4790    5.6080   17.3960 N.3    50  LYS50      -0.1314
     29  N         -2.9360    7.9130    8.9470 N.3    68  GLU68      -0.1245
     30  CA        -2.9620    6.7920    9.8770 C.3    68  GLU68       0.1567
     31  C         -3.7790    5.6330    9.3600 C.2    68  GLU68       0.2260
     32  O         -3.3590    4.4990    9.4830 O.2    68  GLU68      -0.2867
     33  CB        -3.4930    7.2120   11.2450 C.3    68  GLU68       0.0388
     34  CG        -3.3900    6.0410   12.2160 C.3    68  GLU68       0.1160
     35  CD        -3.6360    6.3750   13.6570 C.2    68  GLU68       0.3649
     36  OE1       -3.4120    5.4870   14.4970 O.co2  68  GLU68      -0.2457
     37  OE2       -4.0880    7.4920   13.9410 O.co2  68  GLU68      -0.2457
     38  N         -2.1040    1.9910    8.5470 N.3    72  LEU72      -0.1245
     39  CA        -2.5580    0.8340    9.2750 C.3    72  LEU72       0.1561
     40  C         -3.2380   -0.1750    8.3600 C.2    72  LEU72       0.2260
     41  O         -3.1830   -1.3690    8.6220 O.2    72  LEU72      -0.2867
     42  CB        -3.4680    1.2260   10.4380 C.3    72  LEU72       0.0270
     43  CG        -2.8070    1.8660   11.6730 C.3    72  LEU72       0.0019
     44  CD1       -3.8530    2.4410   12.5920 C.3    72  LEU72       0.0001
     45  CD2       -1.9990    0.8770   12.4490 C.3    72  LEU72       0.0001
     46  N          1.9080   -3.2620   14.2970 N.3    81  ILE81      -0.1245
     47  CA         0.4890   -3.0970   14.5850 C.3    81  ILE81       0.1561
     48  C         -0.2620   -2.9180   13.2760 C.2    81  ILE81       0.2260
     49  O          0.1070   -2.0360   12.4370 O.2    81  ILE81      -0.2867
     50  CB         0.2670   -1.8190   15.4190 C.3    81  ILE81       0.0252
     51  CG1        0.7970   -2.0420   16.8340 C.3    81  ILE81       0.0019
     52  CG2       -1.2210   -1.4840   15.5290 C.3    81  ILE81       0.0019
     53  CD1       -0.1000   -2.9310   17.6970 C.3    81  ILE81       0.0001
     54  N         -4.4420   -3.6750   11.1680 N.3    83  LEU83      -0.1245
     55  CA        -5.9100   -3.5440   11.3880 C.3    83  LEU83       0.1561
     56  C         -6.7310   -4.7920   11.3050 C.2    83  LEU83       0.2260
     57  O         -6.7330   -5.4510   10.2700 O.2    83  LEU83      -0.2867
     58  CB        -6.5090   -2.6210   10.3560 C.3    83  LEU83       0.0270
     59  CG        -6.2910   -1.1450   10.5430 C.3    83  LEU83       0.0019
     60  CD1       -6.9690   -0.4260    9.3790 C.3    83  LEU83       0.0001
     61  CD2       -6.8260   -0.6450   11.9030 C.3    83  LEU83       0.0001
     62  N        -10.5960    2.4560   15.0560 N.3   101  LEU101     -0.1231
     63  CA        -9.6320    1.4570   14.5520 C.3   101  LEU101      0.1693
     64  C         -9.5270    0.3340   15.5610 C.2   101  LEU101      0.2592
     65  O         -9.4440    0.5920   16.7450 O.2   101  LEU101     -0.2718
     66  CB        -8.2570    2.1070   14.4650 C.3   101  LEU101      0.0284
     67  CG        -8.2930    3.3970   13.6470 C.3   101  LEU101      0.0019
     68  CD1       -7.0070    4.1790   13.8790 C.3   101  LEU101      0.0001
     69  CD2       -8.4840    3.1140   12.1910 C.3   101  LEU101      0.0001
     70  N         -9.4230   -0.8860   15.0850 N.am  102  VAL102     -0.1966
     71  CA        -9.3720   -2.0640   15.9380 C.3   102  VAL102      0.1727
     72  C         -8.1300   -2.8800   15.6140 C.2   102  VAL102      0.2617
     73  O         -7.8210   -3.0990   14.4480 O.2   102  VAL102     -0.2715
     74  CB       -10.6410   -2.9480   15.7050 C.3   102  VAL102      0.0290
     75  CG1      -10.6570   -4.1250   16.6650 C.3   102  VAL102      0.0023
     76  CG2      -11.9480   -2.1170   15.8200 C.3   102  VAL102      0.0023
     77  N         -7.4500   -3.3810   16.6460 N.am  103  THR103     -0.1937
     78  CA        -6.2830   -4.2980   16.4620 C.3   103  THR103      0.2028
     79  C         -6.2050   -5.2410   17.6400 C.2   103  THR103      0.2642
     80  O         -6.8960   -5.0130   18.6600 O.2   103  THR103     -0.2714
     81  CB        -4.9460   -3.5200   16.3240 C.3   103  THR103      0.1808
     82  OG1       -3.8730   -4.3950   15.8640 O.3   103  THR103     -0.2208
     83  CG2       -4.5520   -2.8600   17.6270 C.3   103  THR103      0.0379
     84  N         -5.3580   -6.2680   17.5220 N.am  104  HIS104     -0.1959
     85  CA        -5.1900   -7.2240   18.5920 C.3   104  HIS104      0.1787
     86  C         -4.8380   -6.4210   19.8250 C.2   104  HIS104      0.2620
     87  O         -4.1390   -5.4090   19.7300 O.2   104  HIS104     -0.2715
     88  CB        -4.0450   -8.1900   18.3110 C.3   104  HIS104      0.0785
     89  CG        -4.2700   -9.1400   17.1720 C.ar  104  HIS104      0.0821
     90  ND1       -3.8660   -8.8670   15.8790 N.ar  104  HIS104     -0.2267
     91  CD2       -4.7330  -10.4100   17.1540 C.ar  104  HIS104      0.1154
     92  CE1       -4.1230   -9.9110   15.1090 C.ar  104  HIS104      0.1986
     93  NE2       -4.6640  -10.8540   15.8550 N.ar  104  HIS104     -0.2212
     94  N         -5.3620   -6.8140   20.9730 N.am  105  LEU105     -0.1963
     95  CA        -4.9860   -6.1660   22.2170 C.3   105  LEU105      0.1728
     96  C         -3.5500   -6.5720   22.6440 C.2   105  LEU105      0.2616
     97  O         -3.2180   -7.7470   22.6320 O.2   105  LEU105     -0.2715
     98  CB        -5.9500   -6.5460   23.3130 C.3   105  LEU105      0.0311
     99  CG        -5.7200   -5.8830   24.6620 C.3   105  LEU105      0.0022
    100  CD1       -5.8170   -4.3750   24.5520 C.3   105  LEU105      0.0001
    101  CD2       -6.7600   -6.4420   25.6530 C.3   105  LEU105      0.0001
    102  N         -2.7250   -5.5720   22.9840 N.am  106  MET106     -0.1977
    103  CA        -1.3490   -5.7730   23.4640 C.3   106  MET106      0.1605
    104  C         -1.3690   -5.1350   24.8660 C.2   106  MET106      0.2287
    105  O         -1.4950   -3.9330   25.0100 O.2   106  MET106     -0.2864
    106  CB        -0.3370   -5.0620   22.5520 C.3   106  MET106      0.0413
    107  CG        -0.3190   -5.5330   21.0820 C.3   106  MET106      0.0598
    108  SD         0.1980   -7.2670   20.8380 S.3   106  MET106     -0.1393
    109  CE         1.9780   -7.2230   21.1440 C.3   106  MET106      0.0692
    110  N          7.5120    3.4800   24.6140 N.3   151  SER151     -0.1217
    111  CA         6.0330    3.5760   24.6080 C.3   151  SER151      0.1889
    112  C          5.4020    3.3050   23.2660 C.2   151  SER151      0.2288
    113  O          4.2130    3.1030   23.2130 O.2   151  SER151     -0.2866
    114  CB         5.6000    4.9570   25.0810 C.3   151  SER151      0.2089
    115  OG         5.9420    5.8950   24.0810 O.3   151  SER151     -0.2183
    116  N          4.6290   -2.1070   21.5970 N.3   154  ALA154     -0.1245
    117  CA         3.6370   -2.9020   22.3380 C.3   154  ALA154      0.1562
    118  C          4.2030   -4.3110   22.5040 C.2   154  ALA154      0.2260
    119  O          4.8160   -4.8840   21.5730 O.2   154  ALA154     -0.2867
    120  CB         2.2920   -2.9080   21.5670 C.3   154  ALA154      0.0290
    121  N          4.1650    0.2230   17.1660 N.3   164  LEU164     -0.1245
    122  CA         3.0370    1.1190   16.9800 C.3   164  LEU164      0.1561
    123  C          3.5530    2.2760   16.1380 C.2   164  LEU164      0.2260
    124  O          4.5460    2.9500   16.5350 O.2   164  LEU164     -0.2867
    125  CB         2.6250    1.7260   18.2970 C.3   164  LEU164      0.0270
    126  CG         1.7090    1.0060   19.2130 C.3   164  LEU164      0.0019
    127  CD1        1.8550    1.6290   20.5980 C.3   164  LEU164      0.0001
    128  CD2        0.2770    1.2030   18.6660 C.3   164  LEU164      0.0001
    129  N          1.6790    4.9550   15.2010 N.3   166  PHE166     -0.1227
    130  CA         1.0700    6.1290   15.8350 C.3   166  PHE166      0.1736
    131  C          0.5590    5.7950   17.2350 C.2   166  PHE166      0.2596
    132  O         -0.2820    4.8890   17.3910 O.2   166  PHE166     -0.2718
    133  CB        -0.0940    6.6990   14.9700 C.3   166  PHE166      0.0547
    134  CG         0.3410    7.1760   13.6030 C.ar  166  PHE166     -0.0202
    135  CD1        0.1880    6.3740   12.5060 C.ar  166  PHE166     -0.0042
    136  CD2        0.9680    8.4110   13.4380 C.ar  166  PHE166     -0.0042
    137  CE1        0.6020    6.7900   11.2680 C.ar  166  PHE166     -0.0003
    138  CE2        1.4050    8.8200   12.1930 C.ar  166  PHE166     -0.0003
    139  CZ         1.2040    8.0040   11.1030 C.ar  166  PHE166     -0.0000
    140  N          1.0900    6.5080   18.2380 N.am  167  GLY167     -0.1942
    141  CA         0.5850    6.4240   19.6150 C.3   167  GLY167      0.2014
    142  C         -0.6460    7.3430   19.8690 C.2   167  GLY167      0.2638
    143  O         -1.5160    7.5220   19.0000 O.2   167  GLY167     -0.2714
    144  N         -0.7120    7.9060   21.0760 N.am  168  LEU168     -0.1977
    145  CA        -1.7870    8.7990   21.4930 C.3   168  LEU168      0.1596
    146  C         -1.1780   10.1750   21.7940 C.2   168  LEU168      0.2287
    147  O         -1.7140   11.2080   21.3830 O.2   168  LEU168     -0.2864
    148  CB        -2.4950    8.2320   22.7400 C.3   168  LEU168      0.0297
    149  CG        -3.1580    6.8410   22.5790 C.3   168  LEU168      0.0022
    150  CD1       -3.8190    6.3080   23.8620 C.3   168  LEU168      0.0001
    151  CD2       -4.1710    6.9250   21.4380 C.3   168  LEU168      0.0001
@<TRIPOS>BOND
     1    40    41    2
     2    40    39    1
     3    38    39    1
     4    29    30    1
     5    39    42    1
     6    31    32    2
     7    31    30    1
     8    60    59    1
     9    30    33    1
    10    57    56    2
    11    58    59    1
    12    58    55    1
    13    42    43    1
    14    59    61    1
    15   139   137   ar
    16   139   138   ar
    17    54    55    1
    18    33    34    1
    19   137   135   ar
    20    56    55    1
    21    43    45    1
    22    43    44    1
    23    69    67    1
    24   138   136   ar
    25    34    35    1
    26    49    48    2
    27   135   134   ar
    28    48    47    1
    29   136   134   ar
    30   134   133    1
    31    67    68    1
    32    67    66    1
    33    35    37   ar
    34    35    36   ar
    35    46    47    1
    36    73    72    2
    37    66    63    1
    38    63    62    1
    39    63    64    1
    40    47    50    1
    41   133   130    1
    42    70    64   am
    43    70    71    1
    44    92    93   ar
    45    92    90   ar
    46   129   130    1
    47    50    52    1
    48    50    51    1
    49    64    65    2
    50    72    71    1
    51    72    77   am
    52    74    76    1
    53    74    71    1
    54    74    75    1
    55   130   131    1
    56    93    91   ar
    57    82    81    1
    58    90    89   ar
    59   123   124    2
    60   123   122    1
    61    81    78    1
    62    81    83    1
    63    78    77    1
    64    78    79    1
    65    51    53    1
    66   122   121    1
    67   122   125    1
    68    91    89   ar
    69    89    88    1
    70   131   132    2
    71   131   140   am
    72    23    22    2
    73    28    27    1
    74    84    79   am
    75    84    85    1
    76    79    80    2
    77    27    26    1
    78    26    25    1
    79   140   141    1
    80   125   126    1
    81    88    85    1
    82    25    24    1
    83    22    21    1
    84    85    86    1
    85    24    21    1
    86   128   126    1
    87   143   142    2
    88    18    17    2
    89    20    21    1
    90   126   127    1
    91   141   142    1
    92    87    86    2
    93    86    94   am
    94   142   144   am
    95    17    16    1
    96   108   107    1
    97   108   109    1
    98    15    16    1
    99    94    95    1
   100   144   145    1
   101   107   106    1
   102    16    19    1
   103   147   146    2
   104   151   149    1
   105   145   146    1
   106   145   148    1
   107   120   117    1
   108   119   118    2
   109   116   117    1
   110    14    12    1
   111    95    96    1
   112    95    98    1
   113   117   118    1
   114   106   103    1
   115   149   148    1
   116   149   150    1
   117    97    96    2
   118    96   102   am
   119   102   103    1
   120    13    12    1
   121   113   112    2
   122   112   111    1
   123    98    99    1
   124    12     9    1
   125     9     8    1
   126     9    10    1
   127   103   104    1
   128   115   114    1
   129    10    11    2
   130   100    99    1
   131   111   110    1
   132   111   114    1
   133    99   101    1
   134   104   105    2
   135     6     5    1
   136     5     7    1
   137     5     2    1
   138     1     2    1
   139     2     3    1
   140     3     4    2
