@<TRIPOS>MOLECULE
tmp/4ztjA00.pdb
 116 113 0 0 0
SMALL
GASTEIGER

@<TRIPOS>ATOM
      1  N         32.0330  -35.5600   10.3190 N.3   121  ASP121     -0.1225
      2  CA        31.7390  -35.1710   11.6930 C.3   121  ASP121      0.1805
      3  C         31.6410  -33.6790   11.8100 C.2   121  ASP121      0.2597
      4  O         32.1060  -32.9670   10.9240 O.2   121  ASP121     -0.2718
      5  CB        32.8540  -35.6760   12.6320 C.3   121  ASP121      0.1424
      6  CG        32.4290  -35.7150   14.0670 C.2   121  ASP121      0.3668
      7  OD1       31.2170  -35.8980   14.3240 O.co2 121  ASP121     -0.2456
      8  OD2       33.2940  -35.5500   14.9360 O.co2 121  ASP121     -0.2456
      9  N         31.0610  -33.2060   12.9140 N.am  122  TYR122     -0.1976
     10  CA        30.9250  -31.7950   13.2140 C.3   122  TYR122      0.1639
     11  C         31.7940  -31.3930   14.4060 C.2   122  TYR122      0.2290
     12  O         31.8880  -32.1370   15.3880 O.2   122  TYR122     -0.2864
     13  CB        29.4540  -31.4440   13.5320 C.3   122  TYR122      0.0560
     14  CG        28.6480  -31.0560   12.3180 C.ar  122  TYR122     -0.0198
     15  CD1       28.8000  -29.8070   11.7240 C.ar  122  TYR122     -0.0009
     16  CD2       27.7220  -31.9390   11.7600 C.ar  122  TYR122     -0.0009
     17  CE1       28.0710  -29.4560   10.5840 C.ar  122  TYR122      0.0417
     18  CE2       26.9890  -31.5990   10.6220 C.ar  122  TYR122      0.0417
     19  CZ        27.1700  -30.3590   10.0360 C.ar  122  TYR122      0.1957
     20  OH        26.4620  -30.0330    8.9080 O.3   122  TYR122     -0.2866
     21  N         28.8060  -40.7690   12.8250 N.3   178  ASP178     -0.1225
     22  CA        28.2460  -41.1640   14.1220 C.3   178  ASP178      0.1805
     23  C         26.7230  -41.0370   13.9780 C.2   178  ASP178      0.2598
     24  O         26.2430  -40.6810   12.8950 O.2   178  ASP178     -0.2718
     25  CB        28.7980  -40.3050   15.3050 C.3   178  ASP178      0.1424
     26  CG        28.6970  -38.7900   15.1790 C.2   178  ASP178      0.3668
     27  OD1       27.6360  -38.2960   14.7370 O.co2 178  ASP178     -0.2456
     28  OD2       29.6770  -38.0980   15.5290 O.co2 178  ASP178     -0.2456
     29  N         25.9710  -41.2890   15.0610 N.am  179  GLN179     -0.1965
     30  CA        24.5120  -41.2360   15.0040 C.3   179  GLN179      0.1733
     31  C         23.9330  -39.8680   15.4000 C.2   179  GLN179      0.2617
     32  O         22.8910  -39.7790   16.0520 O.2   179  GLN179     -0.2715
     33  CB        23.8790  -42.4010   15.7740 C.3   179  GLN179      0.0408
     34  CG        24.3420  -43.7700   15.2170 C.3   179  GLN179      0.0908
     35  CD        23.7430  -44.9360   15.9410 C.2   179  GLN179      0.2608
     36  OE1       22.6350  -44.8670   16.4710 O.2   179  GLN179     -0.2717
     37  NE2       24.4430  -46.0490   15.9810 N.am  179  GLN179     -0.0878
     38  N         24.5770  -38.8140   14.9330 N.am  180  GLY180     -0.1940
     39  CA        24.0890  -37.4650   15.1550 C.3   180  GLY180      0.2014
     40  C         22.8760  -37.1700   14.2880 C.2   180  GLY180      0.2638
     41  O         22.7980  -37.6320   13.1390 O.2   180  GLY180     -0.2714
     42  N         21.9200  -36.3810   14.8360 N.am  181  ALA181     -0.1977
     43  CA        20.6790  -35.9680   14.1760 C.3   181  ALA181      0.1597
     44  C         20.8690  -35.5820   12.7010 C.2   181  ALA181      0.2287
     45  O         20.0570  -35.9900   11.8780 O.2   181  ALA181     -0.2864
     46  CB        20.0440  -34.8200   14.9360 C.3   181  ALA181      0.0319
     47  N         27.4390  -43.6540   20.9520 N.3   205  TYR205     -0.1227
     48  CA        28.3620  -43.0840   21.9510 C.3   205  TYR205      0.1736
     49  C         29.7480  -43.7550   21.9950 C.2   205  TYR205      0.2595
     50  O         30.1870  -44.2010   23.0530 O.2   205  TYR205     -0.2718
     51  CB        27.6840  -43.1120   23.3410 C.3   205  TYR205      0.0548
     52  CG        26.2860  -42.5270   23.3600 C.ar  205  TYR205     -0.0200
     53  CD1       26.0880  -41.1520   23.4270 C.ar  205  TYR205     -0.0009
     54  CD2       25.1600  -43.3490   23.3080 C.ar  205  TYR205     -0.0009
     55  CE1       24.8030  -40.6030   23.4530 C.ar  205  TYR205      0.0417
     56  CE2       23.8670  -42.8140   23.3160 C.ar  205  TYR205      0.0417
     57  CZ        23.6920  -41.4360   23.3880 C.ar  205  TYR205      0.1957
     58  OH        22.4250  -40.8730   23.4180 O.3   205  TYR205     -0.2866
     59  N         30.4160  -43.8400   20.8230 N.am  206  HIS206     -0.1962
     60  CA        31.7330  -44.4320   20.6190 C.3   206  HIS206      0.1772
     61  C         32.4960  -43.6310   19.5410 C.2   206  HIS206      0.2462
     62  O         32.6670  -44.1150   18.4120 O.2   206  HIS206     -0.2730
     63  CB        31.6070  -45.9090   20.2250 C.3   206  HIS206      0.0785
     64  CG        32.8790  -46.6610   20.4120 C.ar  206  HIS206      0.0821
     65  ND1       33.6370  -47.0690   19.3290 N.ar  206  HIS206     -0.2267
     66  CD2       33.5170  -47.0040   21.5590 C.ar  206  HIS206      0.1154
     67  CE1       34.6920  -47.6790   19.8430 C.ar  206  HIS206      0.1986
     68  NE2       34.6730  -47.6440   21.1850 N.ar  206  HIS206     -0.2212
     69  N         32.9910  -42.4010   19.8710 N.am  207  PRO207     -0.2716
     70  CA        33.6600  -41.5850   18.8430 C.3   207  PRO207      0.1536
     71  C         34.9300  -42.1900   18.2360 C.2   207  PRO207      0.2598
     72  O         35.3360  -41.7820   17.1430 O.2   207  PRO207     -0.2715
     73  CB        33.8860  -40.2600   19.5360 C.3   207  PRO207      0.0310
     74  CG        33.8230  -40.5600   20.9920 C.3   207  PRO207      0.0237
     75  CD        32.8510  -41.6540   21.1380 C.3   207  PRO207      0.0939
     76  N         35.5140  -43.1960   18.8840 N.am  208  GLN208     -0.1978
     77  CA        36.6950  -43.9070   18.3920 C.3   208  GLN208      0.1601
     78  C         36.4100  -44.5710   17.0220 C.2   208  GLN208      0.2287
     79  O         37.3210  -44.7100   16.1950 O.2   208  GLN208     -0.2864
     80  CB        37.1100  -44.9710   19.4080 C.3   208  GLN208      0.0394
     81  CG        37.5720  -44.3960   20.7460 C.3   208  GLN208      0.0908
     82  CD        36.4910  -44.3360   21.7920 C.2   208  GLN208      0.2608
     83  OE1       35.4160  -43.7640   21.5990 O.2   208  GLN208     -0.2717
     84  NE2       36.7570  -44.9240   22.9420 N.am  208  GLN208     -0.0878
     85  N         37.1770  -42.3810   14.5370 N.3   211  GLY211     -0.1225
     86  CA        38.5600  -42.0110   14.8450 C.3   211  GLY211      0.1811
     87  C         39.3400  -41.2800   13.7760 C.2   211  GLY211      0.2280
     88  O         40.1280  -40.3810   14.0890 O.2   211  GLY211     -0.2866
     89  N         37.7820  -37.8450   13.8550 N.3   214  GLU214     -0.1245
     90  CA        37.9860  -37.2810   15.1850 C.3   214  GLU214      0.1567
     91  C         39.3730  -36.7720   15.3290 C.2   214  GLU214      0.2260
     92  O         39.5760  -35.6350   15.7750 O.2   214  GLU214     -0.2867
     93  CB        37.6750  -38.2920   16.2810 C.3   214  GLU214      0.0388
     94  CG        36.2020  -38.6620   16.3680 C.3   214  GLU214      0.1160
     95  CD        35.1860  -37.5540   16.5720 C.2   214  GLU214      0.3649
     96  OE1       35.5660  -36.3650   16.6630 O.co2 214  GLU214     -0.2457
     97  OE2       33.9870  -37.8890   16.6390 O.co2 214  GLU214     -0.2457
     98  N         39.9520  -33.5290   13.6390 N.3   217  ASN217     -0.1240
     99  CA        39.3270  -32.4590   14.4020 C.3   217  ASN217      0.1653
    100  C         40.3600  -31.8630   15.3710 C.2   217  ASN217      0.2266
    101  O         40.3880  -30.6470   15.5590 O.2   217  ASN217     -0.2867
    102  CB        38.1120  -32.9840   15.1750 C.3   217  ASN217      0.1155
    103  CG        36.9200  -33.3760   14.3360 C.2   217  ASN217      0.2627
    104  OD1       36.8350  -33.1110   13.1460 O.2   217  ASN217     -0.2716
    105  ND2       35.9530  -34.0040   14.9540 N.am  217  ASN217     -0.0877
    106  N         23.3340  -40.7880   29.2480 N.3   322  ARG322     -0.1245
    107  CA        23.4180  -39.5320   30.0090 C.3   322  ARG322      0.1563
    108  C         22.7880  -39.8060   31.3850 C.2   322  ARG322      0.2260
    109  O         21.6120  -39.5030   31.6080 O.2   322  ARG322     -0.2867
    110  CB        22.7100  -38.3940   29.2450 C.3   322  ARG322      0.0307
    111  CG        23.5730  -37.9340   28.1000 C.3   322  ARG322      0.0489
    112  CD        24.6820  -37.0150   28.5580 C.3   322  ARG322      0.2205
    113  NE        24.2230  -35.8830   29.3490 N.pl3 322  ARG322     -0.0865
    114  CZ        24.6010  -35.6450   30.6060 C.cat 322  ARG322      0.5346
    115  NH1       25.4340  -36.4700   31.2510 N.pl3 322  ARG322      0.1354
    116  NH2       24.0880  -34.5660   31.2260 N.pl3 322  ARG322      0.1354
@<TRIPOS>BOND
     1    20    19    1
     2    19    17   ar
     3    19    18   ar
     4     1     2    1
     5    17    15   ar
     6    18    16   ar
     7     4     3    2
     8     2     3    1
     9     2     5    1
    10    15    14   ar
    11    16    14   ar
    12     3     9   am
    13    45    44    2
    14    14    13    1
    15     5     6    1
    16    44    43    1
    17    21    22    1
    18    24    23    2
    19     9    10    1
    20    41    40    2
    21   104   103    2
    22    10    13    1
    23    10    11    1
    24    98    99    1
    25    87    88    2
    26    87    86    1
    27    89    90    1
    28    23    22    1
    29    23    29   am
    30     6     7   ar
    31     6     8   ar
    32    22    25    1
    33    43    42    1
    34    43    46    1
    35    40    42   am
    36    40    39    1
    37   103   105   am
    38   103   102    1
    39    99   102    1
    40    99   100    1
    41    11    12    2
    42    85    86    1
    43    27    26   ar
    44    38    39    1
    45    38    31   am
    46    30    29    1
    47    30    31    1
    48    30    33    1
    49    26    25    1
    50    26    28   ar
    51    90    91    1
    52    90    93    1
    53    34    33    1
    54    34    35    1
    55    91    92    2
    56   100   101    2
    57    31    32    2
    58    35    37   am
    59    35    36    2
    60    79    78    2
    61    93    94    1
    62    94    95    1
    63    95    97   ar
    64    95    96   ar
    65    78    77    1
    66    72    71    2
    67    71    70    1
    68    71    76   am
    69    77    76    1
    70    77    80    1
    71    62    61    2
    72    70    73    1
    73    70    69    1
    74    65    67   ar
    75    65    64   ar
    76    80    81    1
    77    73    74    1
    78    61    69   am
    79    61    60    1
    80    67    68   ar
    81    69    75    1
    82    63    64    1
    83    63    60    1
    84    64    66   ar
    85    60    59    1
    86    81    82    1
    87    59    49   am
    88    47    48    1
    89    74    75    1
    90    68    66   ar
    91    83    82    2
    92    82    84   am
    93    48    49    1
    94    48    51    1
    95    49    50    2
    96    54    56   ar
    97    54    52   ar
    98    56    57   ar
    99    51    52    1
   100    52    53   ar
   101    57    58    1
   102    57    55   ar
   103    53    55   ar
   104   111   112    1
   105   111   110    1
   106   112   113    1
   107   110   107    1
   108   106   107    1
   109   113   114    2
   110   107   108    1
   111   114   116    1
   112   114   115    1
   113   108   109    2
