@<TRIPOS>MOLECULE
tmp/4ztkA00.pdb
 113 106 0 0 0
SMALL
GASTEIGER

@<TRIPOS>ATOM
      1  N         15.7810   33.9300    8.4510 N.3    66  SER66      -0.1217
      2  CA        17.0840   34.5260    8.1520 C.3    66  SER66       0.1889
      3  C         18.1330   34.4410    9.2770 C.2    66  SER66       0.2288
      4  O         19.2930   34.7940    9.0580 O.2    66  SER66      -0.2866
      5  CB        16.9210   35.9750    7.6760 C.3    66  SER66       0.2089
      6  OG        16.1580   36.0330    6.4810 O.3    66  SER66      -0.2183
      7  N         22.1150   43.5750    5.5250 N.3    88  LYS88      -0.1231
      8  CA        20.8250   43.9700    4.9790 C.3    88  LYS88       0.1693
      9  C         19.8980   42.7730    4.8120 C.2    88  LYS88       0.2592
     10  O         18.7300   42.9330    4.4720 O.2    88  LYS88      -0.2718
     11  CB        21.0160   44.7070    3.6550 C.3    88  LYS88       0.0285
     12  CG        21.5340   46.1260    3.8300 C.3    88  LYS88       0.0035
     13  CD        22.6120   46.4620    2.8150 C.3    88  LYS88       0.0206
     14  CE        22.0500   46.5700    1.4060 C.3    88  LYS88       0.1093
     15  NZ        21.1750   47.7630    1.2310 N.3    88  LYS88      -0.1314
     16  N         20.4300   41.5810    5.0720 N.am   89  SER89      -0.1952
     17  CA        19.6740   40.3330    4.9630 C.3    89  SER89       0.1924
     18  C         19.1320   40.1150    3.5470 C.2    89  SER89       0.2314
     19  O         17.9310   39.9360    3.3470 O.2    89  SER89      -0.2863
     20  CB        18.5450   40.2890    5.9950 C.3    89  SER89       0.2116
     21  OG        18.1590   38.9570    6.2640 O.3    89  SER89      -0.2180
     22  N         18.2920   38.1190    0.5270 N.3    91  ASN91      -0.1240
     23  CA        17.9740   36.7210    0.2540 C.3    91  ASN91       0.1653
     24  C         18.6730   36.1350   -0.9730 C.2    91  ASN91       0.2266
     25  O         19.2880   35.0730   -0.8910 O.2    91  ASN91      -0.2867
     26  CB        16.4590   36.5310    0.1230 C.3    91  ASN91       0.1155
     27  CG        15.7320   36.6770    1.4520 C.2    91  ASN91       0.2627
     28  OD1       16.3350   36.5680    2.5180 O.2    91  ASN91      -0.2716
     29  ND2       14.4260   36.9160    1.3890 N.am   91  ASN91      -0.0877
     30  N         19.8820   45.6360    9.5800 N.3   186  THR186     -0.1218
     31  CA        18.5270   45.4550   10.0790 C.3   186  THR186      0.1862
     32  C         18.4590   45.3640   11.6020 C.2   186  THR186      0.2287
     33  O         17.3860   45.5090   12.1790 O.2   186  THR186     -0.2866
     34  CB        17.8880   44.1720    9.5080 C.3   186  THR186      0.1770
     35  OG1       18.7390   43.0560    9.7920 O.3   186  THR186     -0.2211
     36  CG2       17.6770   44.2900    7.9960 C.3   186  THR186      0.0375
     37  N         21.4780   38.8740   14.5730 N.3   200  LYS200     -0.1231
     38  CA        20.8360   38.6770   13.2800 C.3   200  LYS200      0.1693
     39  C         19.3240   38.6500   13.4230 C.2   200  LYS200      0.2593
     40  O         18.7750   37.9130   14.2410 O.2   200  LYS200     -0.2718
     41  CB        21.3070   37.3730   12.6280 C.3   200  LYS200      0.0285
     42  CG        20.6820   37.1140   11.2610 C.3   200  LYS200      0.0035
     43  CD        21.3310   37.9860   10.1950 C.3   200  LYS200      0.0206
     44  CE        20.5390   37.9810    8.8990 C.3   200  LYS200      0.1093
     45  NZ        19.2380   38.7030    9.0240 N.3   200  LYS200     -0.1314
     46  N         18.6630   39.4630   12.6120 N.am  201  THR201     -0.1939
     47  CA        17.2150   39.5240   12.5780 C.3   201  THR201      0.2028
     48  C         16.6330   38.3680   11.7790 C.2   201  THR201      0.2643
     49  O         17.2900   37.8070   10.8960 O.2   201  THR201     -0.2714
     50  CB        16.7500   40.8200   11.9020 C.3   201  THR201      0.1808
     51  OG1       17.3340   40.9050   10.5900 O.3   201  THR201     -0.2208
     52  CG2       17.1880   42.0230   12.7190 C.3   201  THR201      0.0379
     53  N         15.3900   38.0230   12.0900 N.am  202  GLY202     -0.1939
     54  CA        14.6200   37.1120   11.2640 C.3   202  GLY202      0.2014
     55  C         13.1440   37.4660   11.3040 C.2   202  GLY202      0.2639
     56  O         12.6370   37.9280   12.3290 O.2   202  GLY202     -0.2714
     57  N         12.4660   37.2640   10.1780 N.am  203  THR203     -0.1950
     58  CA        11.0210   37.4280   10.0900 C.3   203  THR203      0.1897
     59  C         10.4450   36.2420    9.3250 C.2   203  THR203      0.2313
     60  O         10.7180   36.0630    8.1410 O.2   203  THR203     -0.2863
     61  CB        10.6270   38.7310    9.3570 C.3   203  THR203      0.1794
     62  OG1       11.3130   39.8400    9.9460 O.3   203  THR203     -0.2208
     63  CG2        9.1290   38.9640    9.4500 C.3   203  THR203      0.0378
     64  N          7.1360   33.9760    7.9820 N.3   205  ILE205     -0.1245
     65  CA         5.7050   33.8890    7.7090 C.3   205  ILE205      0.1561
     66  C          5.2480   32.4450    7.8690 C.2   205  ILE205      0.2260
     67  O          5.6530   31.5770    7.0980 O.2   205  ILE205     -0.2867
     68  CB         5.3650   34.3130    6.2630 C.3   205  ILE205      0.0252
     69  CG1        6.2720   35.4520    5.7920 C.3   205  ILE205      0.0019
     70  CG2        3.8870   34.6830    6.1420 C.3   205  ILE205      0.0019
     71  CD1        6.0260   36.7550    6.4910 C.3   205  ILE205      0.0001
     72  N          3.0220   35.9090   11.6320 N.3   211  TYR211     -0.1241
     73  CA         4.4030   36.3740   11.6780 C.3   211  TYR211      0.1605
     74  C          5.1600   35.9660   12.9360 C.2   211  TYR211      0.2264
     75  O          4.6760   36.1400   14.0560 O.2   211  TYR211     -0.2867
     76  CB         4.4450   37.8960   11.5650 C.3   211  TYR211      0.0534
     77  CG         4.3240   38.4220   10.1570 C.ar  211  TYR211     -0.0201
     78  CD1        3.1590   38.2440    9.4230 C.ar  211  TYR211     -0.0009
     79  CD2        5.3720   39.1130    9.5670 C.ar  211  TYR211     -0.0009
     80  CE1        3.0450   38.7330    8.1340 C.ar  211  TYR211      0.0417
     81  CE2        5.2680   39.6080    8.2840 C.ar  211  TYR211      0.0417
     82  CZ         4.1040   39.4150    7.5700 C.ar  211  TYR211      0.1957
     83  OH         4.0060   39.9060    6.2890 O.3   211  TYR211     -0.2866
     84  N          6.4020   44.9600   11.9030 N.3   245  VAL245     -0.1231
     85  CA         6.1870   43.5490   12.2300 C.3   245  VAL245      0.1692
     86  C          7.4500   42.6900   12.1830 C.2   245  VAL245      0.2593
     87  O          7.4030   41.5010   12.4970 O.2   245  VAL245     -0.2718
     88  CB         5.1880   42.9030   11.2520 C.3   245  VAL245      0.0266
     89  CG1        3.8510   43.6360   11.2740 C.3   245  VAL245      0.0020
     90  CG2        5.7740   42.8840    9.8470 C.3   245  VAL245      0.0020
     91  N          8.5730   43.2750   11.7790 N.am  246  SER246     -0.1938
     92  CA         9.7800   42.4890   11.5160 C.3   246  SER246      0.2055
     93  C         10.6000   42.2070   12.7700 C.2   246  SER246      0.2644
     94  O         10.3650   42.7990   13.8210 O.2   246  SER246     -0.2714
     95  CB        10.6600   43.2050   10.4950 C.3   246  SER246      0.2130
     96  OG        11.3270   44.2940   11.1020 O.3   246  SER246     -0.2179
     97  N         11.5740   41.3080   12.6400 N.am  247  GLY247     -0.1939
     98  CA        12.4670   40.9710   13.7360 C.3   247  GLY247      0.2014
     99  C         13.3100   42.1530   14.1900 C.2   247  GLY247      0.2639
    100  O         13.5680   42.3290   15.3870 O.2   247  GLY247     -0.2714
    101  N         13.7420   42.9700   13.2360 N.am  248  GLY248     -0.1939
    102  CA        14.5540   44.1310   13.5550 C.3   248  GLY248      0.2014
    103  C         13.7710   45.2010   14.2910 C.2   248  GLY248      0.2638
    104  O         14.3190   45.9380   15.1150 O.2   248  GLY248     -0.2714
    105  N         12.4780   45.2750   13.9920 N.am  249  GLU249     -0.1977
    106  CA        11.6100   46.2910   14.5650 C.3   249  GLU249      0.1602
    107  C         11.0300   45.8570   15.9110 C.2   249  GLU249      0.2287
    108  O         10.8450   46.6860   16.7980 O.2   249  GLU249     -0.2864
    109  CB        10.4820   46.6370   13.5900 C.3   249  GLU249      0.0415
    110  CG        10.9620   47.2890   12.3040 C.3   249  GLU249      0.1163
    111  CD         9.9590   47.1630   11.1660 C.2   249  GLU249      0.3649
    112  OE1       10.0450   47.9630   10.2090 O.co2 249  GLU249     -0.2457
    113  OE2        9.0900   46.2630   11.2200 O.co2 249  GLU249     -0.2457
@<TRIPOS>BOND
     1    24    25    2
     2    24    23    1
     3    26    23    1
     4    26    27    1
     5    23    22    1
     6    15    14    1
     7    29    27   am
     8    14    13    1
     9    27    28    2
    10    13    12    1
    11    19    18    2
    12    18    17    1
    13    11    12    1
    14    11     8    1
    15    10     9    2
    16     9     8    1
    17     9    16   am
    18    17    16    1
    19    17    20    1
    20     8     7    1
    21    69    68    1
    22    69    71    1
    23    20    21    1
    24    70    68    1
    25    68    65    1
    26    83    82    1
    27     6     5    1
    28    67    66    2
    29    82    80   ar
    30    82    81   ar
    31     5     2    1
    32    65    66    1
    33    65    64    1
    34    36    34    1
    35    80    78   ar
    36    60    59    2
    37     2     1    1
    38     2     3    1
    39    81    79   ar
    40    44    45    1
    41    44    43    1
    42     4     3    2
    43    59    58    1
    44    61    63    1
    45    61    62    1
    46    61    58    1
    47    78    77   ar
    48    34    35    1
    49    34    31    1
    50    79    77   ar
    51    30    31    1
    52    90    88    1
    53    31    32    1
    54    58    57    1
    55    77    76    1
    56    57    55   am
    57    43    42    1
    58   112   111   ar
    59    95    96    1
    60    95    92    1
    61    51    50    1
    62    49    48    2
    63   111   113   ar
    64   111   110    1
    65    88    89    1
    66    88    85    1
    67    42    41    1
    68    54    55    1
    69    54    53    1
    70    55    56    2
    71    92    91    1
    72    92    93    1
    73    76    73    1
    74    32    33    2
    75    72    73    1
    76    73    74    1
    77    91    86   am
    78    48    53   am
    79    48    47    1
    80    50    47    1
    81    50    52    1
    82    84    85    1
    83    86    85    1
    84    86    87    2
    85   110   109    1
    86    47    46    1
    87    46    39   am
    88    41    38    1
    89    97    93   am
    90    97    98    1
    91    93    94    2
    92    74    75    2
    93   101   102    1
    94   101    99   am
    95    38    39    1
    96    38    37    1
    97    39    40    2
    98   102   103    1
    99   109   106    1
   100    98    99    1
   101   105   103   am
   102   105   106    1
   103    99   100    2
   104   103   104    2
   105   106   107    1
   106   107   108    2
