@<TRIPOS>MOLECULE
tmp/4ztlA00.pdb
 180 170 0 0 0
SMALL
GASTEIGER

@<TRIPOS>ATOM
      1  N         19.1630    7.4190   -5.1420 N.3    21  ILE21      -0.1245
      2  CA        19.1860    5.9710   -4.8670 C.3    21  ILE21       0.1561
      3  C         18.3390    5.6210   -3.6290 C.2    21  ILE21       0.2260
      4  O         17.6880    4.5730   -3.6080 O.2    21  ILE21      -0.2867
      5  CB        20.6510    5.4270   -4.7390 C.3    21  ILE21       0.0252
      6  CG1       21.6610    6.0950   -5.7250 C.3    21  ILE21       0.0019
      7  CG2       20.7190    3.8860   -4.7730 C.3    21  ILE21       0.0019
      8  CD1       21.4360    5.8850   -7.2620 C.3    21  ILE21       0.0001
      9  N         23.2040    9.8320   -9.3180 N.3    28  MET28      -0.1230
     10  CA        24.2940    9.7850   -8.3330 C.3    28  MET28       0.1702
     11  C         24.8360   11.1840   -8.0200 C.2    28  MET28       0.2593
     12  O         25.5300   11.3610   -7.0140 O.2    28  MET28      -0.2718
     13  CB        25.4520    8.9070   -8.8340 C.3    28  MET28       0.0401
     14  CG        25.0270    7.5920   -9.4460 C.3    28  MET28       0.0596
     15  SD        26.3380    6.3640   -9.3200 S.3    28  MET28      -0.1393
     16  CE        26.0450    5.8220   -7.7190 C.3    28  MET28       0.0692
     17  N         24.5440   12.1620   -8.8940 N.am   29  GLY29      -0.1942
     18  CA        24.9880   13.5450   -8.7450 C.3    29  GLY29       0.2014
     19  C         25.2950   14.1990  -10.0890 C.2    29  GLY29       0.2639
     20  O         25.0190   13.6240  -11.1450 O.2    29  GLY29      -0.2714
     21  N         25.8560   15.4130  -10.0340 N.am   30  GLU30      -0.1963
     22  CA        26.2390   16.2190  -11.1970 C.3    30  GLU30       0.1733
     23  C         27.4460   17.0760  -10.8310 C.2    30  GLU30       0.2616
     24  O         27.4910   17.6430   -9.7380 O.2    30  GLU30      -0.2715
     25  CB        25.0550   17.0940  -11.6660 C.3    30  GLU30       0.0429
     26  CG        25.3290   17.9290  -12.9100 C.3    30  GLU30       0.1163
     27  CD        24.1860   18.7690  -13.4530 C.2    30  GLU30       0.3649
     28  OE1       23.1280   18.8660  -12.7880 O.co2  30  GLU30      -0.2457
     29  OE2       24.3560   19.3390  -14.5550 O.co2  30  GLU30      -0.2457
     30  N         28.4210   17.1680  -11.7440 N.am   31  GLY31      -0.1955
     31  CA        29.6280   17.9570  -11.5240 C.3    31  GLY31       0.1869
     32  C         30.1870   18.5370  -12.8180 C.2    31  GLY31       0.2309
     33  O         29.6530   19.5180  -13.3340 O.2    31  GLY31      -0.2863
     34  N         25.7910   11.9040  -13.2950 N.3    36  VAL36      -0.1245
     35  CA        26.1670   10.5260  -12.9740 C.3    36  VAL36       0.1561
     36  C         24.8990    9.7160  -12.6600 C.2    36  VAL36       0.2260
     37  O         24.0610   10.1770  -11.8850 O.2    36  VAL36      -0.2867
     38  CB        27.2300   10.4370  -11.8350 C.3    36  VAL36       0.0252
     39  CG1       27.8330    9.0370  -11.7470 C.3    36  VAL36       0.0019
     40  CG2       28.3370   11.4720  -12.0170 C.3    36  VAL36       0.0019
     41  N         28.9050    3.2700  -13.0810 N.3    47  ALA47      -0.1245
     42  CA        28.6130    4.6890  -12.9750 C.3    47  ALA47       0.1562
     43  C         28.5300    5.1820  -14.4150 C.2    47  ALA47       0.2260
     44  O         29.4350    4.9020  -15.2060 O.2    47  ALA47      -0.2867
     45  CB        29.7250    5.3960  -12.2180 C.3    47  ALA47       0.0290
     46  N         28.0800    8.4130  -16.9090 N.3    49  LYS49      -0.1245
     47  CA        28.1600    9.8570  -17.0350 C.3    49  LYS49       0.1561
     48  C         27.5590   10.3120  -18.3580 C.2    49  LYS49       0.2260
     49  O         28.2310   10.2690  -19.3860 O.2    49  LYS49      -0.2867
     50  CB        29.6080   10.3470  -16.8610 C.3    49  LYS49       0.0271
     51  CG        29.7010   11.8090  -16.4440 C.3    49  LYS49       0.0035
     52  CD        30.7140   12.5830  -17.2750 C.3    49  LYS49       0.0206
     53  CE        31.9530   12.9340  -16.4890 C.3    49  LYS49       0.1093
     54  NZ        32.6810   14.0750  -17.1030 N.3    49  LYS49      -0.1314
     55  N         38.0640   13.4260  -21.8530 N.3    64  GLU64      -0.1245
     56  CA        38.0310   12.3340  -20.8730 C.3    64  GLU64       0.1567
     57  C         38.4540   10.9740  -21.4490 C.2    64  GLU64       0.2260
     58  O         39.1170   10.2150  -20.7420 O.2    64  GLU64      -0.2867
     59  CB        36.6700   12.2610  -20.1600 C.3    64  GLU64       0.0388
     60  CG        36.7390   11.6120  -18.7840 C.3    64  GLU64       0.1160
     61  CD        35.9780   12.2820  -17.6520 C.2    64  GLU64       0.3649
     62  OE1       35.1370   13.1690  -17.9240 O.co2  64  GLU64      -0.2457
     63  OE2       36.2000   11.8850  -16.4850 O.co2  64  GLU64      -0.2457
     64  N         39.6280    6.6350  -11.1430 N.3    77  VAL77      -0.1245
     65  CA        38.4370    5.8440  -11.4710 C.3    77  VAL77       0.1561
     66  C         38.6580    5.2060  -12.8380 C.2    77  VAL77       0.2260
     67  O         39.2230    5.8520  -13.7270 O.2    77  VAL77      -0.2867
     68  CB        37.1180    6.6420  -11.3860 C.3    77  VAL77       0.0252
     69  CG1       36.7980    7.0290   -9.9500 C.3    77  VAL77       0.0019
     70  CG2       37.1520    7.8730  -12.2840 C.3    77  VAL77       0.0019
     71  N         31.9990    3.8050  -15.9790 N.3    93  TYR93      -0.1227
     72  CA        33.0420    3.6360  -14.9730 C.3    93  TYR93       0.1736
     73  C         32.7170    2.5250  -14.0100 C.2    93  TYR93       0.2595
     74  O         31.5660    2.1080  -13.9310 O.2    93  TYR93      -0.2718
     75  CB        33.2020    4.9270  -14.1620 C.3    93  TYR93       0.0548
     76  CG        33.5620    6.1400  -14.9880 C.ar   93  TYR93      -0.0200
     77  CD1       34.8930    6.4500  -15.2620 C.ar   93  TYR93      -0.0009
     78  CD2       32.5810    7.0070  -15.4530 C.ar   93  TYR93      -0.0009
     79  CE1       35.2320    7.5900  -15.9870 C.ar   93  TYR93       0.0417
     80  CE2       32.9080    8.1460  -16.1860 C.ar   93  TYR93       0.0417
     81  CZ        34.2340    8.4210  -16.4690 C.ar   93  TYR93       0.1957
     82  OH        34.5620    9.5490  -17.1790 O.3    93  TYR93      -0.2866
     83  N         33.7230    2.0720  -13.2400 N.am   94  VAL94      -0.1966
     84  CA        33.5320    1.0830  -12.1800 C.3    94  VAL94       0.1727
     85  C         32.8020    1.8650  -11.0620 C.2    94  VAL94       0.2616
     86  O         33.1970    2.9970  -10.7390 O.2    94  VAL94      -0.2715
     87  CB        34.8770    0.4870  -11.6700 C.3    94  VAL94       0.0290
     88  CG1       34.6540   -0.4870  -10.5170 C.3    94  VAL94       0.0023
     89  CG2       35.6470   -0.1980  -12.7870 C.3    94  VAL94       0.0023
     90  N         31.6990    1.2940  -10.5440 N.am   95  TYR95      -0.1960
     91  CA        30.9250    1.8920   -9.4570 C.3    95  TYR95       0.1771
     92  C         31.7830    1.9140   -8.1730 C.2    95  TYR95       0.2619
     93  O         32.4540    0.9190   -7.8410 O.2    95  TYR95      -0.2715
     94  CB        29.6410    1.0940   -9.2400 C.3    95  TYR95       0.0574
     95  CG        28.8030    1.5110   -8.0520 C.ar   95  TYR95      -0.0198
     96  CD1       27.9230    2.5850   -8.1400 C.ar   95  TYR95      -0.0009
     97  CD2       28.8060    0.7640   -6.8770 C.ar   95  TYR95      -0.0009
     98  CE1       27.1060    2.9370   -7.0660 C.ar   95  TYR95       0.0417
     99  CE2       27.9940    1.1060   -5.8000 C.ar   95  TYR95       0.0417
    100  CZ        27.1500    2.1980   -5.8950 C.ar   95  TYR95       0.1957
    101  OH        26.3530    2.5360   -4.8300 O.3    95  TYR95      -0.2866
    102  N         31.8020    3.0800   -7.5040 N.am   96  MET96      -0.1964
    103  CA        32.5640    3.2650   -6.2770 C.3    96  MET96       0.1722
    104  C         31.6120    3.1400   -5.0590 C.2    96  MET96       0.2458
    105  O         30.9560    4.1200   -4.6810 O.2    96  MET96      -0.2730
    106  CB        33.3560    4.5780   -6.3260 C.3    96  MET96       0.0427
    107  CG        34.3760    4.6070   -7.4410 C.3    96  MET96       0.0599
    108  SD        35.7750    3.5180   -7.0970 S.3    96  MET96      -0.1393
    109  CE        36.4350    3.3410   -8.6910 C.3    96  MET96       0.0692
    110  N         31.5070    1.9060   -4.4850 N.am   97  PRO97      -0.2727
    111  CA        30.5720    1.5920   -3.4010 C.3    97  PRO97       0.1402
    112  C         30.5120    2.5450   -2.2090 C.2    97  PRO97       0.2269
    113  O         29.4450    2.7300   -1.6270 O.2    97  PRO97      -0.2865
    114  CB        30.9330    0.1520   -3.0240 C.3    97  PRO97       0.0296
    115  CG        32.3070   -0.0350   -3.4630 C.3    97  PRO97       0.0237
    116  CD        32.4990    0.8210   -4.6560 C.3    97  PRO97       0.0939
    117  N         31.1170    5.8380   -2.3500 N.3    99  GLY99      -0.1210
    118  CA        30.9130    7.1990   -2.8750 C.3    99  GLY99       0.1956
    119  C         32.1400    8.1310   -2.7400 C.2    99  GLY99       0.2612
    120  O         33.2840    7.6920   -2.9060 O.2    99  GLY99      -0.2717
    121  N         31.8830    9.4150   -2.4290 N.am  100  SER100     -0.1952
    122  CA        32.9060   10.4510   -2.3420 C.3   100  SER100      0.1924
    123  C         33.5330   10.6600   -0.9660 C.2   100  SER100      0.2314
    124  O         32.9520   10.3020    0.0500 O.2   100  SER100     -0.2863
    125  CB        32.3920   11.7600   -2.9370 C.3   100  SER100      0.2116
    126  OG        31.5330   12.4670   -2.0590 O.3   100  SER100     -0.2180
    127  N         31.1530   13.0840    1.0610 N.3   103  ASP103     -0.1225
    128  CA        30.0210   12.3870    1.6730 C.3   103  ASP103      0.1805
    129  C         30.4270   11.5390    2.8590 C.2   103  ASP103      0.2597
    130  O         29.6670   11.4250    3.8100 O.2   103  ASP103     -0.2718
    131  CB        29.2470   11.5810    0.6230 C.3   103  ASP103      0.1424
    132  CG        28.5350   12.4520   -0.4070 C.2   103  ASP103      0.3668
    133  OD1       28.5980   13.7110   -0.2790 O.co2 103  ASP103     -0.2456
    134  OD2       27.8800   11.8860   -1.3170 O.co2 103  ASP103     -0.2456
    135  N         31.6350   10.9960    2.8340 N.am  104  ARG104     -0.1979
    136  CA        32.1570   10.1800    3.9210 C.3   104  ARG104      0.1597
    137  C         32.6870   11.0240    5.0270 C.2   104  ARG104      0.2287
    138  O         32.6030   10.6160    6.1810 O.2   104  ARG104     -0.2864
    139  CB        33.1490    9.1070    3.4190 C.3   104  ARG104      0.0334
    140  CG        32.4560    8.1160    2.4360 C.3   104  ARG104      0.0492
    141  CD        31.4300    7.1520    3.0630 C.3   104  ARG104      0.2205
    142  NE        30.0690    7.7030    3.2390 N.pl3 104  ARG104     -0.0865
    143  CZ        29.1880    7.8960    2.2460 C.cat 104  ARG104      0.5346
    144  NH1       29.5320    7.6880    0.9870 N.pl3 104  ARG104      0.1354
    145  NH2       27.9770    8.3700    2.5130 N.pl3 104  ARG104      0.1354
    146  N         34.5900   15.9820   -3.3280 N.3   146  ALA146     -0.1231
    147  CA        33.5230   15.3310   -4.1050 C.3   146  ALA146      0.1694
    148  C         34.0970   14.5760   -5.3230 C.2   146  ALA146      0.2592
    149  O         33.4140   13.7000   -5.8550 O.2   146  ALA146     -0.2718
    150  CB        32.4960   16.3540   -4.5580 C.3   146  ALA146      0.0304
    151  N         35.3470   14.9020   -5.7570 N.am  147  ASN147     -0.1974
    152  CA        36.0140   14.2480   -6.8920 C.3   147  ASN147      0.1688
    153  C         37.0300   13.1710   -6.4750 C.2   147  ASN147      0.2292
    154  O         37.8230   12.7010   -7.2940 O.2   147  ASN147     -0.2864
    155  CB        36.6310   15.2830   -7.8810 C.3   147  ASN147      0.1181
    156  CG        35.5990   16.0020   -8.7350 C.2   147  ASN147      0.2629
    157  OD1       34.4420   15.5800   -8.8910 O.2   147  ASN147     -0.2716
    158  ND2       35.9970   17.1100   -9.3130 N.am  147  ASN147     -0.0877
    159  N         36.9050    9.5510   -4.9960 N.3   149  LEU149     -0.1245
    160  CA        36.0070    8.4370   -4.7680 C.3   149  LEU149      0.1561
    161  C         36.6430    7.2950   -4.0400 C.2   149  LEU149      0.2260
    162  O         37.8620    7.1950   -3.9710 O.2   149  LEU149     -0.2867
    163  CB        35.2520    8.0200   -6.0210 C.3   149  LEU149      0.0270
    164  CG        34.5990    9.1420   -6.8450 C.3   149  LEU149      0.0019
    165  CD1       33.8000    8.5650   -7.9480 C.3   149  LEU149      0.0001
    166  CD2       33.6790   10.0190   -6.0230 C.3   149  LEU149      0.0001
    167  N         38.3630   11.1740   -9.7020 N.3   159  SER159     -0.1202
    168  CA        37.3600   11.1660  -10.7760 C.3   159  SER159      0.2020
    169  C         37.2670   12.5340  -11.4660 C.2   159  SER159      0.2618
    170  O         37.9570   13.4720  -11.0660 O.2   159  SER159     -0.2717
    171  CB        35.9910   10.7760  -10.2280 C.3   159  SER159      0.2103
    172  OG        35.5570   11.6890   -9.2340 O.3   159  SER159     -0.2182
    173  N         36.3850   12.6370  -12.4820 N.am  160  ASP160     -0.1973
    174  CA        36.0700   13.8280  -13.2740 C.3   160  ASP160      0.1709
    175  C         37.2470   14.5020  -13.9900 C.2   160  ASP160      0.2293
    176  O         37.9760   15.3010  -13.4040 O.2   160  ASP160     -0.2864
    177  CB        35.1970   14.8210  -12.4890 C.3   160  ASP160      0.1436
    178  CG        33.9870   15.3080  -13.2660 C.2   160  ASP160      0.3671
    179  OD1       34.1480   15.6830  -14.4490 O.co2 160  ASP160     -0.2456
    180  OD2       32.8820   15.3240  -12.6910 O.co2 160  ASP160     -0.2456
@<TRIPOS>BOND
     1    55    56    1
     2    57    56    1
     3    57    58    2
     4    56    59    1
     5    59    60    1
     6    49    48    2
     7    60    61    1
     8    48    47    1
     9    62    61   ar
    10    61    63   ar
    11    52    53    1
    12    52    51    1
    13    82    81    1
    14    54    53    1
    15    47    46    1
    16    47    50    1
    17    50    51    1
    18    81    80   ar
    19    81    79   ar
    20    80    78   ar
    21    79    77   ar
    22    71    72    1
    23    78    76   ar
    24    77    76   ar
    25    44    43    2
    26    76    75    1
    27    72    75    1
    28    72    73    1
    29    29    27   ar
    30   179   178   ar
    31    43    42    1
    32    73    74    2
    33    73    83   am
    34   175   176    2
    35   175   174    1
    36    67    66    2
    37    27    26    1
    38    27    28   ar
    39    33    32    2
    40    34    35    1
    41   174   177    1
    42   174   173    1
    43   178   180   ar
    44   178   177    1
    45    83    84    1
    46    41    42    1
    47    42    45    1
    48    35    36    1
    49    35    38    1
    50    26    25    1
    51    66    65    1
    52    32    31    1
    53    89    87    1
    54    36    37    2
    55   173   169   am
    56    70    68    1
    57    84    87    1
    58    84    85    1
    59    40    38    1
    60    38    39    1
    61    30    31    1
    62    30    23   am
    63    87    88    1
    64    25    22    1
    65    65    68    1
    66    65    64    1
    67   169   170    2
    68   169   168    1
    69    68    69    1
    70    22    23    1
    71    22    21    1
    72    20    19    2
    73    85    86    2
    74    85    90   am
    75    23    24    2
    76   168   171    1
    77   168   167    1
    78    90    91    1
    79   171   172    1
    80    19    21   am
    81    19    18    1
    82    91    94    1
    83    91    92    1
    84    14    15    1
    85    14    13    1
    86    15    16    1
    87     9    10    1
    88   158   156   am
    89    94    95    1
    90    17    18    1
    91    17    11   am
    92   157   156    2
    93    13    10    1
    94   156   155    1
    95   109   108    1
    96    10    11    1
    97    92    93    2
    98    92   102   am
    99    96    95   ar
   100    96    98   ar
   101    95    97   ar
   102    11    12    2
   103   165   164    1
   104   155   152    1
   105   102   103    1
   106   107   108    1
   107   107   106    1
   108   154   153    2
   109     8     6    1
   110    98   100   ar
   111   152   153    1
   112   152   151    1
   113    97    99   ar
   114   164   166    1
   115   164   163    1
   116   106   103    1
   117   103   104    1
   118   163   160    1
   119   100    99   ar
   120   100   101    1
   121   149   148    2
   122   151   148   am
   123     6     5    1
   124   148   147    1
   125     1     2    1
   126   104   105    2
   127   104   110   am
   128   159   160    1
   129     2     5    1
   130     2     3    1
   131     7     5    1
   132   160   161    1
   133   116   110    1
   134   116   115    1
   135   150   147    1
   136   110   111    1
   137   147   146    1
   138   161   162    2
   139     3     4    2
   140   115   114    1
   141   111   114    1
   142   111   112    1
   143   125   122    1
   144   125   126    1
   145   120   119    2
   146   118   119    1
   147   118   117    1
   148   119   121   am
   149   121   122    1
   150   122   123    1
   151   112   113    2
   152   134   132   ar
   153   123   124    2
   154   132   133   ar
   155   132   131    1
   156   131   128    1
   157   144   143    1
   158   127   128    1
   159   128   129    1
   160   143   145    1
   161   143   142    2
   162   140   141    1
   163   140   139    1
   164   135   129   am
   165   135   136    1
   166   129   130    2
   167   141   142    1
   168   139   136    1
   169   136   137    1
   170   137   138    2
