@<TRIPOS>MOLECULE
tmp/4ztmB00.pdb
 218 206 0 0 0
SMALL
GASTEIGER

@<TRIPOS>ATOM
      1  N          1.0590   -8.6370   20.7280 N.3    25  ILE25      -0.1245
      2  CA         1.3940   -7.2140   20.5740 C.3    25  ILE25       0.1561
      3  C          2.7990   -7.1040   19.9950 C.2    25  ILE25       0.2260
      4  O          3.7600   -7.5380   20.6390 O.2    25  ILE25      -0.2867
      5  CB         1.2790   -6.4170   21.9140 C.3    25  ILE25       0.0252
      6  CG1        0.0130   -6.7800   22.7070 C.3    25  ILE25       0.0019
      7  CG2        1.3730   -4.9010   21.6810 C.3    25  ILE25       0.0019
      8  CD1        0.2810   -7.0510   24.1050 C.3    25  ILE25       0.0001
      9  N         -1.5230  -10.8170   25.6750 N.3    32  MET32      -0.1230
     10  CA        -0.2570  -10.7460   26.4260 C.3    32  MET32       0.1702
     11  C          0.1640  -12.1250   26.9260 C.2    32  MET32       0.2593
     12  O          1.3420  -12.4690   26.8270 O.2    32  MET32      -0.2718
     13  CB        -0.3380   -9.7430   27.5930 C.3    32  MET32       0.0401
     14  CG        -0.8160   -8.3770   27.1700 C.3    32  MET32       0.0596
     15  SD        -0.2760   -6.9770   28.1630 S.3    32  MET32      -0.1393
     16  CE        -1.3530   -7.1330   29.5170 C.3    32  MET32       0.0692
     17  N         -0.8090  -12.9150   27.4430 N.am   33  GLY33      -0.1942
     18  CA        -0.6500  -14.2710   27.9860 C.3    33  GLY33       0.2014
     19  C         -1.8990  -15.0950   27.6820 C.2    33  GLY33       0.2638
     20  O         -2.9370  -14.5170   27.3460 O.2    33  GLY33      -0.2714
     21  N         -1.8150  -16.4400   27.7850 N.am   34  GLU34      -0.1977
     22  CA        -2.9430  -17.3110   27.4310 C.3    34  GLU34       0.1602
     23  C         -3.0490  -18.6030   28.2550 C.2    34  GLU34       0.2287
     24  O         -2.0800  -19.0230   28.8920 O.2    34  GLU34      -0.2864
     25  CB        -2.8900  -17.6540   25.9190 C.3    34  GLU34       0.0415
     26  CG        -4.2440  -17.8360   25.2550 C.3    34  GLU34       0.1163
     27  CD        -4.2080  -18.5980   23.9470 C.2    34  GLU34       0.3649
     28  OE1       -4.1500  -19.8480   23.9890 O.co2  34  GLU34      -0.2457
     29  OE2       -4.2630  -17.9470   22.8800 O.co2  34  GLU34      -0.2457
     30  N         -5.1390  -13.0390   28.9820 N.3    40  VAL40      -0.1245
     31  CA        -4.8340  -11.6380   29.3340 C.3    40  VAL40       0.1561
     32  C         -4.6290  -10.7930   28.0730 C.2    40  VAL40       0.2260
     33  O         -3.8830  -11.2060   27.1860 O.2    40  VAL40      -0.2867
     34  CB        -3.6190  -11.5320   30.3160 C.3    40  VAL40       0.0252
     35  CG1       -3.3380  -10.0840   30.7300 C.3    40  VAL40       0.0019
     36  CG2       -3.8240  -12.4030   31.5540 C.3    40  VAL40       0.0019
     37  N         -4.0750   -6.5500   26.4190 N.3    42  LYS42      -0.1245
     38  CA        -3.6980   -5.1550   26.6530 C.3    42  LYS42       0.1561
     39  C         -4.9110   -4.2880   26.3300 C.2    42  LYS42       0.2260
     40  O         -5.5890   -4.5280   25.3300 O.2    42  LYS42      -0.2867
     41  CB        -2.4930   -4.7570   25.7790 C.3    42  LYS42       0.0271
     42  CG        -1.8890   -3.3960   26.0990 C.3    42  LYS42       0.0035
     43  CD        -0.5330   -3.2570   25.4280 C.3    42  LYS42       0.0206
     44  CE         0.0300   -1.8660   25.5500 C.3    42  LYS42       0.1093
     45  NZ         1.3660   -1.7530   24.9120 N.3    42  LYS42      -0.1314
     46  N         -4.5440   -4.2070   31.9390 N.3    51  ALA51      -0.1245
     47  CA        -4.3910   -5.6120   31.6140 C.3    51  ALA51       0.1562
     48  C         -5.7370   -6.2400   31.8910 C.2    51  ALA51       0.2260
     49  O         -6.2300   -6.1350   33.0090 O.2    51  ALA51      -0.2867
     50  CB        -3.3180   -6.2380   32.4930 C.3    51  ALA51       0.0290
     51  N         -8.1480   -9.6030   32.0180 N.3    53  LYS53      -0.1245
     52  CA        -8.1750  -11.0590   32.1060 C.3    53  LYS53       0.1561
     53  C         -9.6080  -11.6310   31.9800 C.2    53  LYS53       0.2260
     54  O        -10.4860  -11.2540   32.7540 O.2    53  LYS53      -0.2867
     55  CB        -7.5270  -11.5250   33.4210 C.3    53  LYS53       0.0271
     56  CG        -7.3350  -13.0480   33.4990 C.3    53  LYS53       0.0035
     57  CD        -7.0860  -13.5480   34.9190 C.3    53  LYS53       0.0206
     58  CE        -5.6290  -13.4760   35.3110 C.3    53  LYS53       0.1093
     59  NZ        -5.4290  -13.8500   36.7260 N.3    53  LYS53      -0.1314
     60  N        -10.3790  -14.2280   43.1100 N.3    63  GLU63      -0.1245
     61  CA        -9.5400  -13.1270   42.6680 C.3    63  GLU63       0.1567
     62  C         -9.9830  -11.7940   43.3000 C.2    63  GLU63       0.2260
     63  O         -9.1560  -11.1670   43.9500 O.2    63  GLU63      -0.2867
     64  CB        -9.4680  -13.0570   41.1420 C.3    63  GLU63       0.0388
     65  CG        -8.1320  -12.5260   40.6540 C.3    63  GLU63       0.1160
     66  CD        -7.2590  -13.4890   39.8710 C.2    63  GLU63       0.3649
     67  OE1       -7.8080  -14.3750   39.1760 O.co2  63  GLU63      -0.2457
     68  OE2       -6.0190  -13.3100   39.9030 O.co2  63  GLU63      -0.2457
     69  N          0.3480   -7.3130   42.2250 N.3    76  VAL76      -0.1245
     70  CA        -0.3120   -6.6110   41.1110 C.3    76  VAL76       0.1561
     71  C         -1.5500   -5.9300   41.6180 C.2    76  VAL76       0.2260
     72  O         -2.1650   -6.4110   42.5720 O.2    76  VAL76      -0.2867
     73  CB        -0.6070   -7.4560   39.8510 C.3    76  VAL76       0.0252
     74  CG1        0.6650   -7.7830   39.0980 C.3    76  VAL76       0.0019
     75  CG2       -1.3960   -8.7120   40.1880 C.3    76  VAL76       0.0019
     76  N         -6.4500   -5.0520   35.5290 N.3    92  TYR92      -0.1227
     77  CA        -5.2720   -4.7470   36.3400 C.3    92  TYR92       0.1736
     78  C         -4.4810   -3.6080   35.7840 C.2    92  TYR92       0.2595
     79  O         -4.5960   -3.3130   34.5990 O.2    92  TYR92      -0.2718
     80  CB        -4.3340   -5.9580   36.4140 C.3    92  TYR92       0.0548
     81  CG        -4.9860   -7.2040   36.9510 C.ar   92  TYR92      -0.0200
     82  CD1       -5.5740   -8.1320   36.0940 C.ar   92  TYR92      -0.0009
     83  CD2       -4.9870   -7.4780   38.3140 C.ar   92  TYR92      -0.0009
     84  CE1       -6.1440   -9.3060   36.5830 C.ar   92  TYR92       0.0417
     85  CE2       -5.5640   -8.6410   38.8140 C.ar   92  TYR92       0.0417
     86  CZ        -6.1480   -9.5480   37.9460 C.ar   92  TYR92       0.1957
     87  OH        -6.7090  -10.6900   38.4450 O.3    92  TYR92      -0.2866
     88  N         -3.6260   -3.0060   36.6280 N.am   93  VAL93      -0.1966
     89  CA        -2.6930   -1.9730   36.1960 C.3    93  VAL93       0.1727
     90  C         -1.6740   -2.7370   35.3230 C.2    93  VAL93       0.2616
     91  O         -1.2090   -3.8140   35.7150 O.2    93  VAL93      -0.2715
     92  CB        -1.9860   -1.2640   37.3890 C.3    93  VAL93       0.0290
     93  CG1       -0.9670   -0.2390   36.9090 C.3    93  VAL93       0.0023
     94  CG2       -2.9850   -0.6080   38.3110 C.3    93  VAL93       0.0023
     95  N         -1.3980   -2.1990   34.1300 N.am   94  TYR94      -0.1960
     96  CA        -0.4620   -2.7340   33.1520 C.3    94  TYR94       0.1771
     97  C          0.9650   -2.6650   33.6770 C.2    94  TYR94       0.2619
     98  O          1.4080   -1.6210   34.1810 O.2    94  TYR94      -0.2715
     99  CB        -0.6010   -1.9320   31.8600 C.3    94  TYR94       0.0574
    100  CG         0.4130   -2.2320   30.7870 C.ar   94  TYR94      -0.0198
    101  CD1        0.3530   -3.4170   30.0560 C.ar   94  TYR94      -0.0009
    102  CD2        1.3650   -1.2810   30.4130 C.ar   94  TYR94      -0.0009
    103  CE1        1.2600   -3.6770   29.0270 C.ar   94  TYR94       0.0417
    104  CE2        2.2480   -1.5150   29.3640 C.ar   94  TYR94       0.0417
    105  CZ         2.2080   -2.7240   28.6900 C.ar   94  TYR94       0.1957
    106  OH         3.1210   -2.9650   27.6940 O.3    94  TYR94      -0.2866
    107  N          1.6420   -3.8050   33.6290 N.am   95  MET95      -0.1964
    108  CA         3.0290   -3.9100   34.0350 C.3    95  MET95       0.1722
    109  C          3.8620   -3.7620   32.7460 C.2    95  MET95       0.2458
    110  O          3.9400   -4.7060   31.9500 O.2    95  MET95      -0.2730
    111  CB         3.2690   -5.2070   34.7950 C.3    95  MET95       0.0427
    112  CG         2.3950   -5.3360   36.0330 C.3    95  MET95       0.0599
    113  SD         2.9250   -4.2470   37.3640 S.3    95  MET95      -0.1393
    114  CE         1.7260   -2.9790   37.2740 C.3    95  MET95       0.0692
    115  N          4.3680   -2.5170   32.4990 N.am   96  PRO96      -0.2716
    116  CA         5.1250   -2.0990   31.3050 C.3    96  PRO96       0.1536
    117  C          6.3170   -2.9570   30.8980 C.2    96  PRO96       0.2599
    118  O          6.6900   -2.9860   29.7120 O.2    96  PRO96      -0.2715
    119  CB         5.5770   -0.6740   31.6420 C.3    96  PRO96       0.0310
    120  CG         4.7990   -0.2690   32.8690 C.3    96  PRO96       0.0237
    121  CD         4.4500   -1.5160   33.5840 C.3    96  PRO96       0.0939
    122  N          6.9310   -3.6350   31.8850 N.am   97  ASN97      -0.1959
    123  CA         8.1040   -4.4760   31.6780 C.3    97  ASN97       0.1819
    124  C          7.8720   -5.9740   31.6170 C.2    97  ASN97       0.2622
    125  O          8.8350   -6.7420   31.5410 O.2    97  ASN97      -0.2715
    126  CB         9.2180   -4.0650   32.5980 C.3    97  ASN97       0.1195
    127  CG         9.7650   -2.7390   32.1660 C.2    97  ASN97       0.2630
    128  OD1       10.1600   -2.5670   31.0030 O.2    97  ASN97      -0.2716
    129  ND2        9.7110   -1.7470   33.0480 N.am   97  ASN97      -0.0877
    130  N          6.5900   -6.3850   31.5690 N.am   98  GLY98      -0.1940
    131  CA         6.1760   -7.7660   31.4480 C.3    98  GLY98       0.2014
    132  C          6.6070   -8.6370   32.5980 C.2    98  GLY98       0.2639
    133  O          6.7750   -8.1560   33.7250 O.2    98  GLY98      -0.2714
    134  N          6.7480   -9.9440   32.3260 N.am   99  SER99      -0.1949
    135  CA         7.1230  -10.9230   33.3330 C.3    99  SER99       0.1924
    136  C          8.6340  -11.0980   33.4460 C.2    99  SER99       0.2314
    137  O          9.3820  -10.8000   32.5180 O.2    99  SER99      -0.2863
    138  CB         6.4100  -12.2500   33.0990 C.3    99  SER99       0.2116
    139  OG         6.9620  -13.0130   32.0410 O.3    99  SER99      -0.2180
    140  N         10.0530  -13.9130   33.4760 N.3   101  LEU101     -0.1231
    141  CA        10.3210  -14.9520   32.4910 C.3   101  LEU101      0.1693
    142  C         10.7530  -14.3270   31.1710 C.2   101  LEU101      0.2592
    143  O         11.8370  -14.6490   30.6700 O.2   101  LEU101     -0.2718
    144  CB         9.1000  -15.8410   32.2850 C.3   101  LEU101      0.0284
    145  CG         9.2960  -17.0860   31.3950 C.3   101  LEU101      0.0019
    146  CD1       10.1460  -18.1400   32.0930 C.3   101  LEU101      0.0001
    147  CD2        7.9760  -17.6940   31.0350 C.3   101  LEU101      0.0001
    148  N          9.9330  -13.3890   30.6460 N.am  102  ASP102     -0.1960
    149  CA        10.1840  -12.6680   29.3990 C.3   102  ASP102      0.1840
    150  C         11.5170  -11.8950   29.4580 C.2   102  ASP102      0.2621
    151  O         12.2690  -11.8860   28.4820 O.2   102  ASP102     -0.2715
    152  CB         9.0220  -11.7010   29.1010 C.3   102  ASP102      0.1450
    153  CG         7.6140  -12.3060   28.9880 C.2   102  ASP102      0.3671
    154  OD1        7.4990  -13.5110   28.6460 O.co2 102  ASP102     -0.2456
    155  OD2        6.6220  -11.5490   29.1710 O.co2 102  ASP102     -0.2456
    156  N         11.8000  -11.2530   30.5960 N.am  103  ARG103     -0.1977
    157  CA        13.0150  -10.4630   30.7480 C.3   103  ARG103      0.1597
    158  C         14.2790  -11.3100   30.8920 C.2   103  ARG103      0.2287
    159  O         15.3240  -10.9250   30.3490 O.2   103  ARG103     -0.2864
    160  CB        12.8740   -9.3590   31.8090 C.3   103  ARG103      0.0334
    161  CG        11.6820   -8.4170   31.5560 C.3   103  ARG103      0.0492
    162  CD        11.8700   -7.3660   30.4670 C.3   103  ARG103      0.2205
    163  NE        11.7350   -7.8960   29.1060 N.pl3 103  ARG103     -0.0865
    164  CZ        10.5860   -8.1940   28.4980 C.cat 103  ARG103      0.5346
    165  NH1        9.4260   -8.0270   29.1270 N.pl3 103  ARG103      0.1354
    166  NH2       10.5880   -8.6760   27.2680 N.pl3 103  ARG103      0.1354
    167  N         12.9480  -11.4870   25.6960 N.3   107  LEU107     -0.1245
    168  CA        11.8320  -11.5000   24.7770 C.3   107  LEU107      0.1561
    169  C         11.6430  -10.1280   24.1260 C.2   107  LEU107      0.2260
    170  O         11.7930   -9.0840   24.7880 O.2   107  LEU107     -0.2867
    171  CB        10.5770  -11.9480   25.5270 C.3   107  LEU107      0.0270
    172  CG         9.5320  -12.6430   24.6920 C.3   107  LEU107      0.0019
    173  CD1       10.0050  -14.0160   24.2550 C.3   107  LEU107      0.0001
    174  CD2        8.2570  -12.7910   25.4660 C.3   107  LEU107      0.0001
    175  N          6.0160  -18.6820   40.2100 N.3   143  LYS143     -0.1245
    176  CA         6.8570  -18.9530   39.0570 C.3   143  LYS143      0.1561
    177  C          7.2230  -17.6250   38.4300 C.2   143  LYS143      0.2260
    178  O          6.5170  -16.6190   38.6580 O.2   143  LYS143     -0.2867
    179  CB         6.1640  -19.8930   38.0560 C.3   143  LYS143      0.0271
    180  CG         4.8590  -19.3980   37.4480 C.3   143  LYS143      0.0035
    181  CD         4.3710  -20.3830   36.4370 C.3   143  LYS143      0.0206
    182  CE         3.0480  -19.9550   35.8560 C.3   143  LYS143      0.1093
    183  NZ         2.5550  -20.9340   34.8500 N.3   143  LYS143     -0.1314
    184  N          6.9570  -16.5080   35.4390 N.3   145  ALA145     -0.1231
    185  CA         5.9310  -15.9770   34.5140 C.3   145  ALA145      0.1694
    186  C          4.8350  -15.2370   35.2880 C.2   145  ALA145      0.2592
    187  O          4.0550  -14.5110   34.6720 O.2   145  ALA145     -0.2718
    188  CB         5.3170  -17.1060   33.6940 C.3   145  ALA145      0.0304
    189  N          4.7760  -15.4340   36.6410 N.am  146  ASN146     -0.1974
    190  CA         3.8150  -14.8050   37.5520 C.3   146  ASN146      0.1688
    191  C          4.3990  -13.6500   38.3550 C.2   146  ASN146      0.2292
    192  O          3.6810  -13.0570   39.1550 O.2   146  ASN146     -0.2864
    193  CB         3.1200  -15.8240   38.4480 C.3   146  ASN146      0.1181
    194  CG         2.0250  -16.6100   37.7410 C.2   146  ASN146      0.2629
    195  OD1        1.5680  -16.2720   36.6390 O.2   146  ASN146     -0.2716
    196  ND2        1.6040  -17.7070   38.3420 N.am  146  ASN146     -0.0877
    197  N          5.6140  -10.0730   37.7520 N.3   148  LEU148     -0.1245
    198  CA         5.5300   -9.0150   36.7670 C.3   148  LEU148      0.1561
    199  C          6.4040   -7.8540   37.1810 C.2   148  LEU148      0.2260
    200  O          6.6910   -7.6940   38.3800 O.2   148  LEU148     -0.2867
    201  CB         4.0800   -8.5960   36.5980 C.3   148  LEU148      0.0270
    202  CG         3.2610   -9.2900   35.5000 C.3   148  LEU148      0.0019
    203  CD1        3.6600  -10.7480   35.2520 C.3   148  LEU148      0.0001
    204  CD2        1.8600   -9.2740   35.8630 C.3   148  LEU148      0.0001
    205  N          1.5930  -11.8480   40.6180 N.3   158  SER158     -0.1202
    206  CA         0.2940  -11.9030   39.9420 C.3   158  SER158      0.2020
    207  C         -0.3040  -13.2960   40.0500 C.2   158  SER158      0.2618
    208  O          0.3590  -14.1820   40.5700 O.2   158  SER158     -0.2717
    209  CB         0.4330  -11.4980   38.4770 C.3   158  SER158      0.2103
    210  OG         1.3610  -12.3190   37.7870 O.3   158  SER158     -0.2182
    211  N         -1.5430  -13.4890   39.5510 N.am  159  ASP159     -0.1973
    212  CA        -2.3020  -14.7580   39.5250 C.3   159  ASP159      0.1709
    213  C         -2.6750  -15.3390   40.8840 C.2   159  ASP159      0.2293
    214  O         -1.9730  -16.1920   41.4310 O.2   159  ASP159     -0.2864
    215  CB        -1.6810  -15.7990   38.5810 C.3   159  ASP159      0.1436
    216  CG        -2.3430  -15.8340   37.2290 C.2   159  ASP159      0.3671
    217  OD1       -3.3940  -16.5060   37.1040 O.co2 159  ASP159     -0.2456
    218  OD2       -1.8140  -15.1850   36.2890 O.co2 159  ASP159     -0.2456
@<TRIPOS>BOND
     1     3     2    1
     2     3     4    2
     3     2     1    1
     4     2     5    1
     5     7     5    1
     6     5     6    1
     7     6     8    1
     8    29    27   ar
     9    27    28   ar
    10    27    26    1
    11   169   168    1
    12   169   170    2
    13   173   172    1
    14   172   174    1
    15   172   171    1
    16   168   171    1
    17   168   167    1
    18    45    44    1
    19    26    25    1
    20    40    39    2
    21    43    44    1
    22    43    42    1
    23     9    10    1
    24    41    42    1
    25    41    38    1
    26    25    22    1
    27    39    38    1
    28    37    38    1
    29    10    11    1
    30    10    13    1
    31    12    11    2
    32    11    17   am
    33    14    13    1
    34    14    15    1
    35    33    32    2
    36   166   164    1
    37    20    19    2
    38    22    21    1
    39    22    23    1
    40    17    18    1
    41    19    21   am
    42    19    18    1
    43   106   105    1
    44    32    31    1
    45    15    16    1
    46    23    24    2
    47   151   150    2
    48   164   163    2
    49   164   165    1
    50   154   153   ar
    51   105   103   ar
    52   105   104   ar
    53    30    31    1
    54   153   152    1
    55   153   155   ar
    56   103   101   ar
    57   152   149    1
    58   163   162    1
    59    31    34    1
    60   104   102   ar
    61   149   150    1
    62   149   148    1
    63   150   156   am
    64   118   117    2
    65   101   100   ar
    66    34    35    1
    67    34    36    1
    68   159   158    2
    69   102   100   ar
    70   162   161    1
    71   156   157    1
    72   148   142   am
    73   143   142    2
    74   157   158    1
    75   157   160    1
    76   100    99    1
    77   117   116    1
    78   117   122   am
    79   128   127    2
    80   147   145    1
    81   142   141    1
    82   116   119    1
    83   116   115    1
    84   145   146    1
    85   145   144    1
    86   131   130    1
    87   131   132    1
    88   125   124    2
    89   161   160    1
    90   130   124   am
    91    47    48    1
    92    47    46    1
    93    47    50    1
    94   124   123    1
    95   119   120    1
    96   123   122    1
    97   123   126    1
    98    99    96    1
    99    48    49    2
   100   110   109    2
   101    53    52    1
   102    53    54    2
   103    51    52    1
   104   139   138    1
   105    52    55    1
   106   127   126    1
   107   127   129   am
   108   144   141    1
   109   134   132   am
   110   134   135    1
   111   141   140    1
   112   115   109   am
   113   115   121    1
   114   137   136    2
   115   132   133    2
   116   109   108    1
   117   120   121    1
   118   138   135    1
   119    96    97    1
   120    96    95    1
   121   135   136    1
   122    55    56    1
   123    56    57    1
   124   107    97   am
   125   107   108    1
   126    97    98    2
   127   188   185    1
   128   108   111    1
   129    95    90   am
   130   185   186    1
   131   185   184    1
   132    79    78    2
   133   187   186    2
   134   111   112    1
   135   183   182    1
   136    57    58    1
   137   203   202    1
   138   186   189   am
   139    58    59    1
   140    90    91    2
   141    90    89    1
   142   202   204    1
   143   202   201    1
   144    76    77    1
   145    78    77    1
   146    78    88   am
   147   182   181    1
   148   112   113    1
   149    82    84   ar
   150    82    81   ar
   151    89    88    1
   152    89    92    1
   153   218   216   ar
   154    77    80    1
   155    80    81    1
   156   181   180    1
   157    84    86   ar
   158   201   198    1
   159   195   194    2
   160   189   190    1
   161   198   199    1
   162   198   197    1
   163    93    92    1
   164    81    83   ar
   165   217   216   ar
   166   199   200    2
   167   216   215    1
   168   114   113    1
   169    92    94    1
   170   180   179    1
   171   190   191    1
   172   190   193    1
   173   194   196   am
   174   194   193    1
   175   210   209    1
   176    86    87    1
   177    86    85   ar
   178   179   176    1
   179    83    85   ar
   180   191   192    2
   181   177   178    2
   182   177   176    1
   183   209   206    1
   184   215   212    1
   185   176   175    1
   186    74    73    1
   187    67    66   ar
   188   212   211    1
   189   212   213    1
   190   211   207   am
   191    73    75    1
   192    73    70    1
   193    66    68   ar
   194    66    65    1
   195   206   207    1
   196   206   205    1
   197   207   208    2
   198    65    64    1
   199   213   214    2
   200    70    71    1
   201    70    69    1
   202    64    61    1
   203    71    72    2
   204    61    60    1
   205    61    62    1
   206    62    63    2
