@<TRIPOS>MOLECULE
tmp/4ztnB00.pdb
 191 182 0 0 0
SMALL
GASTEIGER

@<TRIPOS>ATOM
      1  N          1.2550   -7.1660   20.2310 N.3    25  ILE25      -0.1245
      2  CA         1.5060   -5.7280   20.0390 C.3    25  ILE25       0.1561
      3  C          2.9080   -5.5290   19.4620 C.2    25  ILE25       0.2260
      4  O          3.9020   -5.6730   20.1760 O.2    25  ILE25      -0.2867
      5  CB         1.3050   -4.8590   21.3210 C.3    25  ILE25       0.0252
      6  CG1        0.0730   -5.2850   22.1480 C.3    25  ILE25       0.0019
      7  CG2        1.1910   -3.3730   20.9590 C.3    25  ILE25       0.0019
      8  CD1        0.4180   -5.6240   23.4480 C.3    25  ILE25       0.0001
      9  N         -1.0650   -9.6810   24.7430 N.3    32  MET32      -0.1230
     10  CA         0.2190   -9.6630   25.4530 C.3    32  MET32       0.1702
     11  C          0.6280  -11.0720   25.8580 C.2    32  MET32       0.2593
     12  O          1.8200  -11.3470   26.0220 O.2    32  MET32      -0.2718
     13  CB         0.1020   -8.7780   26.6920 C.3    32  MET32       0.0401
     14  CG        -0.2740   -7.3720   26.3300 C.3    32  MET32       0.0596
     15  SD        -0.1100   -6.1880   27.6610 S.3    32  MET32      -0.1393
     16  CE        -1.5190   -6.4730   28.5610 C.3    32  MET32       0.0692
     17  N         -0.3640  -11.9490   26.0550 N.am   33  GLY33      -0.1942
     18  CA        -0.1170  -13.3290   26.3900 C.3    33  GLY33       0.2014
     19  C         -1.3800  -14.0590   26.7480 C.2    33  GLY33       0.2638
     20  O         -2.4760  -13.5110   26.6490 O.2    33  GLY33      -0.2714
     21  N         -1.2130  -15.3040   27.1730 N.am   34  GLU34      -0.1977
     22  CA        -2.3120  -16.1680   27.5750 C.3    34  GLU34       0.1602
     23  C         -1.7490  -17.3120   28.4110 C.2    34  GLU34       0.2287
     24  O         -0.5460  -17.3210   28.6850 O.2    34  GLU34      -0.2864
     25  CB        -3.0640  -16.6920   26.3280 C.3    34  GLU34       0.0415
     26  CG        -2.2620  -17.5850   25.3960 C.3    34  GLU34       0.1163
     27  CD        -3.0330  -17.9880   24.1530 C.2    34  GLU34       0.3649
     28  OE1       -4.1070  -18.6150   24.2980 O.co2  34  GLU34      -0.2457
     29  OE2       -2.5630  -17.6810   23.0340 O.co2  34  GLU34      -0.2457
     30  N         -4.5900  -12.0130   28.1320 N.3    40  VAL40      -0.1245
     31  CA        -4.3370  -10.6700   28.6280 C.3    40  VAL40       0.1561
     32  C         -4.1150   -9.7340   27.4370 C.2    40  VAL40       0.2260
     33  O         -3.1690   -9.9330   26.6720 O.2    40  VAL40      -0.2867
     34  CB        -3.1700  -10.6400   29.6400 C.3    40  VAL40       0.0252
     35  CG1       -3.0410   -9.2580   30.2490 C.3    40  VAL40       0.0019
     36  CG2       -3.3880  -11.6630   30.7480 C.3    40  VAL40       0.0019
     37  N         -4.4780   -3.4970   31.3580 N.3    51  ALA51      -0.1245
     38  CA        -4.3110   -4.8770   30.9540 C.3    51  ALA51       0.1562
     39  C         -5.6370   -5.5430   31.2740 C.2    51  ALA51       0.2260
     40  O         -6.0540   -5.5130   32.4270 O.2    51  ALA51      -0.2867
     41  CB        -3.1820   -5.5240   31.7420 C.3    51  ALA51       0.0290
     42  N         -7.9220   -8.9460   31.3260 N.3    53  LYS53      -0.1245
     43  CA        -7.8100  -10.3990   31.3480 C.3    53  LYS53       0.1561
     44  C         -9.1610  -11.0340   31.0290 C.2    53  LYS53       0.2260
     45  O         -9.9580  -11.2710   31.9380 O.2    53  LYS53      -0.2867
     46  CB        -7.2910  -10.8760   32.7220 C.3    53  LYS53       0.0271
     47  CG        -6.9490  -12.3720   32.7820 C.3    53  LYS53       0.0035
     48  CD        -6.8010  -12.8940   34.2160 C.3    53  LYS53       0.0206
     49  CE        -5.3690  -13.1520   34.6000 C.3    53  LYS53       0.1093
     50  NZ        -5.2210  -13.3620   36.0660 N.3    53  LYS53      -0.1314
     51  N          0.2040   -7.1730   41.6480 N.3    76  VAL76      -0.1245
     52  CA        -0.4170   -6.3880   40.5510 C.3    76  VAL76       0.1561
     53  C         -1.6570   -5.6900   41.0980 C.2    76  VAL76       0.2260
     54  O         -2.3100   -6.2410   41.9860 O.2    76  VAL76      -0.2867
     55  CB        -0.7970   -7.1900   39.2840 C.3    76  VAL76       0.0252
     56  CG1        0.4340   -7.6170   38.5290 C.3    76  VAL76       0.0019
     57  CG2       -1.7040   -8.3840   39.5920 C.3    76  VAL76       0.0019
     58  N         -6.4620   -4.5310   35.0830 N.3    92  TYR92      -0.1227
     59  CA        -5.3210   -4.2040   35.9410 C.3    92  TYR92       0.1736
     60  C         -4.5610   -3.0310   35.4210 C.2    92  TYR92       0.2595
     61  O         -4.7090   -2.6650   34.2520 O.2    92  TYR92      -0.2718
     62  CB        -4.3320   -5.3900   35.9740 C.3    92  TYR92       0.0548
     63  CG        -4.9500   -6.6940   36.4020 C.ar   92  TYR92      -0.0200
     64  CD1       -5.5590   -7.5370   35.4770 C.ar   92  TYR92      -0.0009
     65  CD2       -4.8890   -7.1120   37.7250 C.ar   92  TYR92      -0.0009
     66  CE1       -6.1170   -8.7490   35.8610 C.ar   92  TYR92       0.0417
     67  CE2       -5.4470   -8.3240   38.1200 C.ar   92  TYR92       0.0417
     68  CZ        -6.0640   -9.1350   37.1860 C.ar   92  TYR92       0.1957
     69  OH        -6.5870  -10.3440   37.5470 O.3    92  TYR92      -0.2866
     70  N         -3.6440   -2.5210   36.2500 N.am   93  VAL93      -0.1966
     71  CA        -2.7210   -1.4750   35.8300 C.3    93  VAL93       0.1727
     72  C         -1.7800   -2.1920   34.8440 C.2    93  VAL93       0.2616
     73  O         -1.3920   -3.3450   35.0830 O.2    93  VAL93      -0.2715
     74  CB        -1.9590   -0.8580   37.0460 C.3    93  VAL93       0.0290
     75  CG1       -0.8530    0.0910   36.5970 C.3    93  VAL93       0.0023
     76  CG2       -2.9240   -0.1080   37.9470 C.3    93  VAL93       0.0023
     77  N         -1.4950   -1.5480   33.7110 N.am   94  TYR94      -0.1960
     78  CA        -0.6150   -2.1120   32.6890 C.3    94  TYR94       0.1771
     79  C          0.8330   -2.1950   33.2200 C.2    94  TYR94       0.2619
     80  O          1.3200   -1.2830   33.8790 O.2    94  TYR94      -0.2715
     81  CB        -0.7010   -1.2520   31.4150 C.3    94  TYR94       0.0574
     82  CG         0.3240   -1.5470   30.3430 C.ar   94  TYR94      -0.0198
     83  CD1        0.1870   -2.6450   29.5070 C.ar   94  TYR94      -0.0009
     84  CD2        1.3380   -0.6410   30.0600 C.ar   94  TYR94      -0.0009
     85  CE1        1.0840   -2.8780   28.4680 C.ar   94  TYR94       0.0417
     86  CE2        2.2420   -0.8650   29.0300 C.ar   94  TYR94       0.0417
     87  CZ         2.1270   -1.9980   28.2470 C.ar   94  TYR94       0.1957
     88  OH         3.0090   -2.2290   27.2130 O.3    94  TYR94      -0.2866
     89  N          1.4730   -3.3300   32.9880 N.am   95  MET95      -0.1964
     90  CA         2.8460   -3.5830   33.4120 C.3    95  MET95       0.1722
     91  C          3.6980   -3.4490   32.1460 C.2    95  MET95       0.2458
     92  O          3.7460   -4.3950   31.3650 O.2    95  MET95      -0.2730
     93  CB         2.9230   -4.9800   34.0410 C.3    95  MET95       0.0427
     94  CG         2.0910   -5.0860   35.3130 C.3    95  MET95       0.0599
     95  SD         2.8540   -4.2030   36.7150 S.3    95  MET95      -0.1393
     96  CE         1.8280   -2.8030   36.8670 C.3    95  MET95       0.0692
     97  N          4.3170   -2.2550   31.8980 N.am   96  PRO96      -0.2716
     98  CA         5.0740   -2.0350   30.6560 C.3    96  PRO96       0.1536
     99  C          6.2520   -2.9540   30.3960 C.2    96  PRO96       0.2599
    100  O          6.6650   -3.0350   29.2440 O.2    96  PRO96      -0.2715
    101  CB         5.5300   -0.5730   30.7620 C.3    96  PRO96       0.0310
    102  CG         5.4120   -0.2350   32.1700 C.3    96  PRO96       0.0237
    103  CD         4.2880   -1.0190   32.7030 C.3    96  PRO96       0.0939
    104  N          6.7960   -3.6400   31.4190 N.am   97  ASN97      -0.1959
    105  CA         7.9510   -4.5010   31.2040 C.3    97  ASN97       0.1819
    106  C          7.5990   -5.9530   31.2540 C.2    97  ASN97       0.2622
    107  O          8.5020   -6.7660   31.3000 O.2    97  ASN97      -0.2715
    108  CB         9.0780   -4.1010   32.1610 C.3    97  ASN97       0.1195
    109  CG         9.5940   -2.7610   31.7050 C.2    97  ASN97       0.2630
    110  OD1       10.0060   -2.6160   30.5590 O.2    97  ASN97      -0.2716
    111  ND2        9.4750   -1.7290   32.5100 N.am   97  ASN97      -0.0877
    112  N          6.2980   -6.2940   31.0690 N.am   98  GLY98      -0.1940
    113  CA         5.8150   -7.6620   30.9670 C.3    98  GLY98       0.2014
    114  C          6.2340   -8.5580   32.0960 C.2    98  GLY98       0.2639
    115  O          6.3700   -8.0890   33.2160 O.2    98  GLY98      -0.2714
    116  N          6.4430   -9.8570   31.8010 N.am   99  SER99      -0.1949
    117  CA         6.7980  -10.8160   32.8250 C.3    99  SER99       0.1924
    118  C          8.2870  -10.9910   32.9810 C.2    99  SER99       0.2314
    119  O          9.0590  -10.6500   32.0950 O.2    99  SER99      -0.2863
    120  CB         6.1210  -12.1630   32.5780 C.3    99  SER99       0.2116
    121  OG         6.7160  -12.8890   31.5240 O.3    99  SER99      -0.2180
    122  N          9.6880  -13.8870   33.0430 N.3   101  LEU101     -0.1231
    123  CA        10.0530  -14.9220   32.0810 C.3   101  LEU101      0.1693
    124  C         10.4280  -14.2820   30.7330 C.2   101  LEU101      0.2592
    125  O         11.4500  -14.6370   30.1670 O.2   101  LEU101     -0.2718
    126  CB         8.9120  -15.9420   31.9030 C.3   101  LEU101      0.0284
    127  CG         9.1600  -17.1030   30.9260 C.3   101  LEU101      0.0019
    128  CD1       10.3050  -17.9970   31.3780 C.3   101  LEU101      0.0001
    129  CD2        7.9210  -17.9390   30.7640 C.3   101  LEU101      0.0001
    130  N          9.6120  -13.3420   30.2320 N.am  102  ASP102     -0.1960
    131  CA         9.8660  -12.6190   28.9780 C.3   102  ASP102      0.1840
    132  C         11.1830  -11.8630   29.0350 C.2   102  ASP102      0.2621
    133  O         11.9220  -11.8660   28.0540 O.2   102  ASP102     -0.2715
    134  CB         8.7690  -11.5830   28.6870 C.3   102  ASP102      0.1450
    135  CG         7.3690  -12.1270   28.4970 C.2   102  ASP102      0.3671
    136  OD1        7.2300  -13.3430   28.2350 O.co2 102  ASP102     -0.2456
    137  OD2        6.4100  -11.3310   28.6070 O.co2 102  ASP102     -0.2456
    138  N         11.4630  -11.2030   30.1580 N.am  103  ARG103     -0.1977
    139  CA        12.6810  -10.4130   30.3090 C.3   103  ARG103      0.1597
    140  C         13.9000  -11.2840   30.4820 C.2   103  ARG103      0.2287
    141  O         14.9580  -10.9110   29.9730 O.2   103  ARG103     -0.2864
    142  CB        12.5630   -9.3610   31.4340 C.3   103  ARG103      0.0334
    143  CG        11.4640   -8.3180   31.2010 C.3   103  ARG103      0.0492
    144  CD        11.7360   -7.3260   30.0820 C.3   103  ARG103      0.2205
    145  NE        11.5680   -7.8950   28.7450 N.pl3 103  ARG103     -0.0865
    146  CZ        10.4070   -8.1480   28.1480 C.cat 103  ARG103      0.5346
    147  NH1        9.2590   -7.8890   28.7640 N.pl3 103  ARG103      0.1354
    148  NH2       10.3820   -8.6630   26.9310 N.pl3 103  ARG103      0.1354
    149  N         12.7480  -11.4730   25.3020 N.3   107  LEU107     -0.1231
    150  CA        11.6800  -11.5150   24.3120 C.3   107  LEU107      0.1693
    151  C         11.4740  -10.1450   23.6320 C.2   107  LEU107      0.2592
    152  O         11.5410   -9.1140   24.2940 O.2   107  LEU107     -0.2718
    153  CB        10.3890  -11.9800   25.0090 C.3   107  LEU107      0.0284
    154  CG         9.2420  -12.4670   24.1480 C.3   107  LEU107      0.0019
    155  CD1        9.6110  -13.7510   23.4310 C.3   107  LEU107      0.0001
    156  CD2        8.0200  -12.7450   25.0120 C.3   107  LEU107      0.0001
    157  N         11.2900  -10.1420   22.3030 N.am  108  ASP108     -0.1974
    158  CA        11.0620   -8.9410   21.4910 C.3   108  ASP108      0.1709
    159  C         12.2260   -7.9420   21.4990 C.2   108  ASP108      0.2293
    160  O         12.0070   -6.7530   21.2910 O.2   108  ASP108     -0.2864
    161  CB         9.7300   -8.2530   21.8840 C.3   108  ASP108      0.1436
    162  CG         8.5350   -9.1600   21.6990 C.2   108  ASP108      0.3671
    163  OD1        8.5010   -9.9050   20.6860 O.co2 108  ASP108     -0.2456
    164  OD2        7.6360   -9.1320   22.5560 O.co2 108  ASP108     -0.2456
    165  N          6.6130  -16.4670   34.8710 N.3   145  ALA145     -0.1245
    166  CA         5.5400  -15.9240   34.0110 C.3   145  ALA145      0.1562
    167  C          4.4830  -15.1450   34.8400 C.2   145  ALA145      0.2260
    168  O          3.8150  -14.2770   34.2910 O.2   145  ALA145     -0.2867
    169  CB         4.8710  -17.0540   33.2330 C.3   145  ALA145      0.0290
    170  N          5.3090   -9.9850   37.2650 N.3   148  LEU148     -0.1245
    171  CA         5.2770   -8.9200   36.2790 C.3   148  LEU148      0.1561
    172  C          6.1480   -7.7680   36.7070 C.2   148  LEU148      0.2260
    173  O          6.5210   -7.6950   37.8680 O.2   148  LEU148     -0.2867
    174  CB         3.8440   -8.5040   35.9860 C.3   148  LEU148      0.0270
    175  CG         2.9360   -9.6710   35.5430 C.3   148  LEU148      0.0019
    176  CD1        1.5740   -9.2210   35.4400 C.3   148  LEU148      0.0001
    177  CD2        3.3230  -10.2320   34.1970 C.3   148  LEU148      0.0001
    178  N          1.3060  -11.8140   40.2560 N.3   158  SER158     -0.1202
    179  CA         0.0060  -11.8180   39.5750 C.3   158  SER158      0.2020
    180  C         -0.6230  -13.2050   39.6100 C.2   158  SER158      0.2618
    181  O          0.0090  -14.1600   40.0640 O.2   158  SER158     -0.2717
    182  CB         0.1670  -11.3730   38.1200 C.3   158  SER158      0.2103
    183  OG         0.8340  -12.3530   37.3430 O.3   158  SER158     -0.2182
    184  N         -1.8610  -13.3130   39.0910 N.am  159  ASP159     -0.1973
    185  CA        -2.6240  -14.5610   38.9730 C.3   159  ASP159      0.1709
    186  C         -2.9570  -15.1780   40.3380 C.2   159  ASP159      0.2293
    187  O         -2.2770  -16.0830   40.8100 O.2   159  ASP159     -0.2864
    188  CB        -1.9120  -15.5680   38.0240 C.3   159  ASP159      0.1436
    189  CG        -2.7630  -15.9800   36.8410 C.2   159  ASP159      0.3671
    190  OD1       -3.7790  -16.6850   37.0570 O.co2 159  ASP159     -0.2456
    191  OD2       -2.4240  -15.5870   35.7000 O.co2 159  ASP159     -0.2456
@<TRIPOS>BOND
     1     3     2    1
     2     3     4    2
     3     2     1    1
     4     2     5    1
     5   163   162   ar
     6     7     5    1
     7   160   159    2
     8     5     6    1
     9   158   159    1
    10   158   161    1
    11   158   157    1
    12   162   161    1
    13   162   164   ar
    14     6     8    1
    15   157   151   am
    16    29    27   ar
    17   155   154    1
    18   151   152    2
    19   151   150    1
    20   154   153    1
    21   154   156    1
    22    27    28   ar
    23    27    26    1
    24   150   153    1
    25   150   149    1
    26     9    10    1
    27    26    25    1
    28    10    11    1
    29    10    13    1
    30    11    12    2
    31    11    17   am
    32    17    18    1
    33    25    22    1
    34    14    13    1
    35    14    15    1
    36    18    19    1
    37    20    19    2
    38    33    32    2
    39    19    21   am
    40   148   146    1
    41    21    22    1
    42    88    87    1
    43    32    31    1
    44    22    23    1
    45    15    16    1
    46   133   132    2
    47    30    31    1
    48   146   145    2
    49   146   147    1
    50   136   135   ar
    51    87    85   ar
    52    87    86   ar
    53    23    24    2
    54    85    83   ar
    55   135   137   ar
    56   135   134    1
    57    31    34    1
    58   134   131    1
    59   145   144    1
    60   131   132    1
    61   131   130    1
    62    86    84   ar
    63   132   138   am
    64   100    99    2
    65    83    82   ar
    66    34    35    1
    67    34    36    1
    68   141   140    2
    69    84    82   ar
    70   144   143    1
    71   138   139    1
    72   125   124    2
    73   130   124   am
    74   139   140    1
    75   139   142    1
    76    82    81    1
    77    99    98    1
    78    99   104   am
    79   110   109    2
    80    98   101    1
    81    98    97    1
    82   124   123    1
    83   101   102    1
    84   129   127    1
    85   127   128    1
    86   127   126    1
    87    38    39    1
    88    38    37    1
    89    38    41    1
    90   113   112    1
    91   113   114    1
    92    44    43    1
    93    44    45    2
    94   112   106   am
    95   143   142    1
    96   105   106    1
    97   105   104    1
    98   105   108    1
    99   106   107    2
   100    39    40    2
   101    42    43    1
   102    43    46    1
   103    92    91    2
   104    81    78    1
   105   121   120    1
   106   109   108    1
   107   109   111   am
   108   116   114   am
   109   116   117    1
   110    97    91   am
   111    97   103    1
   112   126   123    1
   113   123   122    1
   114   119   118    2
   115   114   115    2
   116    91    90    1
   117   102   103    1
   118   120   117    1
   119    78    79    1
   120    78    77    1
   121    46    47    1
   122    47    48    1
   123   117   118    1
   124    89    79   am
   125    89    90    1
   126    79    80    2
   127   169   166    1
   128    90    93    1
   129    77    72   am
   130   166   167    1
   131   166   165    1
   132    93    94    1
   133   177   175    1
   134    48    49    1
   135    61    60    2
   136   168   167    2
   137    49    50    1
   138    72    73    2
   139    72    71    1
   140    58    59    1
   141    94    95    1
   142    60    59    1
   143    60    70   am
   144   176   175    1
   145    64    66   ar
   146    64    63   ar
   147   175   174    1
   148   191   189   ar
   149    71    70    1
   150    71    74    1
   151    66    68   ar
   152    59    62    1
   153    62    63    1
   154   174   171    1
   155   171   172    1
   156   171   170    1
   157    63    65   ar
   158    75    74    1
   159   172   173    2
   160    95    96    1
   161   189   190   ar
   162   189   188    1
   163    74    76    1
   164    68    69    1
   165    68    67   ar
   166   183   182    1
   167    65    67   ar
   168   188   185    1
   169   182   179    1
   170    56    55    1
   171   185   184    1
   172   185   186    1
   173   184   180   am
   174    55    57    1
   175    55    52    1
   176   179   180    1
   177   179   178    1
   178   180   181    2
   179   186   187    2
   180    52    53    1
   181    52    51    1
   182    53    54    2
