@<TRIPOS>MOLECULE
tmp/4ztoD00.pdb
 85 84 0 0 0
SMALL
GASTEIGER

@<TRIPOS>ATOM
      1  N        -55.1110    1.2420  -64.9760 N.3    28  ALA28      -0.1231
      2  CA       -55.4480   -0.1790  -64.9090 C.3    28  ALA28       0.1694
      3  C        -54.3270   -0.9880  -64.2690 C.2    28  ALA28       0.2592
      4  O        -53.1600   -0.7600  -64.5660 O.2    28  ALA28      -0.2718
      5  CB       -55.7580   -0.7170  -66.2980 C.3    28  ALA28       0.0304
      6  N        -54.6930   -1.9230  -63.3950 N.am   29  ILE29      -0.1966
      7  CA       -53.7330   -2.8190  -62.7380 C.3    29  ILE29       0.1727
      8  C        -54.2130   -4.2660  -62.7320 C.2    29  ILE29       0.2616
      9  O        -53.7400   -5.0790  -61.9300 O.2    29  ILE29      -0.2715
     10  CB       -53.4400   -2.3970  -61.2700 C.3    29  ILE29       0.0290
     11  CG1      -54.7470   -2.2830  -60.4630 C.3    29  ILE29       0.0022
     12  CG2      -52.6220   -1.1080  -61.2270 C.3    29  ILE29       0.0023
     13  CD1      -54.5490   -2.1600  -58.9570 C.3    29  ILE29       0.0001
     14  N        -55.1330   -4.5800  -63.6420 N.am   30  ASP30      -0.1957
     15  CA       -55.6950   -5.9250  -63.7860 C.3    30  ASP30       0.1840
     16  C        -56.2740   -6.3910  -62.4580 C.2    30  ASP30       0.2622
     17  O        -57.2250   -5.7810  -61.9800 O.2    30  ASP30      -0.2715
     18  CB       -54.6500   -6.9120  -64.3180 C.3    30  ASP30       0.1450
     19  CG       -54.4260   -6.7680  -65.8210 C.2    30  ASP30       0.3671
     20  OD1      -55.2500   -6.1000  -66.4910 O.co2  30  ASP30      -0.2456
     21  OD2      -53.4320   -7.3310  -66.3390 O.co2  30  ASP30      -0.2456
     22  N        -55.7280   -7.4530  -61.8650 N.am   31  GLU31      -0.1963
     23  CA       -56.1260   -7.8320  -60.5030 C.3    31  GLU31       0.1733
     24  C        -54.9330   -7.9090  -59.5260 C.2    31  GLU31       0.2616
     25  O        -54.9920   -8.6290  -58.5360 O.2    31  GLU31      -0.2715
     26  CB       -56.8870   -9.1670  -60.5050 C.3    31  GLU31       0.0429
     27  CG       -58.2120   -9.1560  -61.2860 C.3    31  GLU31       0.1163
     28  CD       -57.9850   -9.1990  -62.8020 C.2    31  GLU31       0.3649
     29  OE1      -57.1890  -10.0520  -63.2560 O.co2  31  GLU31      -0.2457
     30  OE2      -58.5720   -8.3660  -63.5380 O.co2  31  GLU31      -0.2457
     31  N        -53.8620   -7.1650  -59.8090 N.am   32  TYR32      -0.1974
     32  CA       -52.6790   -7.1260  -58.9330 C.3    32  TYR32       0.1639
     33  C        -52.8980   -6.2300  -57.7100 C.2    32  TYR32       0.2290
     34  O        -52.3130   -5.1540  -57.5990 O.2    32  TYR32      -0.2864
     35  CB       -51.4500   -6.6440  -59.7080 C.3    32  TYR32       0.0560
     36  CG       -51.1030   -7.5230  -60.8880 C.ar   32  TYR32      -0.0198
     37  CD1      -51.4080   -7.1360  -62.1910 C.ar   32  TYR32      -0.0009
     38  CD2      -50.4730   -8.7440  -60.7000 C.ar   32  TYR32      -0.0009
     39  CE1      -51.0880   -7.9410  -63.2700 C.ar   32  TYR32       0.0417
     40  CE2      -50.1570   -9.5630  -61.7760 C.ar   32  TYR32       0.0417
     41  CZ       -50.4620   -9.1540  -63.0540 C.ar   32  TYR32       0.1957
     42  OH       -50.1390   -9.9700  -64.1130 O.3    32  TYR32      -0.2866
     43  N        -46.9070   -5.7590  -57.9010 N.3    92  TYR92      -0.1227
     44  CA       -46.6470   -6.0140  -59.3070 C.3    92  TYR92       0.1736
     45  C        -45.2280   -5.6270  -59.7220 C.2    92  TYR92       0.2595
     46  O        -44.7720   -4.5140  -59.4380 O.2    92  TYR92      -0.2718
     47  CB       -47.6360   -5.2440  -60.1690 C.3    92  TYR92       0.0548
     48  CG       -47.4090   -5.4070  -61.6520 C.ar   92  TYR92      -0.0200
     49  CD1      -47.8700   -6.5320  -62.3150 C.ar   92  TYR92      -0.0009
     50  CD2      -46.7470   -4.4300  -62.3930 C.ar   92  TYR92      -0.0009
     51  CE1      -47.6680   -6.6910  -63.6610 C.ar   92  TYR92       0.0417
     52  CE2      -46.5490   -4.5800  -63.7480 C.ar   92  TYR92       0.0417
     53  CZ       -47.0120   -5.7150  -64.3750 C.ar   92  TYR92       0.1957
     54  OH       -46.8310   -5.8980  -65.7260 O.3    92  TYR92      -0.2866
     55  N        -44.5440   -6.5540  -60.3910 N.am   93  VAL93      -0.1966
     56  CA       -43.2910   -6.2670  -61.0710 C.3    93  VAL93       0.1727
     57  C        -43.3410   -6.8780  -62.4840 C.2    93  VAL93       0.2617
     58  O        -43.2950   -8.1010  -62.6500 O.2    93  VAL93      -0.2715
     59  CB       -42.0630   -6.8140  -60.2950 C.3    93  VAL93       0.0290
     60  CG1      -40.7700   -6.3390  -60.9420 C.3    93  VAL93       0.0023
     61  CG2      -42.1130   -6.3960  -58.8330 C.3    93  VAL93       0.0023
     62  N        -43.4620   -6.0250  -63.4910 N.am   94  GLY94      -0.1940
     63  CA       -43.4860   -6.4760  -64.8640 C.3    94  GLY94       0.2014
     64  C        -42.1720   -6.2370  -65.5860 C.2    94  GLY94       0.2640
     65  O        -41.9760   -6.7410  -66.6910 O.2    94  GLY94      -0.2714
     66  N        -41.2850   -5.4620  -64.9610 N.am   95  SER95      -0.1935
     67  CA       -39.9140   -5.1970  -65.4410 C.3    95  SER95       0.2055
     68  C        -39.1590   -4.3600  -64.3980 C.2    95  SER95       0.2643
     69  O        -39.7020   -4.0420  -63.3310 O.2    95  SER95      -0.2714
     70  CB       -39.9100   -4.4760  -66.7980 C.3    95  SER95       0.2130
     71  OG       -40.3370   -3.1270  -66.6910 O.3    95  SER95      -0.2179
     72  N        -37.9180   -3.9940  -64.7020 N.am   96  SER96      -0.1949
     73  CA       -37.1000   -3.2830  -63.7250 C.3    96  SER96       0.1924
     74  C        -37.6020   -1.8590  -63.4860 C.2    96  SER96       0.2314
     75  O        -37.3760   -1.2840  -62.4150 O.2    96  SER96      -0.2863
     76  CB       -35.6310   -3.2640  -64.1540 C.3    96  SER96       0.2116
     77  OG       -35.4670   -2.6740  -65.4180 O.3    96  SER96      -0.2180
     78  N        -41.0000   -1.0580  -64.4120 N.3    98  ASN98      -0.1240
     79  CA       -42.4630   -1.1320  -64.3560 C.3    98  ASN98       0.1653
     80  C        -42.9700   -1.9880  -63.1820 C.2    98  ASN98       0.2266
     81  O        -43.2320   -3.1830  -63.3300 O.2    98  ASN98      -0.2867
     82  CB       -43.0110   -1.6750  -65.6820 C.3    98  ASN98       0.1155
     83  CG       -44.5340   -1.7540  -65.7060 C.2    98  ASN98       0.2627
     84  OD1      -45.2170   -1.0440  -64.9710 O.2    98  ASN98      -0.2716
     85  ND2      -45.0700   -2.6250  -66.5540 N.am   98  ASN98      -0.0877
@<TRIPOS>BOND
     1    70    71    1
     2    70    67    1
     3    65    64    2
     4    85    83   am
     5    20    19   ar
     6    21    19   ar
     7     5     2    1
     8    19    18    1
     9    54    53    1
    10    83    82    1
    11    83    84    2
    12    82    79    1
    13    64    66   am
    14    64    63    1
    15    67    66    1
    16    67    68    1
    17    77    76    1
    18     1     2    1
    19     2     3    1
    20    63    62    1
    21    72    68   am
    22    72    73    1
    23     4     3    2
    24    78    79    1
    25    68    69    2
    26    53    52   ar
    27    53    51   ar
    28    79    80    1
    29    18    15    1
    30     3     6   am
    31    76    73    1
    32    42    41    1
    33    15    14    1
    34    15    16    1
    35    52    50   ar
    36    73    74    1
    37    51    49   ar
    38    14     8   am
    39    30    28   ar
    40    62    57   am
    41    74    75    2
    42     6     7    1
    43    81    80    2
    44    39    41   ar
    45    39    37   ar
    46    29    28   ar
    47    41    40   ar
    48    28    27    1
    49     7     8    1
    50     7    10    1
    51     8     9    2
    52    58    57    2
    53    57    56    1
    54    16    17    2
    55    16    22   am
    56    50    48   ar
    57    49    48   ar
    58    37    36   ar
    59    22    23    1
    60    40    38   ar
    61    48    47    1
    62    27    26    1
    63    10    12    1
    64    10    11    1
    65    56    55    1
    66    56    59    1
    67    60    59    1
    68    36    38   ar
    69    36    35    1
    70    26    23    1
    71    23    24    1
    72    11    13    1
    73    55    45   am
    74    59    61    1
    75    47    44    1
    76    31    24   am
    77    31    32    1
    78    45    46    2
    79    45    44    1
    80    35    32    1
    81    24    25    2
    82    44    43    1
    83    32    33    1
    84    33    34    2
