@<TRIPOS>MOLECULE
tmp/4ztqA00.pdb
 204 193 0 0 0
SMALL
GASTEIGER

@<TRIPOS>ATOM
      1  N         -1.9900  -27.9950   -2.4820 N.3    13  LEU13      -0.1231
      2  CA        -1.1550  -29.1770   -2.6490 C.3    13  LEU13       0.1693
      3  C          0.1780  -29.0030   -1.9280 C.2    13  LEU13       0.2593
      4  O          0.9040  -29.9690   -1.6780 O.2    13  LEU13      -0.2718
      5  CB        -0.9290  -29.4420   -4.1370 C.3    13  LEU13       0.0284
      6  CG        -2.1410  -29.8910   -4.9570 C.3    13  LEU13       0.0019
      7  CD1       -1.8450  -29.7770   -6.4370 C.3    13  LEU13       0.0001
      8  CD2       -2.5450  -31.3190   -4.6110 C.3    13  LEU13       0.0001
      9  N          0.4840  -27.7550   -1.5930 N.am   14  GLY14      -0.1942
     10  CA         1.7140  -27.4020   -0.9070 C.3    14  GLY14       0.2014
     11  C          1.6930  -25.9290   -0.5610 C.2    14  GLY14       0.2639
     12  O          1.0480  -25.1310   -1.2470 O.2    14  GLY14      -0.2714
     13  N          2.3840  -25.5770    0.5190 N.am   15  LYS15      -0.1963
     14  CA         2.4910  -24.1960    0.9650 C.3    15  LYS15       0.1728
     15  C          3.9550  -23.7810    0.9470 C.2    15  LYS15       0.2617
     16  O          4.7670  -24.2940    1.7100 O.2    15  LYS15      -0.2715
     17  CB         1.8870  -24.0320    2.3630 C.3    15  LYS15       0.0311
     18  CG         0.4630  -24.5200    2.5670 C.3    15  LYS15       0.0038
     19  CD         0.0040  -23.9710    3.9210 C.3    15  LYS15       0.0206
     20  CE        -1.1900  -24.7040    4.4790 C.3    15  LYS15       0.1093
     21  NZ        -2.4290  -24.4450    3.7010 N.3    15  LYS15      -0.1314
     22  N          4.2900  -22.8640    0.0500 N.am   16  GLY16      -0.1940
     23  CA         5.6630  -22.3900   -0.0850 C.3    16  GLY16       0.2014
     24  C          5.9180  -21.0730    0.6210 C.2    16  GLY16       0.2639
     25  O          5.0040  -20.4670    1.1910 O.2    16  GLY16      -0.2714
     26  N          7.1720  -20.6320    0.5840 N.am   17  LYS17      -0.1963
     27  CA         7.5500  -19.3480    1.1570 C.3    17  LYS17       0.1728
     28  C          6.9050  -18.2130    0.3630 C.2    17  LYS17       0.2616
     29  O          6.4890  -17.2100    0.9430 O.2    17  LYS17      -0.2715
     30  CB         9.0740  -19.1920    1.1870 C.3    17  LYS17       0.0311
     31  CG         9.4900  -17.8940    1.8570 C.3    17  LYS17       0.0038
     32  CD        10.9310  -17.9030    2.3040 C.3    17  LYS17       0.0206
     33  CE        11.1950  -16.7380    3.2550 C.3    17  LYS17       0.1093
     34  NZ        10.8380  -15.4170    2.6460 N.3    17  LYS17      -0.1314
     35  N          6.8030  -18.3940   -0.9550 N.am   18  PHE18      -0.1960
     36  CA         6.2450  -17.3740   -1.8510 C.3    18  PHE18       0.1771
     37  C          4.8420  -17.7280   -2.3590 C.2    18  PHE18       0.2620
     38  O          4.5040  -17.4610   -3.5150 O.2    18  PHE18      -0.2715
     39  CB         7.1900  -17.1190   -3.0320 C.3    18  PHE18       0.0574
     40  CG         8.5560  -16.6400   -2.6290 C.ar   18  PHE18      -0.0200
     41  CD1        9.5740  -17.5490   -2.3470 C.ar   18  PHE18      -0.0042
     42  CD2        8.8330  -15.2800   -2.5460 C.ar   18  PHE18      -0.0042
     43  CE1       10.8380  -17.1110   -1.9790 C.ar   18  PHE18      -0.0003
     44  CE2       10.0960  -14.8350   -2.1800 C.ar   18  PHE18      -0.0003
     45  CZ        11.1010  -15.7510   -1.8960 C.ar   18  PHE18      -0.0000
     46  N          4.0320  -18.3260   -1.4880 N.am   19  GLY19      -0.1954
     47  CA         2.6560  -18.6870   -1.8290 C.3    19  GLY19       0.1869
     48  C          2.4100  -20.1760   -2.0190 C.2    19  GLY19       0.2309
     49  O          3.3460  -20.9800   -2.0920 O.2    19  GLY19      -0.2863
     50  N          0.6130  -23.7980   -3.7110 N.3    21  VAL21      -0.1245
     51  CA         0.2820  -24.5260   -4.9380 C.3    21  VAL21       0.1561
     52  C         -1.0900  -25.1500   -4.7340 C.2    21  VAL21       0.2260
     53  O         -1.3390  -25.7840   -3.7110 O.2    21  VAL21      -0.2867
     54  CB         1.2960  -25.6480   -5.2400 C.3    21  VAL21       0.0252
     55  CG1        0.8390  -26.4900   -6.4190 C.3    21  VAL21       0.0019
     56  CG2        2.6690  -25.0700   -5.5160 C.3    21  VAL21       0.0019
     57  N         -2.1040  -28.2380  -11.5630 N.3    34  ALA34      -0.1245
     58  CA        -1.7240  -27.5140  -10.3610 C.3    34  ALA34       0.1562
     59  C         -1.3800  -26.0770  -10.7110 C.2    34  ALA34       0.2260
     60  O         -0.8180  -25.7940  -11.7740 O.2    34  ALA34      -0.2867
     61  CB        -0.5560  -28.1890   -9.6630 C.3    34  ALA34       0.0290
     62  N          0.4880  -22.6660   -9.1510 N.3    36  LYS36      -0.1245
     63  CA         1.3160  -22.0030   -8.1430 C.3    36  LYS36       0.1561
     64  C          1.0770  -20.4990   -8.1220 C.2    36  LYS36       0.2260
     65  O          1.2850  -19.8210   -9.1240 O.2    36  LYS36      -0.2867
     66  CB         2.7990  -22.2790   -8.3620 C.3    36  LYS36       0.0271
     67  CG         3.5930  -22.0600   -7.0920 C.3    36  LYS36       0.0035
     68  CD         5.0460  -21.7220   -7.3450 C.3    36  LYS36       0.0206
     69  CE         5.8230  -21.8180   -6.0440 C.3    36  LYS36       0.1093
     70  NZ         5.0840  -21.2210   -4.8910 N.3    36  LYS36      -0.1314
     71  N         11.3490  -19.8850  -15.6300 N.3    56  VAL56      -0.1245
     72  CA        10.1380  -20.2250  -16.3720 C.3    56  VAL56       0.1561
     73  C         10.4300  -20.4180  -17.8670 C.2    56  VAL56       0.2260
     74  O          9.9200  -21.3550  -18.4860 O.2    56  VAL56      -0.2867
     75  CB         9.0250  -19.1800  -16.1340 C.3    56  VAL56       0.0252
     76  CG1        7.9150  -19.3140  -17.1600 C.3    56  VAL56       0.0019
     77  CG2        8.4550  -19.3330  -14.7330 C.3    56  VAL56       0.0019
     78  N         12.1650  -23.8130  -18.1630 N.3    59  GLN59      -0.1245
     79  CA        11.2940  -24.9240  -17.8900 C.3    59  GLN59       0.1566
     80  C         10.3410  -25.1580  -19.0410 C.2    59  GLN59       0.2260
     81  O         10.1860  -26.2620  -19.5020 O.2    59  GLN59      -0.2867
     82  CB        10.5480  -24.6900  -16.5830 C.3    59  GLN59       0.0367
     83  CG        10.4710  -25.9040  -15.6800 C.3    59  GLN59       0.0905
     84  CD        11.1270  -25.7040  -14.3410 C.2    59  GLN59       0.2608
     85  OE1       11.8790  -26.5410  -13.8850 O.2    59  GLN59      -0.2717
     86  NE2       10.8270  -24.6140  -13.7010 N.am   59  GLN59      -0.0878
     87  N          8.4370  -32.4530  -13.9350 N.3    68  LEU68      -0.1245
     88  CA         7.0940  -31.8970  -13.7850 C.3    68  LEU68       0.1561
     89  C          6.8760  -30.8080  -14.8280 C.2    68  LEU68       0.2260
     90  O          7.5660  -29.7890  -14.8090 O.2    68  LEU68      -0.2867
     91  CB         6.8940  -31.3300  -12.3810 C.3    68  LEU68       0.0270
     92  CG         5.4340  -31.0840  -12.0030 C.3    68  LEU68       0.0019
     93  CD1        4.7360  -32.4010  -11.6930 C.3    68  LEU68       0.0001
     94  CD2        5.3210  -30.1290  -10.8260 C.3    68  LEU68       0.0001
     95  N          5.6570  -27.6580  -16.9150 N.3    70  LEU70      -0.1245
     96  CA         5.0600  -26.3390  -16.7670 C.3    70  LEU70       0.1561
     97  C          4.3060  -26.0580  -18.0470 C.2    70  LEU70       0.2260
     98  O          4.9110  -25.9120  -19.1120 O.2    70  LEU70      -0.2867
     99  CB         6.1400  -25.2750  -16.5400 C.3    70  LEU70       0.0270
    100  CG         5.7920  -23.7850  -16.4260 C.3    70  LEU70       0.0019
    101  CD1        5.0890  -23.4540  -15.1190 C.3    70  LEU70       0.0001
    102  CD2        7.0630  -22.9630  -16.5440 C.3    70  LEU70       0.0001
    103  N          1.6890  -19.9490  -12.1290 N.3    82  LEU82      -0.1245
    104  CA         2.3500  -20.9740  -12.9360 C.3    82  LEU82       0.1561
    105  C          1.4280  -22.1810  -13.0760 C.2    82  LEU82       0.2260
    106  O          0.9230  -22.6900  -12.0730 O.2    82  LEU82      -0.2867
    107  CB         3.6700  -21.4130  -12.2880 C.3    82  LEU82       0.0270
    108  CG         4.6940  -20.3690  -11.8270 C.3    82  LEU82       0.0019
    109  CD1        5.8720  -21.0420  -11.1340 C.3    82  LEU82       0.0001
    110  CD2        5.1640  -19.4960  -12.9820 C.3    82  LEU82       0.0001
    111  N          0.9310  -25.9790  -13.7580 N.3    84  LEU84      -0.1231
    112  CA         1.7720  -27.1590  -13.6290 C.3    84  LEU84       0.1693
    113  C          1.0240  -28.4520  -13.8570 C.2    84  LEU84       0.2592
    114  O         -0.2000  -28.5230  -13.6940 O.2    84  LEU84      -0.2718
    115  CB         2.3480  -27.2410  -12.2180 C.3    84  LEU84       0.0284
    116  CG         2.7880  -25.9870  -11.4850 C.3    84  LEU84       0.0019
    117  CD1        3.0320  -26.3430  -10.0290 C.3    84  LEU84       0.0001
    118  CD2        4.0350  -25.4180  -12.1400 C.3    84  LEU84       0.0001
    119  N          1.7940  -29.4830  -14.1920 N.am   85  GLU85      -0.1966
    120  CA         1.3210  -30.8470  -14.1470 C.3    85  GLU85       0.1733
    121  C          0.9000  -31.1980  -12.7160 C.2    85  GLU85       0.2616
    122  O          1.4940  -30.7390  -11.7400 O.2    85  GLU85      -0.2715
    123  CB         2.4210  -31.7860  -14.6330 C.3    85  GLU85       0.0429
    124  CG         2.0680  -33.2610  -14.6020 C.3    85  GLU85       0.1163
    125  CD         3.1950  -34.1430  -15.1020 C.2    85  GLU85       0.3649
    126  OE1        4.2620  -33.6180  -15.5260 O.co2  85  GLU85      -0.2457
    127  OE2        3.0100  -35.3770  -15.0750 O.co2  85  GLU85      -0.2457
    128  N         -0.1480  -31.9980  -12.6040 N.am   86  TYR86      -0.1960
    129  CA        -0.5660  -32.5120  -11.3250 C.3    86  TYR86       0.1771
    130  C          0.0180  -33.9170  -11.1360 C.2    86  TYR86       0.2619
    131  O         -0.1740  -34.8100  -11.9780 O.2    86  TYR86      -0.2715
    132  CB        -2.0940  -32.4940  -11.2480 C.3    86  TYR86       0.0574
    133  CG        -2.7130  -33.2990  -10.1350 C.ar   86  TYR86      -0.0198
    134  CD1       -2.3180  -33.1220   -8.8080 C.ar   86  TYR86      -0.0009
    135  CD2       -3.7190  -34.2200  -10.4060 C.ar   86  TYR86      -0.0009
    136  CE1       -2.8970  -33.8560   -7.7850 C.ar   86  TYR86       0.0417
    137  CE2       -4.2990  -34.9620   -9.3890 C.ar   86  TYR86       0.0417
    138  CZ        -3.8870  -34.7680   -8.0870 C.ar   86  TYR86       0.1957
    139  OH        -4.4610  -35.4980   -7.0860 O.3    86  TYR86      -0.2866
    140  N          0.7670  -34.0780  -10.0440 N.am   87  ALA87      -0.1977
    141  CA         1.3260  -35.3560   -9.6430 C.3    87  ALA87       0.1597
    142  C          0.5020  -35.8700   -8.4600 C.2    87  ALA87       0.2287
    143  O          0.6750  -35.4070   -7.3310 O.2    87  ALA87      -0.2864
    144  CB         2.7900  -35.1890   -9.2700 C.3    87  ALA87       0.0319
    145  N          1.8430  -37.4870   -4.4310 N.3    90  GLY90      -0.1210
    146  CA         2.6510  -36.7740   -3.4370 C.3    90  GLY90       0.1956
    147  C          4.1520  -36.8000   -3.6810 C.2    90  GLY90       0.2612
    148  O          4.6100  -37.1710   -4.7630 O.2    90  GLY90      -0.2717
    149  N          4.9180  -36.4020   -2.6660 N.am   91  THR91      -0.1952
    150  CA         6.3750  -36.3140   -2.7800 C.3    91  THR91       0.1897
    151  C          7.0770  -37.5960   -2.3430 C.2    91  THR91       0.2313
    152  O          6.5420  -38.3770   -1.5420 O.2    91  THR91      -0.2863
    153  CB         6.9620  -35.1450   -1.9570 C.3    91  THR91       0.1794
    154  OG1        6.7350  -35.3750   -0.5650 O.3    91  THR91      -0.2208
    155  CG2        6.3460  -33.8200   -2.3580 C.3    91  THR91       0.0378
    156  N         12.0450  -33.4530   -1.3230 N.3   134  GLU134     -0.1231
    157  CA        10.8630  -32.6010   -1.1860 C.3   134  GLU134      0.1699
    158  C         10.4140  -32.0840   -2.5530 C.2   134  GLU134      0.2592
    159  O          9.2300  -31.8230   -2.7640 O.2   134  GLU134     -0.2718
    160  CB        11.1520  -31.4090   -0.2740 C.3   134  GLU134      0.0402
    161  CG        11.6760  -31.7670    1.1080 C.3   134  GLU134      0.1161
    162  CD        13.1980  -31.7930    1.1940 C.2   134  GLU134      0.3649
    163  OE1       13.7710  -32.8960    1.3580 O.co2 134  GLU134     -0.2457
    164  OE2       13.8210  -30.7090    1.1050 O.co2 134  GLU134     -0.2457
    165  N         11.3670  -31.9320   -3.4710 N.am  135  ASN135     -0.1974
    166  CA        11.0860  -31.4590   -4.8230 C.3   135  ASN135      0.1688
    167  C         10.9220  -32.5960   -5.8220 C.2   135  ASN135      0.2292
    168  O         11.0020  -32.3700   -7.0300 O.2   135  ASN135     -0.2864
    169  CB        12.2050  -30.5420   -5.3200 C.3   135  ASN135      0.1181
    170  CG        12.4380  -29.3370   -4.4240 C.2   135  ASN135      0.2629
    171  OD1       11.5220  -28.8290   -3.7710 O.2   135  ASN135     -0.2716
    172  ND2       13.6800  -28.8660   -4.4010 N.am  135  ASN135     -0.0877
    173  N          8.2550  -35.3610   -7.0440 N.3   137  LEU137     -0.1245
    174  CA         6.8510  -35.7170   -6.9770 C.3   137  LEU137      0.1561
    175  C          6.6030  -37.0350   -7.6970 C.2   137  LEU137      0.2260
    176  O          7.4700  -37.5130   -8.4280 O.2   137  LEU137     -0.2867
    177  CB         6.0140  -34.5890   -7.5840 C.3   137  LEU137      0.0270
    178  CG         5.7930  -33.3360   -6.7260 C.3   137  LEU137      0.0019
    179  CD1        5.2920  -32.1840   -7.5750 C.3   137  LEU137      0.0001
    180  CD2        4.7930  -33.6330   -5.6170 C.3   137  LEU137      0.0001
    181  N         10.5040  -31.5200   -9.5990 N.3   147  ALA147     -0.1231
    182  CA         9.6930  -30.3190   -9.4880 C.3   147  ALA147      0.1694
    183  C         10.3980  -29.2570   -8.6570 C.2   147  ALA147      0.2592
    184  O         10.1750  -29.1740   -7.4460 O.2   147  ALA147     -0.2718
    185  CB         8.3490  -30.6560   -8.8650 C.3   147  ALA147      0.0304
    186  N         11.2410  -28.4480   -9.2970 N.am  148  ASP148     -0.1960
    187  CA        11.8950  -27.3320   -8.6100 C.3   148  ASP148      0.1840
    188  C         12.3780  -26.2600   -9.5760 C.2   148  ASP148      0.2622
    189  O         12.1730  -26.3690  -10.7810 O.2   148  ASP148     -0.2715
    190  CB        13.0380  -27.8080   -7.6880 C.3   148  ASP148      0.1450
    191  CG        14.1700  -28.5290   -8.4330 C.2   148  ASP148      0.3671
    192  OD1       14.3490  -28.3400   -9.6520 O.co2 148  ASP148     -0.2456
    193  OD2       14.9080  -29.2900   -7.7690 O.co2 148  ASP148     -0.2456
    194  N         13.0210  -25.2320   -9.0300 N.am  149  PHE149     -0.1974
    195  CA        13.4920  -24.0930   -9.8110 C.3   149  PHE149      0.1639
    196  C         15.0090  -24.1230   -9.9610 C.2   149  PHE149      0.2290
    197  O         15.6590  -23.0790   -9.9670 O.2   149  PHE149     -0.2864
    198  CB        13.0770  -22.7830   -9.1270 C.3   149  PHE149      0.0560
    199  CG        11.5920  -22.5950   -9.0130 C.ar  149  PHE149     -0.0200
    200  CD1       10.8650  -22.0330  -10.0630 C.ar  149  PHE149     -0.0042
    201  CD2       10.9180  -22.9660   -7.8530 C.ar  149  PHE149     -0.0042
    202  CE1        9.4940  -21.8530   -9.9600 C.ar  149  PHE149     -0.0003
    203  CE2        9.5460  -22.7940   -7.7450 C.ar  149  PHE149     -0.0003
    204  CZ         8.8340  -22.2360   -8.7990 C.ar  149  PHE149     -0.0000
@<TRIPOS>BOND
     1    81    80    2
     2    98    97    2
     3    80    79    1
     4    74    73    2
     5    78    79    1
     6    97    96    1
     7    79    82    1
     8    73    72    1
     9    76    75    1
    10    95    96    1
    11    96    99    1
    12    82    83    1
    13   102   100    1
    14    99   100    1
    15   100   101    1
    16    72    75    1
    17    72    71    1
    18    75    77    1
    19    83    84    1
    20   126   125   ar
    21   125   127   ar
    22   125   124    1
    23    89    90    2
    24    89    88    1
    25   123   124    1
    26   123   120    1
    27    84    85    2
    28    84    86   am
    29   119   120    1
    30   119   113   am
    31   120   121    1
    32    87    88    1
    33   113   114    2
    34   113   112    1
    35    88    91    1
    36   111   112    1
    37   112   115    1
    38   105   104    1
    39   105   106    2
    40   110   108    1
    41   104   107    1
    42   104   103    1
    43   121   128   am
    44   121   122    2
    45   128   129    1
    46    91    92    1
    47   107   108    1
    48   115   116    1
    49   118   116    1
    50    92    93    1
    51    92    94    1
    52   131   130    2
    53   108   109    1
    54    60    59    2
    55    57    58    1
    56   116   117    1
    57   129   132    1
    58   129   130    1
    59   132   133    1
    60   130   140   am
    61   189   188    2
    62    59    58    1
    63   135   133   ar
    64   135   137   ar
    65    58    61    1
    66   133   134   ar
    67   200   202   ar
    68   200   199   ar
    69   140   141    1
    70   197   196    2
    71   196   195    1
    72   202   204   ar
    73   195   198    1
    74   195   194    1
    75   192   191   ar
    76   141   144    1
    77   141   142    1
    78   181   182    1
    79   188   194   am
    80   188   187    1
    81   182   185    1
    82   182   183    1
    83   137   138   ar
    84   186   183   am
    85   186   187    1
    86    62    63    1
    87   198   199    1
    88    65    64    2
    89   199   201   ar
    90   134   136   ar
    91   204   203   ar
    92   183   184    2
    93   187   190    1
    94   142   143    2
    95   191   193   ar
    96   191   190    1
    97   176   175    2
    98    66    63    1
    99    66    67    1
   100    63    64    1
   101   138   136   ar
   102   138   139    1
   103   201   203   ar
   104   175   174    1
   105   177   174    1
   106   177   178    1
   107   179   178    1
   108    68    67    1
   109    68    69    1
   110   173   174    1
   111   168   167    2
   112   178   180    1
   113     7     6    1
   114    55    54    1
   115    69    70    1
   116   167   166    1
   117    56    54    1
   118   169   166    1
   119   169   170    1
   120    54    51    1
   121     6     8    1
   122     6     5    1
   123    51    52    1
   124    51    50    1
   125   166   165    1
   126   148   147    2
   127    52    53    2
   128   145   146    1
   129   170   172   am
   130   170   171    2
   131     5     2    1
   132   147   146    1
   133   147   149   am
   134    38    37    2
   135   165   158   am
   136    39    40    1
   137    39    36    1
   138   150   149    1
   139   150   151    1
   140   150   153    1
   141   159   158    2
   142     2     1    1
   143     2     3    1
   144    40    42   ar
   145    40    41   ar
   146   158   157    1
   147    42    44   ar
   148    37    36    1
   149    37    46   am
   150   155   153    1
   151    41    43   ar
   152   151   152    2
   153    44    45   ar
   154    49    48    2
   155    48    47    1
   156    43    45   ar
   157   153   154    1
   158     3     4    2
   159     3     9   am
   160    36    35    1
   161    47    46    1
   162     9    10    1
   163   156   157    1
   164    12    11    2
   165   157   160    1
   166    35    28   am
   167    10    11    1
   168    11    13   am
   169   160   161    1
   170    23    22    1
   171    23    24    1
   172    22    15   am
   173    28    29    2
   174    28    27    1
   175    13    14    1
   176    26    24   am
   177    26    27    1
   178    24    25    2
   179    15    14    1
   180    15    16    2
   181    14    17    1
   182   164   162   ar
   183   161   162    1
   184    27    30    1
   185    30    31    1
   186   162   163   ar
   187    31    32    1
   188    32    33    1
   189    17    18    1
   190    18    19    1
   191    34    33    1
   192    21    20    1
   193    19    20    1
