@<TRIPOS>MOLECULE
tmp/4ztrA00.pdb
 207 196 0 0 0
SMALL
GASTEIGER

@<TRIPOS>ATOM
      1  N          6.3860   28.3420   -4.1470 N.3    11  ARG11      -0.1245
      2  CA         5.7020   28.4030   -2.8620 C.3    11  ARG11       0.1563
      3  C          4.2300   28.0200   -2.9990 C.2    11  ARG11       0.2260
      4  O          3.6620   28.1390   -4.0880 O.2    11  ARG11      -0.2867
      5  CB         5.8450   29.7900   -2.2380 C.3    11  ARG11       0.0307
      6  CG         4.8740   30.8430   -2.7330 C.3    11  ARG11       0.0489
      7  CD         5.0880   32.1480   -1.9860 C.3    11  ARG11       0.2205
      8  NE         4.2320   33.2030   -2.5240 N.pl3  11  ARG11      -0.0865
      9  CZ         2.9910   33.4650   -2.1200 C.cat  11  ARG11       0.5346
     10  NH1        2.4220   32.7620   -1.1460 N.pl3  11  ARG11       0.1354
     11  NH2        2.3140   34.4450   -2.7000 N.pl3  11  ARG11       0.1354
     12  N          0.2440   28.3720   -2.8200 N.3    13  LEU13      -0.1231
     13  CA        -0.6870   29.4850   -3.0100 C.3    13  LEU13       0.1693
     14  C         -2.0390   29.2240   -2.3620 C.2    13  LEU13       0.2593
     15  O         -2.7150   30.1620   -1.9490 O.2    13  LEU13      -0.2718
     16  CB        -0.8730   29.7670   -4.4980 C.3    13  LEU13       0.0284
     17  CG         0.4190   30.0460   -5.2690 C.3    13  LEU13       0.0019
     18  CD1        0.1210   30.2030   -6.7530 C.3    13  LEU13       0.0001
     19  CD2        1.1250   31.2770   -4.7180 C.3    13  LEU13       0.0001
     20  N         -2.4470   27.9610   -2.2860 N.am   14  GLY14      -0.1942
     21  CA        -3.6720   27.6150   -1.5760 C.3    14  GLY14       0.2014
     22  C         -3.9620   26.1300   -1.5210 C.2    14  GLY14       0.2639
     23  O         -3.3000   25.3300   -2.1800 O.2    14  GLY14      -0.2714
     24  N         -4.9550   25.7760   -0.7100 N.am   15  LYS15      -0.1963
     25  CA        -5.4240   24.4010   -0.5740 C.3    15  LYS15       0.1728
     26  C         -6.9290   24.3720   -0.8110 C.2    15  LYS15       0.2616
     27  O         -7.6700   25.1380   -0.2020 O.2    15  LYS15      -0.2715
     28  CB        -5.1200   23.8600    0.8300 C.3    15  LYS15       0.0311
     29  CG        -3.6610   23.9550    1.2400 C.3    15  LYS15       0.0038
     30  CD        -3.4520   23.5700    2.6980 C.3    15  LYS15       0.0206
     31  CE        -2.0140   23.8130    3.1310 C.3    15  LYS15       0.1093
     32  NZ        -1.1620   22.6910    2.6260 N.3    15  LYS15      -0.1314
     33  N         -7.3730   23.4950   -1.7030 N.am   16  GLY16      -0.1955
     34  CA        -8.7970   23.2770   -1.9330 C.3    16  GLY16       0.1869
     35  C         -9.1830   21.8680   -1.5410 C.2    16  GLY16       0.2309
     36  O         -8.3230   21.0470   -1.2140 O.2    16  GLY16      -0.2863
     37  N         -2.3430   24.0390   -4.5260 N.3    21  VAL21      -0.1245
     38  CA        -1.8690   24.8120   -5.6530 C.3    21  VAL21       0.1561
     39  C         -0.5630   25.4860   -5.2690 C.2    21  VAL21       0.2260
     40  O         -0.4740   26.1440   -4.2300 O.2    21  VAL21      -0.2867
     41  CB        -2.8940   25.8820   -6.0630 C.3    21  VAL21       0.0252
     42  CG1       -2.3610   26.7260   -7.2160 C.3    21  VAL21       0.0019
     43  CG2       -4.2070   25.2200   -6.4410 C.3    21  VAL21       0.0019
     44  N          0.3730   28.9590  -12.0240 N.3    34  ALA34      -0.1245
     45  CA         0.0370   28.1580  -10.8640 C.3    34  ALA34       0.1562
     46  C         -0.1070   26.7080  -11.3180 C.2    34  ALA34       0.2260
     47  O         -0.5530   26.4380  -12.4320 O.2    34  ALA34      -0.2867
     48  CB        -1.2440   28.6630  -10.2250 C.3    34  ALA34       0.0290
     49  N         -1.5590   22.9060   -9.8970 N.3    36  LYS36      -0.1245
     50  CA        -2.3200   22.2010   -8.8670 C.3    36  LYS36       0.1561
     51  C         -1.9510   20.7290   -8.8680 C.2    36  LYS36       0.2260
     52  O         -1.7060   20.1520   -9.9230 O.2    36  LYS36      -0.2867
     53  CB        -3.8100   22.3510   -9.1270 C.3    36  LYS36       0.0271
     54  CG        -4.7120   21.9290   -7.9750 C.3    36  LYS36       0.0035
     55  CD        -6.1400   22.3670   -8.2740 C.3    36  LYS36       0.0206
     56  CE        -6.9720   22.6450   -7.0330 C.3    36  LYS36       0.1093
     57  NZ        -8.0170   21.6250   -6.7650 N.3    36  LYS36      -0.1314
     58  N        -13.7530   24.1300  -18.6700 N.3    59  GLN59      -0.1245
     59  CA       -12.9010   25.2410  -18.2600 C.3    59  GLN59       0.1566
     60  C        -11.8730   25.5870  -19.3230 C.2    59  GLN59       0.2260
     61  O        -11.6380   26.7620  -19.6010 O.2    59  GLN59      -0.2867
     62  CB       -12.1620   24.8990  -16.9620 C.3    59  GLN59       0.0367
     63  CG       -12.9720   25.1060  -15.6910 C.3    59  GLN59       0.0905
     64  CD       -13.2290   26.5660  -15.3450 C.2    59  GLN59       0.2608
     65  OE1      -13.9970   26.8550  -14.4270 O.2    59  GLN59      -0.2717
     66  NE2      -12.5950   27.4900  -16.0660 N.am   59  GLN59      -0.0878
     67  N        -10.3400   32.7100  -14.1700 N.3    68  LEU68      -0.1231
     68  CA        -8.9970   32.1360  -14.1400 C.3    68  LEU68       0.1693
     69  C         -8.8620   31.0920  -15.2440 C.2    68  LEU68       0.2592
     70  O         -9.7060   30.2040  -15.3740 O.2    68  LEU68      -0.2718
     71  CB        -8.6990   31.5050  -12.7770 C.3    68  LEU68       0.0284
     72  CG        -7.2180   31.3800  -12.4010 C.3    68  LEU68       0.0019
     73  CD1       -6.5940   32.7470  -12.1700 C.3    68  LEU68       0.0001
     74  CD2       -7.0440   30.5140  -11.1660 C.3    68  LEU68       0.0001
     75  N         -7.8140   31.2070  -16.0520 N.am   69  ARG69      -0.1966
     76  CA        -7.6420   30.3030  -17.1830 C.3    69  ARG69       0.1729
     77  C         -6.9930   28.9840  -16.7630 C.2    69  ARG69       0.2616
     78  O         -6.1170   28.9540  -15.9020 O.2    69  ARG69      -0.2715
     79  CB        -6.8380   30.9670  -18.3130 C.3    69  ARG69       0.0348
     80  CG        -7.6880   31.8040  -19.2640 C.3    69  ARG69       0.0492
     81  CD        -6.8360   32.5780  -20.2580 C.3    69  ARG69       0.2205
     82  NE        -6.2050   31.7050  -21.2490 N.pl3  69  ARG69      -0.0865
     83  CZ        -5.1900   32.0610  -22.0420 C.cat  69  ARG69       0.5346
     84  NH1       -4.6610   33.2810  -21.9660 N.pl3  69  ARG69       0.1354
     85  NH2       -4.6890   31.1890  -22.9130 N.pl3  69  ARG69       0.1354
     86  N         -7.4530   27.9000  -17.3790 N.am   70  LEU70      -0.1977
     87  CA        -6.8290   26.5940  -17.2580 C.3    70  LEU70       0.1596
     88  C         -6.0820   26.3310  -18.5560 C.2    70  LEU70       0.2287
     89  O         -6.6990   26.0890  -19.5880 O.2    70  LEU70      -0.2864
     90  CB        -7.8980   25.5250  -17.0220 C.3    70  LEU70       0.0297
     91  CG        -7.4880   24.0530  -17.1000 C.3    70  LEU70       0.0022
     92  CD1       -6.2130   23.7770  -16.3180 C.3    70  LEU70       0.0001
     93  CD2       -8.6270   23.1860  -16.5910 C.3    70  LEU70       0.0001
     94  N         -2.7230   20.1880  -12.8630 N.3    82  LEU82      -0.1245
     95  CA        -3.4300   21.2280  -13.6120 C.3    82  LEU82       0.1561
     96  C         -2.5650   22.4710  -13.7410 C.2    82  LEU82       0.2260
     97  O         -2.0930   23.0080  -12.7480 O.2    82  LEU82      -0.2867
     98  CB        -4.7410   21.6030  -12.9210 C.3    82  LEU82       0.0270
     99  CG        -5.7840   20.5010  -12.7550 C.3    82  LEU82       0.0019
    100  CD1       -6.9410   20.9990  -11.9060 C.3    82  LEU82       0.0001
    101  CD2       -6.2840   20.0170  -14.1060 C.3    82  LEU82       0.0001
    102  N         -2.5160   26.2250  -14.4480 N.3    84  LEU84      -0.1231
    103  CA        -3.4640   27.3360  -14.4110 C.3    84  LEU84       0.1693
    104  C         -2.8040   28.7070  -14.3330 C.2    84  LEU84       0.2592
    105  O         -1.6740   28.8520  -13.8820 O.2    84  LEU84      -0.2718
    106  CB        -4.4620   27.1840  -13.2480 C.3    84  LEU84       0.0284
    107  CG        -4.1120   26.2910  -12.0570 C.3    84  LEU84       0.0019
    108  CD1       -4.6610   26.8630  -10.7670 C.3    84  LEU84       0.0001
    109  CD2       -4.6520   24.8920  -12.2920 C.3    84  LEU84       0.0001
    110  N         -3.5560   29.7040  -14.7860 N.am   85  GLU85      -0.1966
    111  CA        -3.1850   31.1050  -14.6840 C.3    85  GLU85       0.1733
    112  C         -2.8830   31.4140  -13.2390 C.2    85  GLU85       0.2616
    113  O         -3.5620   30.9250  -12.3500 O.2    85  GLU85      -0.2715
    114  CB        -4.3490   31.9830  -15.1550 C.3    85  GLU85       0.0429
    115  CG        -4.0420   33.4680  -15.2820 C.3    85  GLU85       0.1163
    116  CD        -5.2890   34.3270  -15.4700 C.2    85  GLU85       0.3649
    117  OE1       -6.3820   33.7950  -15.7820 O.co2  85  GLU85      -0.2457
    118  OE2       -5.1700   35.5580  -15.3030 O.co2  85  GLU85      -0.2457
    119  N         -1.8570   32.2210  -13.0170 N.am   86  TYR86      -0.1960
    120  CA        -1.4780   32.6640  -11.6890 C.3    86  TYR86       0.1771
    121  C         -1.9640   34.1010  -11.5310 C.2    86  TYR86       0.2619
    122  O         -1.7810   34.9340  -12.4320 O.2    86  TYR86      -0.2715
    123  CB         0.0400   32.5360  -11.5100 C.3    86  TYR86       0.0574
    124  CG         0.6780   33.4610  -10.5000 C.ar   86  TYR86      -0.0198
    125  CD1        0.5360   33.2460   -9.1290 C.ar   86  TYR86      -0.0009
    126  CD2        1.4560   34.5340  -10.9160 C.ar   86  TYR86      -0.0009
    127  CE1        1.1350   34.0930   -8.2070 C.ar   86  TYR86       0.0417
    128  CE2        2.0570   35.3800  -10.0040 C.ar   86  TYR86       0.0417
    129  CZ         1.8960   35.1550   -8.6570 C.ar   86  TYR86       0.1957
    130  OH         2.5060   36.0060   -7.7680 O.3    86  TYR86      -0.2866
    131  N         -2.5950   34.3580  -10.3840 N.am   87  ALA87      -0.1964
    132  CA        -3.2360   35.6230  -10.0570 C.3    87  ALA87       0.1713
    133  C         -2.3840   36.3270   -9.0140 C.2    87  ALA87       0.2458
    134  O         -2.4380   35.9740   -7.8390 O.2    87  ALA87      -0.2730
    135  CB        -4.6310   35.3700   -9.5140 C.3    87  ALA87       0.0333
    136  N         -1.5830   37.3180   -9.4370 N.am   88  PRO88      -0.2727
    137  CA        -0.5730   37.9340   -8.5740 C.3    88  PRO88       0.1402
    138  C         -1.0310   38.4400   -7.2090 C.2    88  PRO88       0.2269
    139  O         -0.3070   38.2560   -6.2360 O.2    88  PRO88      -0.2865
    140  CB        -0.0840   39.1120   -9.4090 C.3    88  PRO88       0.0296
    141  CG        -0.2580   38.6640  -10.8080 C.3    88  PRO88       0.0237
    142  CD        -1.5080   37.8390  -10.8130 C.3    88  PRO88       0.0939
    143  N         -3.5740   37.7090   -5.1410 N.3    90  GLY90      -0.1210
    144  CA        -4.1840   36.8230   -4.1550 C.3    90  GLY90       0.1956
    145  C         -5.6920   36.8820   -4.1410 C.2    90  GLY90       0.2612
    146  O         -6.2980   37.4790   -5.0270 O.2    90  GLY90      -0.2717
    147  N         -6.2950   36.2630   -3.1260 N.am   91  THR91      -0.1952
    148  CA        -7.7510   36.1510   -3.0320 C.3    91  THR91       0.1897
    149  C         -8.4050   37.4370   -2.5700 C.2    91  THR91       0.2313
    150  O         -7.7660   38.2720   -1.9280 O.2    91  THR91      -0.2863
    151  CB        -8.1870   35.0580   -2.0420 C.3    91  THR91       0.1794
    152  OG1       -7.6470   35.3470   -0.7510 O.3    91  THR91      -0.2208
    153  CG2       -7.7140   33.6930   -2.4960 C.3    91  THR91       0.0378
    154  N         -8.7150   37.2640    1.5440 N.3    94  ARG94      -0.1245
    155  CA        -7.5570   37.8340    2.2280 C.3    94  ARG94       0.1563
    156  C         -7.6490   39.3650    2.2610 C.2    94  ARG94       0.2260
    157  O         -7.2990   40.0040    3.2580 O.2    94  ARG94      -0.2867
    158  CB        -6.2900   37.3740    1.4970 C.3    94  ARG94       0.0307
    159  CG        -4.9460   37.8720    2.0230 C.3    94  ARG94       0.0489
    160  CD        -4.0550   38.2650    0.8430 C.3    94  ARG94       0.2205
    161  NE        -2.6400   37.9340    1.0130 N.pl3  94  ARG94      -0.0865
    162  CZ        -1.7210   38.0420    0.0510 C.cat  94  ARG94       0.5346
    163  NH1       -2.0440   38.4740   -1.1650 N.pl3  94  ARG94       0.1354
    164  NH2       -0.4600   37.7150    0.3010 N.pl3  94  ARG94       0.1354
    165  N        -21.6970   29.1250  -10.5780 N.3   129  ARG129     -0.1245
    166  CA       -20.3150   29.0550  -10.1480 C.3   129  ARG129      0.1563
    167  C        -20.2280   29.5330   -8.7040 C.2   129  ARG129      0.2260
    168  O        -20.9430   30.4530   -8.3060 O.2   129  ARG129     -0.2867
    169  CB       -19.4320   29.8810  -11.0830 C.3   129  ARG129      0.0307
    170  CG       -19.5170   29.3800  -12.5150 C.3   129  ARG129      0.0489
    171  CD       -18.3870   29.8840  -13.3910 C.3   129  ARG129      0.2205
    172  NE       -17.0640   29.4580  -12.9320 N.pl3 129  ARG129     -0.0865
    173  CZ       -16.5690   28.2250  -13.0440 C.cat 129  ARG129      0.5346
    174  NH1      -17.2860   27.2380  -13.5820 N.pl3 129  ARG129      0.1354
    175  NH2      -15.3440   27.9720  -12.5930 N.pl3 129  ARG129      0.1354
    176  N        -10.0060   35.5410   -7.1380 N.3   137  LEU137     -0.1245
    177  CA        -8.6250   35.9690   -7.1310 C.3   137  LEU137      0.1561
    178  C         -8.4950   37.3140   -7.8180 C.2   137  LEU137      0.2260
    179  O         -9.4230   37.7740   -8.4850 O.2   137  LEU137     -0.2867
    180  CB        -7.7560   34.9290   -7.8270 C.3   137  LEU137      0.0270
    181  CG        -7.5700   33.6460   -7.0150 C.3   137  LEU137      0.0019
    182  CD1       -7.0600   32.5110   -7.8910 C.3   137  LEU137      0.0001
    183  CD2       -6.6200   33.8890   -5.8500 C.3   137  LEU137      0.0001
    184  N        -12.5190   31.8610   -9.7620 N.3   147  ALA147     -0.1231
    185  CA       -11.6050   30.7140   -9.6810 C.3   147  ALA147      0.1694
    186  C        -12.0920   29.5890   -8.7590 C.2   147  ALA147      0.2592
    187  O        -11.4610   29.2950   -7.7510 O.2   147  ALA147     -0.2718
    188  CB       -10.2220   31.1890   -9.2450 C.3   147  ALA147      0.0304
    189  N        -13.1900   28.9380   -9.1330 N.am  148  ASP148     -0.1960
    190  CA       -13.7350   27.8070   -8.3620 C.3   148  ASP148      0.1840
    191  C        -13.6490   26.4740   -9.1210 C.2   148  ASP148      0.2622
    192  O        -13.2300   26.4360  -10.2750 O.2   148  ASP148     -0.2715
    193  CB       -15.1830   28.0980   -7.9710 C.3   148  ASP148      0.1450
    194  CG       -16.0920   28.2590   -9.1720 C.2   148  ASP148      0.3671
    195  OD1      -15.6800   28.9310  -10.1390 O.co2 148  ASP148     -0.2456
    196  OD2      -17.2190   27.7270   -9.1430 O.co2 148  ASP148     -0.2456
    197  N        -14.0590   25.3860   -8.4690 N.am  149  PHE149     -0.1974
    198  CA       -13.9060   24.0370   -9.0260 C.3   149  PHE149      0.1639
    199  C        -15.1590   23.1370   -8.8700 C.2   149  PHE149      0.2290
    200  O        -15.0500   21.9110   -8.8560 O.2   149  PHE149     -0.2864
    201  CB       -12.6860   23.3830   -8.3660 C.3   149  PHE149      0.0560
    202  CG       -11.9590   22.4120   -9.2520 C.ar  149  PHE149     -0.0200
    203  CD1      -11.1130   22.8690  -10.2490 C.ar  149  PHE149     -0.0042
    204  CD2      -12.1100   21.0410   -9.0820 C.ar  149  PHE149     -0.0042
    205  CE1      -10.4420   21.9790  -11.0710 C.ar  149  PHE149     -0.0003
    206  CE2      -11.4400   20.1470   -9.8980 C.ar  149  PHE149     -0.0003
    207  CZ       -10.6030   20.6150  -10.8940 C.ar  149  PHE149     -0.0000
@<TRIPOS>BOND
     1    85    83    1
     2    83    84    1
     3    83    82    2
     4    82    81    1
     5    81    80    1
     6    61    60    2
     7    89    88    2
     8    60    59    1
     9    80    79    1
    10    58    59    1
    11    88    87    1
    12    79    76    1
    13    59    62    1
    14    86    87    1
    15    86    77   am
    16    87    90    1
    17    76    77    1
    18    76    75    1
    19    91    90    1
    20    91    93    1
    21    91    92    1
    22    62    63    1
    23    77    78    2
    24    66    64   am
    25    75    69   am
    26   117   116   ar
    27    63    64    1
    28   116   118   ar
    29   116   115    1
    30    70    69    2
    31    64    65    2
    32   115   114    1
    33    69    68    1
    34   114   111    1
    35   110   111    1
    36   110   104   am
    37   111   112    1
    38   102   103    1
    39   103   104    1
    40   103   106    1
    41   104   105    2
    42    67    68    1
    43    68    71    1
    44   101    99    1
    45    96    95    1
    46    96    97    2
    47    95    98    1
    48    95    94    1
    49   174   173    1
    50   171   172    1
    51   171   170    1
    52   106   107    1
    53   112   119   am
    54   112   113    2
    55   173   172    2
    56   173   175    1
    57   119   120    1
    58    98    99    1
    59    71    72    1
    60    99   100    1
    61   170   169    1
    62   122   121    2
    63    47    46    2
    64    72    73    1
    65    72    74    1
    66   109   107    1
    67   107   108    1
    68    44    45    1
    69   120   121    1
    70   120   123    1
    71   121   131   am
    72   123   124    1
    73    46    45    1
    74   169   166    1
    75   205   207   ar
    76   205   203   ar
    77   126   124   ar
    78   126   128   ar
    79   207   206   ar
    80    45    48    1
    81   142   141    1
    82   142   136    1
    83   141   140    1
    84   165   166    1
    85   124   125   ar
    86   131   132    1
    87   192   191    2
    88   203   202   ar
    89   166   167    1
    90   195   194   ar
    91   132   135    1
    92   132   133    1
    93   128   129   ar
    94    52    51    2
    95   206   204   ar
    96    49    50    1
    97   184   185    1
    98   185   188    1
    99   185   186    1
   100   136   133   am
   101   136   137    1
   102   140   137    1
   103   202   204   ar
   104   202   201    1
   105   194   196   ar
   106   194   193    1
   107   189   186   am
   108   189   190    1
   109   125   127   ar
   110    53    50    1
   111    53    54    1
   112   191   197   am
   113   191   190    1
   114   198   199    1
   115   198   197    1
   116   198   201    1
   117   133   134    2
   118   199   200    2
   119    51    50    1
   120   186   187    2
   121   167   168    2
   122   129   127   ar
   123   129   130    1
   124   137   138    1
   125   179   178    2
   126   190   193    1
   127    55    54    1
   128    55    56    1
   129   182   181    1
   130   180   177    1
   131   180   181    1
   132   178   177    1
   133    42    41    1
   134   138   139    2
   135   176   177    1
   136    56    57    1
   137   181   183    1
   138    18    17    1
   139    43    41    1
   140    41    38    1
   141    38    39    1
   142    38    37    1
   143    17    19    1
   144    17    16    1
   145    39    40    2
   146   143   144    1
   147   146   145    2
   148    16    13    1
   149   144   145    1
   150     1     2    1
   151   145   147   am
   152     4     3    2
   153   147   148    1
   154   148   149    1
   155   148   151    1
   156    13    12    1
   157    13    14    1
   158     3     2    1
   159     2     5    1
   160     6     5    1
   161     6     7    1
   162    11     9    1
   163   149   150    2
   164     8     9    2
   165     8     7    1
   166   153   151    1
   167    14    20   am
   168    14    15    2
   169    20    21    1
   170    23    22    2
   171     9    10    1
   172   151   152    1
   173    34    33    1
   174    34    35    1
   175    33    26   am
   176    21    22    1
   177    35    36    2
   178    22    24   am
   179   163   162    1
   180    26    25    1
   181    26    27    2
   182    24    25    1
   183    25    28    1
   184   162   164    1
   185   162   161    2
   186    28    29    1
   187   160   161    1
   188   160   159    1
   189    29    30    1
   190   158   159    1
   191   158   155    1
   192   154   155    1
   193   155   156    1
   194   156   157    2
   195    32    31    1
   196    30    31    1
