@<TRIPOS>MOLECULE
tmp/4ztsA00.pdb
 204 193 0 0 0
SMALL
GASTEIGER

@<TRIPOS>ATOM
      1  N         -9.8670  -27.3320   -3.8210 N.3    11  ARG11      -0.1245
      2  CA        -9.1530  -27.3970   -2.5510 C.3    11  ARG11       0.1563
      3  C         -7.6830  -27.0200   -2.7030 C.2    11  ARG11       0.2260
      4  O         -7.1300  -27.1020   -3.8010 O.2    11  ARG11      -0.2867
      5  CB        -9.2420  -28.8090   -1.9670 C.3    11  ARG11       0.0307
      6  CG        -8.3860  -29.8540   -2.6830 C.3    11  ARG11       0.0489
      7  CD        -8.4700  -31.1940   -1.9810 C.3    11  ARG11       0.2205
      8  NE        -7.1420  -31.7480   -1.7350 N.pl3  11  ARG11      -0.0865
      9  CZ        -6.5350  -32.6590   -2.4880 C.cat  11  ARG11       0.5346
     10  NH1       -7.1140  -33.1610   -3.5700 N.pl3  11  ARG11       0.1354
     11  NH2       -5.3270  -33.0810   -2.1500 N.pl3  11  ARG11       0.1354
     12  N         -3.7660  -27.5630   -2.6860 N.3    13  LEU13      -0.1231
     13  CA        -2.8810  -28.6990   -2.9580 C.3    13  LEU13       0.1693
     14  C         -1.4840  -28.5350   -2.3560 C.2    13  LEU13       0.2593
     15  O         -0.6450  -29.4290   -2.4640 O.2    13  LEU13      -0.2718
     16  CB        -2.7380  -28.8920   -4.4640 C.3    13  LEU13       0.0284
     17  CG        -3.9780  -29.3500   -5.2190 C.3    13  LEU13       0.0019
     18  CD1       -3.6470  -29.4110   -6.7010 C.3    13  LEU13       0.0001
     19  CD2       -4.4630  -30.6990   -4.7090 C.3    13  LEU13       0.0001
     20  N         -1.2280  -27.3940   -1.7300 N.am   14  GLY14      -0.1942
     21  CA         0.0760  -27.1310   -1.1530 C.3    14  GLY14       0.2014
     22  C          0.2780  -25.6670   -0.8340 C.2    14  GLY14       0.2639
     23  O         -0.4300  -24.7970   -1.3500 O.2    14  GLY14      -0.2714
     24  N          1.2600  -25.4130    0.0230 N.am   15  LYS15      -0.1963
     25  CA         1.5780  -24.0820    0.5020 C.3    15  LYS15       0.1728
     26  C          3.0260  -23.7700    0.1390 C.2    15  LYS15       0.2616
     27  O          3.9410  -24.4630    0.5800 O.2    15  LYS15      -0.2715
     28  CB         1.3690  -24.0280    2.0220 C.3    15  LYS15       0.0311
     29  CG         1.8820  -22.7770    2.7200 C.3    15  LYS15       0.0038
     30  CD         1.2620  -21.5110    2.1510 C.3    15  LYS15       0.0206
     31  CE         1.7420  -20.2670    2.8890 C.3    15  LYS15       0.1093
     32  NZ         1.5280  -19.0270    2.0900 N.3    15  LYS15      -0.1314
     33  N          3.2260  -22.7460   -0.6880 N.am   16  GLY16      -0.1955
     34  CA         4.5630  -22.2100   -0.9540 C.3    16  GLY16       0.1869
     35  C          4.8840  -21.0830    0.0130 C.2    16  GLY16       0.2309
     36  O          4.0850  -20.7680    0.8950 O.2    16  GLY16      -0.2863
     37  N         -1.0650  -23.1780   -3.7050 N.3    21  VAL21      -0.1245
     38  CA        -1.4690  -23.8170   -4.9520 C.3    21  VAL21       0.1561
     39  C         -2.8240  -24.4630   -4.7340 C.2    21  VAL21       0.2260
     40  O         -3.0500  -25.1180   -3.7160 O.2    21  VAL21      -0.2867
     41  CB        -0.4660  -24.8880   -5.4080 C.3    21  VAL21       0.0252
     42  CG1       -0.9670  -25.5940   -6.6610 C.3    21  VAL21       0.0019
     43  CG2        0.8860  -24.2540   -5.6650 C.3    21  VAL21       0.0019
     44  N         -3.3930  -27.2290  -11.8370 N.3    34  ALA34      -0.1245
     45  CA        -3.0790  -26.5860  -10.5650 C.3    34  ALA34       0.1562
     46  C         -2.7890  -25.1150  -10.8120 C.2    34  ALA34       0.2260
     47  O         -2.3450  -24.7310  -11.8990 O.2    34  ALA34      -0.2867
     48  CB        -1.9000  -27.2710   -9.8930 C.3    34  ALA34       0.0290
     49  N         -1.0350  -21.7460   -8.9170 N.3    36  LYS36      -0.1245
     50  CA        -0.2690  -21.1290   -7.8320 C.3    36  LYS36       0.1561
     51  C         -0.5250  -19.6340   -7.7810 C.2    36  LYS36       0.2260
     52  O         -0.3380  -18.9310   -8.7740 O.2    36  LYS36      -0.2867
     53  CB         1.2340  -21.3630   -7.9880 C.3    36  LYS36       0.0271
     54  CG         2.0170  -21.0510   -6.7170 C.3    36  LYS36       0.0035
     55  CD         3.4780  -20.7400   -6.9890 C.3    36  LYS36       0.0206
     56  CE         4.3740  -21.1650   -5.8310 C.3    36  LYS36       0.1093
     57  NZ         3.8940  -20.6930   -4.5010 N.3    36  LYS36      -0.1314
     58  N         11.1500  -22.3160  -17.7290 N.3    59  GLN59      -0.1245
     59  CA        10.4220  -23.5960  -17.7010 C.3    59  GLN59       0.1566
     60  C          9.1540  -23.6690  -18.5700 C.2    59  GLN59       0.2260
     61  O          8.5100  -24.7160  -18.6390 O.2    59  GLN59      -0.2867
     62  CB        10.1380  -24.0380  -16.2550 C.3    59  GLN59       0.0367
     63  CG         9.2220  -23.1340  -15.4390 C.3    59  GLN59       0.0905
     64  CD         9.3930  -23.3410  -13.9400 C.2    59  GLN59       0.2608
     65  OE1        9.9690  -24.3380  -13.5010 O.2    59  GLN59      -0.2717
     66  NE2        8.8910  -22.3960  -13.1460 N.am   59  GLN59      -0.0878
     67  N          7.3770  -31.1940  -13.8740 N.3    68  LEU68      -0.1231
     68  CA         6.0460  -30.6050  -13.7820 C.3    68  LEU68       0.1693
     69  C          5.9190  -29.4630  -14.7900 C.2    68  LEU68       0.2592
     70  O          6.7540  -28.5640  -14.8290 O.2    68  LEU68      -0.2718
     71  CB         5.7550  -30.1000  -12.3680 C.3    68  LEU68       0.0284
     72  CG         4.2580  -29.9180  -12.0840 C.3    68  LEU68       0.0019
     73  CD1        3.5950  -31.2700  -11.8630 C.3    68  LEU68       0.0001
     74  CD2        4.0160  -29.0090  -10.8920 C.3    68  LEU68       0.0001
     75  N          4.8690  -29.5070  -15.6020 N.am   69  ARG69      -0.1966
     76  CA         4.7280  -28.5850  -16.7200 C.3    69  ARG69       0.1729
     77  C          4.1030  -27.2500  -16.3110 C.2    69  ARG69       0.2616
     78  O          3.1560  -27.2070  -15.5230 O.2    69  ARG69      -0.2715
     79  CB         3.9010  -29.2390  -17.8310 C.3    69  ARG69       0.0348
     80  CG         3.8420  -28.4260  -19.1110 C.3    69  ARG69       0.0492
     81  CD         3.5560  -29.2990  -20.3220 C.3    69  ARG69       0.2205
     82  NE         2.7660  -28.5830  -21.3250 N.pl3  69  ARG69      -0.0865
     83  CZ         3.2170  -27.5810  -22.0800 C.cat  69  ARG69       0.5346
     84  NH1        4.4750  -27.1520  -21.9760 N.pl3  69  ARG69       0.1354
     85  NH2        2.3990  -27.0030  -22.9540 N.pl3  69  ARG69       0.1354
     86  N          4.6570  -26.1690  -16.8580 N.am   70  LEU70      -0.1977
     87  CA         4.0950  -24.8290  -16.7250 C.3    70  LEU70       0.1596
     88  C          3.3690  -24.4760  -18.0130 C.2    70  LEU70       0.2287
     89  O          4.0010  -24.2330  -19.0380 O.2    70  LEU70      -0.2864
     90  CB         5.2010  -23.8060  -16.4760 C.3    70  LEU70       0.0297
     91  CG         4.7550  -22.3530  -16.2770 C.3    70  LEU70       0.0022
     92  CD1        4.0570  -22.1420  -14.9440 C.3    70  LEU70       0.0001
     93  CD2        5.9500  -21.4270  -16.3820 C.3    70  LEU70       0.0001
     94  N          0.2060  -18.7590  -11.6370 N.3    82  LEU82      -0.1245
     95  CA         0.9010  -19.7000  -12.5000 C.3    82  LEU82       0.1561
     96  C          0.0000  -20.8920  -12.7620 C.2    82  LEU82       0.2260
     97  O         -0.5420  -21.4740  -11.8240 O.2    82  LEU82      -0.2867
     98  CB         2.1940  -20.1750  -11.8470 C.3    82  LEU82       0.0270
     99  CG         3.2050  -19.0850  -11.4980 C.3    82  LEU82       0.0019
    100  CD1        4.4060  -19.7070  -10.8030 C.3    82  LEU82       0.0001
    101  CD2        3.6330  -18.3080  -12.7350 C.3    82  LEU82       0.0001
    102  N         -0.3610  -24.6290  -13.7110 N.3    84  LEU84      -0.1231
    103  CA         0.5220  -25.7740  -13.5200 C.3    84  LEU84       0.1693
    104  C         -0.1350  -27.0920  -13.8880 C.2    84  LEU84       0.2592
    105  O         -1.3590  -27.2150  -13.8790 O.2    84  LEU84      -0.2718
    106  CB         0.9310  -25.8680  -12.0510 C.3    84  LEU84       0.0284
    107  CG         1.3630  -24.6000  -11.3300 C.3    84  LEU84       0.0019
    108  CD1        1.7000  -24.9340   -9.8880 C.3    84  LEU84       0.0001
    109  CD2        2.5500  -23.9690  -12.0330 C.3    84  LEU84       0.0001
    110  N          0.6940  -28.0890  -14.1680 N.am   85  GLU85      -0.1966
    111  CA         0.2230  -29.4600  -14.2960 C.3    85  GLU85       0.1733
    112  C         -0.2440  -29.9890  -12.9390 C.2    85  GLU85       0.2616
    113  O          0.4330  -29.8120  -11.9330 O.2    85  GLU85      -0.2715
    114  CB         1.3380  -30.3490  -14.8320 C.3    85  GLU85       0.0429
    115  CG         0.8670  -31.7350  -15.2270 C.3    85  GLU85       0.1163
    116  CD         1.9940  -32.7370  -15.3250 C.2    85  GLU85       0.3649
    117  OE1        3.1460  -32.3380  -15.6310 O.co2  85  GLU85      -0.2457
    118  OE2        1.7150  -33.9340  -15.0990 O.co2  85  GLU85      -0.2457
    119  N         -1.4050  -30.6360  -12.9220 N.am   86  TYR86      -0.1960
    120  CA        -1.9310  -31.2710  -11.7130 C.3    86  TYR86       0.1771
    121  C         -1.3110  -32.6540  -11.5860 C.2    86  TYR86       0.2619
    122  O         -1.2700  -33.4080  -12.5560 O.2    86  TYR86      -0.2715
    123  CB        -3.4600  -31.3480  -11.7830 C.3    86  TYR86       0.0574
    124  CG        -4.1240  -32.2530  -10.7670 C.ar   86  TYR86      -0.0198
    125  CD1       -3.9750  -32.0350   -9.4050 C.ar   86  TYR86      -0.0009
    126  CD2       -4.9310  -33.3110  -11.1760 C.ar   86  TYR86      -0.0009
    127  CE1       -4.5920  -32.8540   -8.4760 C.ar   86  TYR86       0.0417
    128  CE2       -5.5540  -34.1370  -10.2570 C.ar   86  TYR86       0.0417
    129  CZ        -5.3830  -33.9070   -8.9070 C.ar   86  TYR86       0.1957
    130  OH        -6.0010  -34.7350   -7.9920 O.3    86  TYR86      -0.2866
    131  N         -0.8260  -32.9680  -10.3890 N.am   87  ALA87      -0.1964
    132  CA        -0.1260  -34.2190  -10.1050 C.3    87  ALA87       0.1713
    133  C         -0.9240  -34.9930   -9.0580 C.2    87  ALA87       0.2458
    134  O         -0.7080  -34.8160   -7.8530 O.2    87  ALA87      -0.2730
    135  CB         1.2760  -33.9300   -9.6000 C.3    87  ALA87       0.0333
    136  N         -1.8480  -35.8570   -9.5130 N.am   88  PRO88      -0.2727
    137  CA        -2.8350  -36.4820   -8.6260 C.3    88  PRO88       0.1402
    138  C         -2.2660  -37.1400   -7.3760 C.2    88  PRO88       0.2269
    139  O         -2.8040  -36.9220   -6.2960 O.2    88  PRO88      -0.2865
    140  CB        -3.4980  -37.5430   -9.5120 C.3    88  PRO88       0.0296
    141  CG        -3.2590  -37.0960  -10.9100 C.3    88  PRO88       0.0237
    142  CD        -1.9590  -36.3520  -10.8980 C.3    88  PRO88       0.0939
    143  N          0.2840  -36.7600   -5.4320 N.3    90  GLY90      -0.1210
    144  CA         0.8720  -35.9900   -4.3440 C.3    90  GLY90       0.1956
    145  C          2.3840  -35.9850   -4.3210 C.2    90  GLY90       0.2612
    146  O          3.0230  -36.3300   -5.3110 O.2    90  GLY90      -0.2717
    147  N          2.9490  -35.5940   -3.1790 N.am   91  THR91      -0.1952
    148  CA         4.3990  -35.4390   -3.0390 C.3    91  THR91       0.1897
    149  C          5.0590  -36.7420   -2.6430 C.2    91  THR91       0.2313
    150  O          4.4570  -37.5830   -1.9770 O.2    91  THR91      -0.2863
    151  CB         4.8020  -34.4180   -1.9510 C.3    91  THR91       0.1794
    152  OG1        4.5290  -34.9570   -0.6530 O.3    91  THR91      -0.2208
    153  CG2        4.0850  -33.0840   -2.1150 C.3    91  THR91       0.0378
    154  N          5.4630  -37.0250    1.1600 N.3    94  ARG94      -0.1245
    155  CA         4.3140  -37.5830    1.8610 C.3    94  ARG94       0.1563
    156  C          4.3590  -39.1040    1.8000 C.2    94  ARG94       0.2260
    157  O          4.1080  -39.7870    2.7890 O.2    94  ARG94      -0.2867
    158  CB         3.0140  -37.0640    1.2460 C.3    94  ARG94       0.0307
    159  CG         1.8070  -37.1450    2.1690 C.3    94  ARG94       0.0489
    160  CD         0.6020  -37.7180    1.4470 C.3    94  ARG94       0.2205
    161  NE         0.8100  -39.1340    1.1520 N.pl3  94  ARG94      -0.0865
    162  CZ        -0.0140  -39.8870    0.4330 C.cat  94  ARG94       0.5346
    163  NH1        0.2790  -41.1660    0.2270 N.pl3  94  ARG94       0.1354
    164  NH2       -1.1260  -39.3730   -0.0810 N.pl3  94  ARG94       0.1354
    165  N          9.5030  -31.2110   -3.0950 N.3   135  ASN135     -0.1240
    166  CA         9.3230  -30.6930   -4.4500 C.3   135  ASN135      0.1653
    167  C          9.2240  -31.7700   -5.5340 C.2   135  ASN135      0.2266
    168  O          9.3250  -31.4680   -6.7270 O.2   135  ASN135     -0.2867
    169  CB        10.4810  -29.7550   -4.7850 C.3   135  ASN135      0.1155
    170  CG        10.6060  -28.6090   -3.7990 C.2   135  ASN135      0.2627
    171  OD1        9.6150  -28.1560   -3.2170 O.2   135  ASN135     -0.2716
    172  ND2       11.8320  -28.1320   -3.6070 N.am  135  ASN135     -0.0877
    173  N          6.6460  -34.4460   -7.0850 N.3   137  LEU137     -0.1245
    174  CA         5.2510  -34.8350   -7.1460 C.3   137  LEU137      0.1561
    175  C          5.1100  -36.0940   -7.9700 C.2   137  LEU137      0.2260
    176  O          6.0380  -36.4860   -8.6780 O.2   137  LEU137     -0.2867
    177  CB         4.4180  -33.7220   -7.7710 C.3   137  LEU137      0.0270
    178  CG         4.3900  -32.4020   -7.0070 C.3   137  LEU137      0.0019
    179  CD1        3.7010  -31.3390   -7.8510 C.3   137  LEU137      0.0001
    180  CD2        3.6970  -32.5720   -5.6650 C.3   137  LEU137      0.0001
    181  N          9.3180  -30.3650   -9.4240 N.3   147  ALA147     -0.1231
    182  CA         8.5450  -29.1270   -9.3310 C.3   147  ALA147      0.1694
    183  C          9.1480  -28.1290   -8.3330 C.2   147  ALA147      0.2592
    184  O          8.8500  -28.1830   -7.1380 O.2   147  ALA147     -0.2718
    185  CB         7.1090  -29.4520   -8.9470 C.3   147  ALA147      0.0304
    186  N          9.9930  -27.2250   -8.8310 N.am  148  ASP148     -0.1960
    187  CA        10.5070  -26.1000   -8.0270 C.3   148  ASP148      0.1840
    188  C         11.0950  -24.9850   -8.9150 C.2   148  ASP148      0.2622
    189  O         11.0900  -25.1080  -10.1390 O.2   148  ASP148     -0.2715
    190  CB        11.5300  -26.5890   -6.9880 C.3   148  ASP148      0.1450
    191  CG        12.7230  -27.2790   -7.6110 C.2   148  ASP148      0.3671
    192  OD1       13.0020  -27.0530   -8.8090 O.co2 148  ASP148     -0.2456
    193  OD2       13.3940  -28.0490   -6.8940 O.co2 148  ASP148     -0.2456
    194  N         11.5980  -23.9130   -8.2940 N.am  149  PHE149     -0.1974
    195  CA        12.0620  -22.7140   -9.0140 C.3   149  PHE149      0.1639
    196  C         13.5890  -22.5490   -9.1030 C.2   149  PHE149      0.2290
    197  O         14.1370  -21.5930   -8.5450 O.2   149  PHE149     -0.2864
    198  CB        11.5030  -21.4560   -8.3340 C.3   149  PHE149      0.0560
    199  CG        10.0220  -21.2740   -8.4880 C.ar  149  PHE149     -0.0200
    200  CD1        9.4590  -21.0710   -9.7410 C.ar  149  PHE149     -0.0042
    201  CD2        9.1940  -21.2510   -7.3730 C.ar  149  PHE149     -0.0042
    202  CE1        8.0970  -20.8800   -9.8830 C.ar  149  PHE149     -0.0003
    203  CE2        7.8310  -21.0590   -7.5080 C.ar  149  PHE149     -0.0003
    204  CZ         7.2810  -20.8720   -8.7640 C.ar  149  PHE149     -0.0000
@<TRIPOS>BOND
     1    85    83    1
     2    83    84    1
     3    83    82    2
     4    82    81    1
     5    81    80    1
     6    80    79    1
     7    89    88    2
     8    61    60    2
     9    60    59    1
    10    88    87    1
    11    79    76    1
    12    58    59    1
    13    59    62    1
    14    86    87    1
    15    86    77   am
    16    87    90    1
    17    76    77    1
    18    76    75    1
    19    90    91    1
    20    93    91    1
    21    77    78    2
    22    91    92    1
    23    62    63    1
    24   117   116   ar
    25    75    69   am
    26    63    64    1
    27   116   115    1
    28   116   118   ar
    29   115   114    1
    30   114   111    1
    31    70    69    2
    32    69    68    1
    33   111   110    1
    34   111   112    1
    35   110   104   am
    36    64    65    2
    37    64    66   am
    38   104   105    2
    39   104   103    1
    40    67    68    1
    41    68    71    1
    42   102   103    1
    43   103   106    1
    44   112   119   am
    45   112   113    2
    46   119   120    1
    47    96    95    1
    48    96    97    2
    49   101    99    1
    50   122   121    2
    51    95    98    1
    52    95    94    1
    53    71    72    1
    54    72    73    1
    55    72    74    1
    56   106   107    1
    57   109   107    1
    58    47    46    2
    59    98    99    1
    60    44    45    1
    61   123   120    1
    62   123   124    1
    63   120   121    1
    64   121   131   am
    65    99   100    1
    66   107   108    1
    67   126   124   ar
    68   126   128   ar
    69   141   142    1
    70   141   140    1
    71   142   136    1
    72    46    45    1
    73   124   125   ar
    74    45    48    1
    75   131   132    1
    76   128   129   ar
    77   189   188    2
    78   132   135    1
    79   132   133    1
    80   202   200   ar
    81   202   204   ar
    82   200   199   ar
    83   136   133   am
    84   136   137    1
    85   140   137    1
    86   181   182    1
    87   125   127   ar
    88   182   185    1
    89   182   183    1
    90   196   195    1
    91   196   197    2
    92   133   134    2
    93   195   198    1
    94   195   194    1
    95    49    50    1
    96   188   194   am
    97   188   187    1
    98   129   127   ar
    99   129   130    1
   100   186   183   am
   101   186   187    1
   102   192   191   ar
   103    52    51    2
   104   204   203   ar
   105   176   175    2
   106   137   138    1
   107   199   198    1
   108   199   201   ar
   109   183   184    2
   110   187   190    1
   111    53    50    1
   112    53    54    1
   113   175   174    1
   114   179   178    1
   115    50    51    1
   116   177   174    1
   117   177   178    1
   118   191   190    1
   119   191   193   ar
   120   203   201   ar
   121   138   139    2
   122   174   173    1
   123   178   180    1
   124    55    54    1
   125    55    56    1
   126   168   167    2
   127    18    17    1
   128    42    41    1
   129    56    57    1
   130    43    41    1
   131   167   166    1
   132   143   144    1
   133    41    38    1
   134   146   145    2
   135    17    19    1
   136    17    16    1
   137    38    39    1
   138    38    37    1
   139   169   166    1
   140   169   170    1
   141    39    40    2
   142    16    13    1
   143   166   165    1
   144   144   145    1
   145   145   147   am
   146     1     2    1
   147     4     3    2
   148   170   172   am
   149   170   171    2
   150    10     9    1
   151   147   148    1
   152   148   149    1
   153   148   151    1
   154    13    12    1
   155    13    14    1
   156     3     2    1
   157     6     7    1
   158     6     5    1
   159   149   150    2
   160     2     5    1
   161     9    11    1
   162     9     8    2
   163    15    14    2
   164    14    20   am
   165   153   151    1
   166     7     8    1
   167   151   152    1
   168    20    21    1
   169    23    22    2
   170    21    22    1
   171    34    33    1
   172    34    35    1
   173    22    24   am
   174    33    26   am
   175   164   162    1
   176    35    36    2
   177    24    25    1
   178    26    25    1
   179    26    27    2
   180   163   162    1
   181   162   161    2
   182    25    28    1
   183   161   160    1
   184   154   155    1
   185   158   155    1
   186   158   159    1
   187   160   159    1
   188   156   155    1
   189   156   157    2
   190    28    29    1
   191    32    31    1
   192    30    29    1
   193    30    31    1
