@<TRIPOS>MOLECULE
tmp/4ztuA00.pdb
 173 166 0 0 0
SMALL
GASTEIGER

@<TRIPOS>ATOM
      1  N         32.5780   55.8610  -25.4180 N.3   640  ARG640     -0.1245
      2  CA        31.3330   56.5290  -25.7640 C.3   640  ARG640      0.1563
      3  C         30.7470   57.2340  -24.5510 C.2   640  ARG640      0.2260
      4  O         31.0790   56.9080  -23.4120 O.2   640  ARG640     -0.2867
      5  CB        30.3170   55.5340  -26.3280 C.3   640  ARG640      0.0307
      6  CG        30.4660   55.2810  -27.8100 C.3   640  ARG640      0.0489
      7  CD        29.2230   54.6330  -28.3830 C.3   640  ARG640      0.2205
      8  NE        29.2860   54.5510  -29.8380 N.pl3 640  ARG640     -0.0865
      9  CZ        28.2950   54.1070  -30.6020 C.cat 640  ARG640      0.5346
     10  NH1       27.1580   53.7040  -30.0500 N.pl3 640  ARG640      0.1354
     11  NH2       28.4410   54.0700  -31.9190 N.pl3 640  ARG640      0.1354
     12  N         23.1450   64.1840  -38.2790 N.3   677  ASP677     -0.1225
     13  CA        23.3890   62.7790  -37.9760 C.3   677  ASP677      0.1805
     14  C         24.1640   62.1220  -39.1140 C.2   677  ASP677      0.2598
     15  O         23.7170   62.1250  -40.2610 O.2   677  ASP677     -0.2718
     16  CB        22.0680   62.0450  -37.7340 C.3   677  ASP677      0.1424
     17  CG        22.2680   60.5940  -37.3380 C.2   677  ASP677      0.3668
     18  OD1       22.3690   59.7360  -38.2400 O.co2 677  ASP677     -0.2456
     19  OD2       22.3240   60.3130  -36.1230 O.co2 677  ASP677     -0.2456
     20  N         25.3290   61.5690  -38.7910 N.am  678  VAL678     -0.1966
     21  CA        26.1850   60.9330  -39.7890 C.3   678  VAL678      0.1727
     22  C         25.4880   59.7380  -40.4340 C.2   678  VAL678      0.2616
     23  O         25.0540   58.8130  -39.7470 O.2   678  VAL678     -0.2715
     24  CB        27.5180   60.4690  -39.1690 C.3   678  VAL678      0.0290
     25  CG1       28.4120   59.8510  -40.2320 C.3   678  VAL678      0.0023
     26  CG2       28.2190   61.6340  -38.4860 C.3   678  VAL678      0.0023
     27  N         25.3800   59.7630  -41.7570 N.am  679  ASP679     -0.1957
     28  CA        24.6880   58.7040  -42.4820 C.3   679  ASP679      0.1840
     29  C         25.4950   58.1950  -43.6740 C.2   679  ASP679      0.2623
     30  O         25.4410   58.7740  -44.7600 O.2   679  ASP679     -0.2715
     31  CB        23.3140   59.1930  -42.9490 C.3   679  ASP679      0.1450
     32  CG        23.3210   60.6540  -43.3640 C.2   679  ASP679      0.3671
     33  OD1       22.2490   61.2900  -43.3090 O.co2 679  ASP679     -0.2456
     34  OD2       24.3960   61.1660  -43.7420 O.co2 679  ASP679     -0.2456
     35  N         26.2410   57.1110  -43.4760 N.am  680  SER680     -0.1936
     36  CA        26.3300   56.4360  -42.1840 C.3   680  SER680      0.2055
     37  C         27.7910   56.3060  -41.7720 C.2   680  SER680      0.2643
     38  O         28.6830   56.3930  -42.6160 O.2   680  SER680     -0.2714
     39  CB        25.6670   55.0600  -42.2460 C.3   680  SER680      0.2130
     40  OG        26.2840   54.2440  -43.2260 O.3   680  SER680     -0.2179
     41  N         28.0440   56.0920  -40.4840 N.am  681  GLN681     -0.1963
     42  CA        29.4240   56.0700  -40.0070 C.3   681  GLN681      0.1733
     43  C         30.0490   54.6730  -40.0150 C.2   681  GLN681      0.2616
     44  O         30.9230   54.4020  -40.8330 O.2   681  GLN681     -0.2715
     45  CB        29.5270   56.6900  -38.6060 C.3   681  GLN681      0.0408
     46  CG        28.5110   56.2130  -37.5810 C.3   681  GLN681      0.0908
     47  CD        28.8310   56.7150  -36.1870 C.2   681  GLN681      0.2608
     48  OE1       28.5080   56.0680  -35.1900 O.2   681  GLN681     -0.2717
     49  NE2       29.4760   57.8730  -36.1110 N.am  681  GLN681     -0.0878
     50  N         29.6010   53.7900  -39.1250 N.am  682  GLU682     -0.1977
     51  CA        30.2820   52.5130  -38.9010 C.3   682  GLU682      0.1602
     52  C         30.3130   51.6140  -40.1370 C.2   682  GLU682      0.2287
     53  O         31.2670   50.8580  -40.3430 O.2   682  GLU682     -0.2864
     54  CB        29.6320   51.7700  -37.7280 C.3   682  GLU682      0.0415
     55  CG        29.9530   52.3770  -36.3650 C.3   682  GLU682      0.1163
     56  CD        29.8120   51.3810  -35.2250 C.2   682  GLU682      0.3649
     57  OE1       29.6820   50.1710  -35.5030 O.co2 682  GLU682     -0.2457
     58  OE2       29.8320   51.8070  -34.0500 O.co2 682  GLU682     -0.2457
     59  N         20.2040   58.6810  -49.6790 N.3   712  LYS712     -0.1245
     60  CA        18.9480   58.5530  -48.9460 C.3   712  LYS712      0.1561
     61  C         17.8310   59.4050  -49.5480 C.2   712  LYS712      0.2260
     62  O         16.6670   59.0010  -49.5490 O.2   712  LYS712     -0.2867
     63  CB        19.1530   58.9170  -47.4710 C.3   712  LYS712      0.0271
     64  CG        19.7820   60.2800  -47.2310 C.3   712  LYS712      0.0035
     65  CD        20.0800   60.4970  -45.7530 C.3   712  LYS712      0.0206
     66  CE        18.8200   60.3810  -44.9070 C.3   712  LYS712      0.1093
     67  NZ        19.1020   60.5700  -43.4570 N.3   712  LYS712     -0.1314
     68  N         21.3410   49.9730  -46.4760 N.3   719  HIS719     -0.1241
     69  CA        20.3330   49.5080  -45.5310 C.3   719  HIS719      0.1621
     70  C         18.9700   49.4530  -46.2080 C.2   719  HIS719      0.2264
     71  O         18.2000   48.5140  -46.0060 O.2   719  HIS719     -0.2867
     72  CB        20.2710   50.4230  -44.3030 C.3   719  HIS719      0.0745
     73  CG        21.5560   50.5030  -43.5380 C.ar  719  HIS719      0.0817
     74  ND1       21.8520   49.6590  -42.4890 N.ar  719  HIS719     -0.2268
     75  CD2       22.6160   51.3350  -43.6610 C.ar  719  HIS719      0.1154
     76  CE1       23.0420   49.9630  -42.0030 C.ar  719  HIS719      0.1986
     77  NE2       23.5280   50.9780  -42.6960 N.ar  719  HIS719     -0.2212
     78  N         13.0720   50.5370  -41.7190 N.3   730  ARG730     -0.1231
     79  CA        14.4460   50.5240  -42.2120 C.3   730  ARG730      0.1694
     80  C         15.4080   50.2070  -41.0720 C.2   730  ARG730      0.2591
     81  O         16.4860   49.6560  -41.2900 O.2   730  ARG730     -0.2718
     82  CB        14.8060   51.8690  -42.8510 C.3   730  ARG730      0.0321
     83  CG        16.1960   51.9150  -43.4760 C.3   730  ARG730      0.0489
     84  CD        16.5000   53.2910  -44.0520 C.3   730  ARG730      0.2205
     85  NE        17.8270   53.3530  -44.6620 N.pl3 730  ARG730     -0.0865
     86  CZ        18.9280   53.7370  -44.0230 C.cat 730  ARG730      0.5346
     87  NH1       18.8680   54.0920  -42.7480 N.pl3 730  ARG730      0.1354
     88  NH2       20.0910   53.7660  -44.6600 N.pl3 730  ARG730      0.1354
     89  N         15.0010   50.5590  -39.8560 N.am  731  GLU731     -0.1979
     90  CA        15.8110   50.3310  -38.6640 C.3   731  GLU731      0.1602
     91  C         16.1020   48.8460  -38.4610 C.2   731  GLU731      0.2287
     92  O         17.1740   48.4690  -37.9860 O.2   731  GLU731     -0.2864
     93  CB        15.1090   50.9010  -37.4290 C.3   731  GLU731      0.0415
     94  CG        14.6230   52.3350  -37.5880 C.3   731  GLU731      0.1163
     95  CD        15.7560   53.3400  -37.6310 C.2   731  GLU731      0.3649
     96  OE1       16.8670   53.0110  -37.1630 O.co2 731  GLU731     -0.2457
     97  OE2       15.5370   54.4630  -38.1340 O.co2 731  GLU731     -0.2457
     98  N         18.8430   47.7390  -40.5840 N.3   734  LYS734     -0.1231
     99  CA        20.0450   48.2930  -39.9760 C.3   734  LYS734      0.1693
    100  C         20.5540   47.3630  -38.8770 C.2   734  LYS734      0.2591
    101  O         21.7500   47.0790  -38.7930 O.2   734  LYS734     -0.2718
    102  CB        19.7610   49.6870  -39.4130 C.3   734  LYS734      0.0285
    103  CG        20.9570   50.3630  -38.7760 C.3   734  LYS734      0.0035
    104  CD        20.5550   51.6660  -38.1020 C.3   734  LYS734      0.0206
    105  CE        19.8970   52.6200  -39.0850 C.3   734  LYS734      0.1093
    106  NZ        19.5550   53.9190  -38.4420 N.3   734  LYS734     -0.1314
    107  N         19.6300   46.8910  -38.0440 N.am  735  ILE735     -0.1980
    108  CA        19.9510   45.9330  -36.9900 C.3   735  ILE735      0.1595
    109  C         20.4780   44.6300  -37.5820 C.2   735  ILE735      0.2287
    110  O         21.3880   44.0050  -37.0330 O.2   735  ILE735     -0.2864
    111  CB        18.7160   45.6330  -36.1080 C.3   735  ILE735      0.0276
    112  CG1       18.2480   46.9020  -35.3950 C.3   735  ILE735      0.0022
    113  CG2       19.0180   44.5400  -35.0930 C.3   735  ILE735      0.0022
    114  CD1       17.0340   46.6910  -34.5180 C.3   735  ILE735      0.0001
    115  N         24.2170   45.5640  -39.1060 N.3   738  TYR738     -0.1241
    116  CA        25.1720   45.7990  -38.0270 C.3   738  TYR738      0.1605
    117  C         25.3090   44.5730  -37.1280 C.2   738  TYR738      0.2264
    118  O         26.3340   44.3810  -36.4790 O.2   738  TYR738     -0.2867
    119  CB        24.7640   47.0250  -37.2040 C.3   738  TYR738      0.0534
    120  CG        25.1230   48.3390  -37.8620 C.ar  738  TYR738     -0.0201
    121  CD1       26.3470   48.5090  -38.4950 C.ar  738  TYR738     -0.0009
    122  CD2       24.2360   49.4080  -37.8570 C.ar  738  TYR738     -0.0009
    123  CE1       26.6810   49.7060  -39.0990 C.ar  738  TYR738      0.0417
    124  CE2       24.5590   50.6090  -38.4620 C.ar  738  TYR738      0.0417
    125  CZ        25.7830   50.7530  -39.0800 C.ar  738  TYR738      0.1957
    126  OH        26.1130   51.9450  -39.6820 O.3   738  TYR738     -0.2866
    127  N         29.0110   41.9570  -36.8370 N.3   742  TYR742     -0.1241
    128  CA        29.6070   41.5840  -35.5560 C.3   742  TYR742      0.1605
    129  C         29.1690   40.1960  -35.0930 C.2   742  TYR742      0.2264
    130  O         29.1630   39.9090  -33.8970 O.2   742  TYR742     -0.2867
    131  CB        29.2570   42.6190  -34.4830 C.3   742  TYR742      0.0534
    132  CG        29.4340   44.0540  -34.9270 C.ar  742  TYR742     -0.0201
    133  CD1       30.4780   44.4240  -35.7650 C.ar  742  TYR742     -0.0009
    134  CD2       28.5500   45.0390  -34.5100 C.ar  742  TYR742     -0.0009
    135  CE1       30.6330   45.7310  -36.1750 C.ar  742  TYR742      0.0417
    136  CE2       28.6990   46.3490  -34.9170 C.ar  742  TYR742      0.0417
    137  CZ        29.7410   46.6910  -35.7460 C.ar  742  TYR742      0.1957
    138  OH        29.8870   47.9980  -36.1480 O.3   742  TYR742     -0.2866
    139  N         33.8330   44.9790  -32.6010 N.3   853  ASN853     -0.1240
    140  CA        32.9780   46.1050  -32.2720 C.3   853  ASN853      0.1653
    141  C         33.8000   47.2470  -31.6900 C.2   853  ASN853      0.2266
    142  O         33.5280   48.4120  -31.9660 O.2   853  ASN853     -0.2867
    143  CB        31.8790   45.6820  -31.2980 C.3   853  ASN853      0.1155
    144  CG        30.9120   46.8060  -30.9890 C.2   853  ASN853      0.2627
    145  OD1       30.9720   47.4180  -29.9230 O.2   853  ASN853     -0.2716
    146  ND2       30.0180   47.0900  -31.9300 N.am  853  ASN853     -0.0877
    147  N         33.5930   50.7550  -33.7060 N.3   857  GLN857     -0.1245
    148  CA        32.9550   51.7700  -32.8740 C.3   857  GLN857      0.1566
    149  C         33.9770   52.7970  -32.4030 C.2   857  GLN857      0.2260
    150  O         33.6290   53.9380  -32.1130 O.2   857  GLN857     -0.2867
    151  CB        32.2560   51.1200  -31.6810 C.3   857  GLN857      0.0367
    152  CG        31.2190   51.9810  -30.9930 C.3   857  GLN857      0.0905
    153  CD        30.2700   51.1530  -30.1480 C.2   857  GLN857      0.2608
    154  OE1       29.8780   51.5550  -29.0540 O.2   857  GLN857     -0.2717
    155  NE2       29.8910   49.9860  -30.6590 N.am  857  GLN857     -0.0878
    156  N         26.4940   60.2470  -29.8870 N.3   889  HIS889     -0.1226
    157  CA        27.2030   59.2540  -30.6980 C.3   889  HIS889      0.1752
    158  C         27.2930   59.6450  -32.1730 C.2   889  HIS889      0.2596
    159  O         28.1820   60.3930  -32.5780 O.2   889  HIS889     -0.2718
    160  CB        26.5270   57.8860  -30.5670 C.3   889  HIS889      0.0759
    161  CG        26.3930   57.4130  -29.1540 C.ar  889  HIS889      0.0818
    162  ND1       27.2080   57.8620  -28.1370 N.ar  889  HIS889     -0.2268
    163  CD2       25.5340   56.5340  -28.5850 C.ar  889  HIS889      0.1154
    164  CE1       26.8610   57.2780  -27.0060 C.ar  889  HIS889      0.1986
    165  NE2       25.8480   56.4670  -27.2490 N.ar  889  HIS889     -0.2212
    166  N         26.3650   59.1170  -32.9650 N.am  890  ASP890     -0.1974
    167  CA        26.2930   59.3980  -34.3920 C.3   890  ASP890      0.1709
    168  C         25.9200   60.8560  -34.6340 C.2   890  ASP890      0.2293
    169  O         26.5050   61.5270  -35.4880 O.2   890  ASP890     -0.2864
    170  CB        25.2710   58.4680  -35.0510 C.3   890  ASP890      0.1436
    171  CG        25.2800   58.5530  -36.5650 C.2   890  ASP890      0.3671
    172  OD1       25.0980   59.6590  -37.1110 O.co2 890  ASP890     -0.2456
    173  OD2       25.4640   57.5020  -37.2120 O.co2 890  ASP890     -0.2456
@<TRIPOS>BOND
     1    59    60    1
     2    62    61    2
     3    61    60    1
     4    60    63    1
     5    63    64    1
     6    64    65    1
     7    68    69    1
     8    70    71    2
     9    70    69    1
    10    65    66    1
    11    69    72    1
    12    66    67    1
    13    30    29    2
    14    85    84    1
    15    85    86    2
    16    88    86    1
    17    72    73    1
    18    84    83    1
    19    86    87    1
    20    34    32   ar
    21    29    35   am
    22    29    28    1
    23    75    73   ar
    24    75    77   ar
    25    73    74   ar
    26    35    36    1
    27    83    82    1
    28    32    33   ar
    29    32    31    1
    30    40    39    1
    31    31    28    1
    32    82    79    1
    33    77    76   ar
    34    38    37    2
    35    74    76   ar
    36    28    27    1
    37    39    36    1
    38    79    78    1
    39    79    80    1
    40    36    37    1
    41    37    41   am
    42    27    22   am
    43    81    80    2
    44    80    89   am
    45    44    43    2
    46    98    99    1
    47    41    42    1
    48    22    21    1
    49    22    23    2
    50    53    52    2
    51    15    14    2
    52    25    24    1
    53    52    51    1
    54    43    42    1
    55    43    50   am
    56    42    45    1
    57    99   102    1
    58    99   100    1
    59    89    90    1
    60    21    24    1
    61    21    20    1
    62   126   125    1
    63   102   103    1
    64    24    26    1
    65    50    51    1
    66    14    20   am
    67    14    13    1
    68   115   116    1
    69   123   125   ar
    70   123   121   ar
    71   105   106    1
    72   105   104    1
    73   125   124   ar
    74    51    54    1
    75   100   101    2
    76   100   107   am
    77   103   104    1
    78    90    91    1
    79    90    93    1
    80    45    46    1
    81   121   120   ar
    82   124   122   ar
    83    91    92    2
    84    12    13    1
    85    18    17   ar
    86    97    95   ar
    87   107   108    1
    88   116   119    1
    89   116   117    1
    90    13    16    1
    91   120   122   ar
    92   120   119    1
    93    16    17    1
    94    54    55    1
    95    95    94    1
    96    95    96   ar
    97    94    93    1
    98   109   110    2
    99   109   108    1
   100    46    47    1
   101    17    19   ar
   102   173   171   ar
   103   117   118    2
   104   172   171   ar
   105   108   111    1
   106   127   128    1
   107   171   170    1
   108    55    56    1
   109    47    49   am
   110    47    48    2
   111   135   133   ar
   112   135   137   ar
   113   138   137    1
   114   111   112    1
   115   111   113    1
   116   133   132   ar
   117   137   136   ar
   118   128   129    1
   119   128   131    1
   120    57    56   ar
   121   169   168    2
   122   112   114    1
   123    56    58   ar
   124   129   130    2
   125   170   167    1
   126   132   134   ar
   127   132   131    1
   128   136   134   ar
   129   168   167    1
   130   167   166    1
   131   147   148    1
   132   166   158   am
   133   148   149    1
   134   148   151    1
   135   139   140    1
   136   159   158    2
   137   149   150    2
   138   140   141    1
   139   140   143    1
   140   158   157    1
   141   142   141    2
   142   146   144   am
   143    11     9    1
   144   151   152    1
   145   143   144    1
   146   152   153    1
   147   144   145    2
   148   157   160    1
   149   157   156    1
   150   155   153   am
   151     9    10    1
   152     9     8    2
   153   160   161    1
   154   153   154    2
   155     8     7    1
   156   161   163   ar
   157   161   162   ar
   158   163   165   ar
   159     7     6    1
   160   162   164   ar
   161     6     5    1
   162   165   164   ar
   163     5     2    1
   164     2     1    1
   165     2     3    1
   166     3     4    2
