@<TRIPOS>MOLECULE
tmp/4ztvA00.pdb
 139 135 0 0 0
SMALL
GASTEIGER

@<TRIPOS>ATOM
      1  N          6.5500  -75.6040  -10.3490 N.3    62  MET62      -0.1245
      2  CA         7.8500  -76.2470  -10.4850 C.3    62  MET62       0.1570
      3  C          8.3700  -76.7140   -9.1260 C.2    62  MET62       0.2261
      4  O          8.8380  -77.8450   -8.9840 O.2    62  MET62      -0.2867
      5  CB         8.8430  -75.2900  -11.1380 C.3    62  MET62       0.0387
      6  CG        10.2200  -75.8860  -11.3580 C.3    62  MET62       0.0595
      7  SD        11.1890  -74.9250  -12.5330 S.3    62  MET62      -0.1393
      8  CE        12.8150  -75.6400  -12.2790 C.3    62  MET62       0.0692
      9  N         22.0580  -72.7550   -6.5010 N.3   108  HIS108     -0.1226
     10  CA        21.2120  -73.6190   -7.3030 C.3   108  HIS108      0.1752
     11  C         21.5450  -73.4030   -8.7740 C.2   108  HIS108      0.2597
     12  O         21.4780  -72.2800   -9.2690 O.2   108  HIS108     -0.2718
     13  CB        19.7440  -73.3100   -7.0050 C.3   108  HIS108      0.0759
     14  CG        18.7730  -73.9910   -7.9150 C.ar  108  HIS108      0.0818
     15  ND1       17.7840  -73.3060   -8.5860 N.ar  108  HIS108     -0.2268
     16  CD2       18.6240  -75.2940   -8.2480 C.ar  108  HIS108      0.1154
     17  CE1       17.0710  -74.1580   -9.3010 C.ar  108  HIS108      0.1986
     18  NE2       17.5590  -75.3700   -9.1130 N.ar  108  HIS108     -0.2212
     19  N         21.9230  -74.4730   -9.4640 N.am  109  GLY109     -0.1942
     20  CA        22.3160  -74.3600  -10.8560 C.3   109  GLY109      0.2014
     21  C         22.5920  -75.6890  -11.5300 C.2   109  GLY109      0.2638
     22  O         22.3340  -76.7590  -10.9740 O.2   109  GLY109     -0.2714
     23  N         23.1230  -75.6070  -12.7440 N.am  110  ASN110     -0.1972
     24  CA        23.3890  -76.7800  -13.5620 C.3   110  ASN110      0.1688
     25  C         24.6110  -76.5360  -14.4430 C.2   110  ASN110      0.2292
     26  O         25.0520  -75.3960  -14.5930 O.2   110  ASN110     -0.2864
     27  CB        22.1610  -77.1080  -14.4170 C.3   110  ASN110      0.1181
     28  CG        22.2700  -78.4480  -15.1190 C.2   110  ASN110      0.2629
     29  OD1       23.1320  -79.2670  -14.8010 O.2   110  ASN110     -0.2716
     30  ND2       21.3800  -78.6810  -16.0760 N.am  110  ASN110     -0.0877
     31  N         20.6220  -78.8690  -10.0910 N.3   147  ALA147     -0.1231
     32  CA        19.2450  -78.7710  -10.5810 C.3   147  ALA147      0.1679
     33  C         18.6840  -80.0900  -11.1240 C.2   147  ALA147      0.2434
     34  O         17.5350  -80.4240  -10.8460 O.2   147  ALA147     -0.2733
     35  CB        19.1440  -77.6810  -11.6470 C.3   147  ALA147      0.0304
     36  N         19.4810  -80.8440  -11.9010 N.am  148  PRO148     -0.2729
     37  CA        18.9430  -82.1210  -12.3870 C.3   148  PRO148      0.1401
     38  C         18.5710  -83.0940  -11.2690 C.2   148  PRO148      0.2269
     39  O         17.6950  -83.9350  -11.4630 O.2   148  PRO148     -0.2865
     40  CB        20.0890  -82.6840  -13.2340 C.3   148  PRO148      0.0296
     41  CG        20.8620  -81.4880  -13.6640 C.3   148  PRO148      0.0237
     42  CD        20.7890  -80.5360  -12.5080 C.3   148  PRO148      0.0939
     43  N         15.2970  -81.0960   -9.5110 N.3   151  HIS151     -0.1227
     44  CA        14.1970  -80.8110  -10.4370 C.3   151  HIS151      0.1737
     45  C         14.1430  -81.8210  -11.5810 C.2   151  HIS151      0.2438
     46  O         14.1470  -81.4310  -12.7490 O.2   151  HIS151     -0.2733
     47  CB        14.3350  -79.4040  -11.0340 C.3   151  HIS151      0.0758
     48  CG        14.2570  -78.2970  -10.0290 C.ar  151  HIS151      0.0818
     49  ND1       13.0970  -77.9830   -9.3550 N.ar  151  HIS151     -0.2268
     50  CD2       15.1890  -77.4090   -9.6090 C.ar  151  HIS151      0.1154
     51  CE1       13.3220  -76.9600   -8.5500 C.ar  151  HIS151      0.1986
     52  NE2       14.5840  -76.5940   -8.6840 N.ar  151  HIS151     -0.2212
     53  N         14.0820  -83.1220  -11.2590 N.am  152  PRO152     -0.2729
     54  CA        14.1340  -84.1260  -12.3300 C.3   152  PRO152      0.1401
     55  C         12.9930  -83.9950  -13.3420 C.2   152  PRO152      0.2269
     56  O         13.1750  -84.2700  -14.5270 O.2   152  PRO152     -0.2865
     57  CB        14.0380  -85.4560  -11.5710 C.3   152  PRO152      0.0296
     58  CG        13.4220  -85.1110  -10.2450 C.3   152  PRO152      0.0237
     59  CD        13.9130  -83.7330   -9.9290 C.3   152  PRO152      0.0939
     60  N         11.7970  -81.4460  -14.5430 N.3   154  TYR154     -0.1227
     61  CA        12.0170  -80.2780  -15.3900 C.3   154  TYR154      0.1736
     62  C         12.7660  -80.6480  -16.6760 C.2   154  TYR154      0.2595
     63  O         13.0300  -79.7920  -17.5200 O.2   154  TYR154     -0.2718
     64  CB        12.7970  -79.2230  -14.6010 C.3   154  TYR154      0.0548
     65  CG        12.9220  -77.8700  -15.2640 C.ar  154  TYR154     -0.0200
     66  CD1       11.8510  -76.9880  -15.3060 C.ar  154  TYR154     -0.0009
     67  CD2       14.1230  -77.4680  -15.8260 C.ar  154  TYR154     -0.0009
     68  CE1       11.9730  -75.7430  -15.9030 C.ar  154  TYR154      0.0417
     69  CE2       14.2560  -76.2310  -16.4210 C.ar  154  TYR154      0.0417
     70  CZ        13.1840  -75.3710  -16.4540 C.ar  154  TYR154      0.1957
     71  OH        13.3350  -74.1420  -17.0500 O.3   154  TYR154     -0.2866
     72  N         13.0840  -81.9310  -16.8280 N.am  155  ARG155     -0.1980
     73  CA        13.9350  -82.3930  -17.9220 C.3   155  ARG155      0.1597
     74  C         13.3660  -82.0940  -19.3110 C.2   155  ARG155      0.2287
     75  O         14.1210  -81.8460  -20.2530 O.2   155  ARG155     -0.2864
     76  CB        14.1900  -83.8980  -17.7810 C.3   155  ARG155      0.0334
     77  CG        12.9490  -84.7730  -17.8630 C.3   155  ARG155      0.0492
     78  CD        13.3020  -86.2390  -17.6360 C.3   155  ARG155      0.2205
     79  NE        12.1210  -87.1020  -17.6420 N.pl3 155  ARG155     -0.0865
     80  CZ        11.3640  -87.3580  -16.5770 C.cat 155  ARG155      0.5346
     81  NH1       11.6480  -86.8210  -15.3950 N.pl3 155  ARG155      0.1354
     82  NH2       10.3130  -88.1570  -16.6930 N.pl3 155  ARG155      0.1354
     83  N         13.8720  -78.4100  -19.9260 N.3   158  ALA158     -0.1245
     84  CA        15.3110  -78.2120  -20.0750 C.3   158  ALA158      0.1562
     85  C         15.7780  -78.5730  -21.4830 C.2   158  ALA158      0.2260
     86  O         16.5880  -77.8660  -22.0740 O.2   158  ALA158     -0.2867
     87  CB        16.0650  -79.0360  -19.0430 C.3   158  ALA158      0.0290
     88  N         14.5620  -75.8670  -23.8540 N.3   161  ARG161     -0.1231
     89  CA        15.3660  -74.6740  -23.6300 C.3   161  ARG161      0.1694
     90  C         16.6910  -74.7340  -24.3820 C.2   161  ARG161      0.2591
     91  O         17.1440  -73.7360  -24.9420 O.2   161  ARG161     -0.2718
     92  CB        15.6360  -74.4910  -22.1390 C.3   161  ARG161      0.0321
     93  CG        14.4490  -73.9780  -21.3520 C.3   161  ARG161      0.0489
     94  CD        14.8780  -72.8420  -20.4560 C.3   161  ARG161      0.2205
     95  NE        15.7660  -73.2830  -19.3880 N.pl3 161  ARG161     -0.0865
     96  CZ        16.6560  -72.5040  -18.7820 C.cat 161  ARG161      0.5346
     97  NH1       16.7930  -71.2340  -19.1400 N.pl3 161  ARG161      0.1354
     98  NH2       17.4190  -72.9980  -17.8160 N.pl3 161  ARG161      0.1354
     99  N         17.3080  -75.9100  -24.3890 N.am  162  ARG162     -0.1980
    100  CA        18.5780  -76.1000  -25.0890 C.3   162  ARG162      0.1597
    101  C         18.3920  -76.0240  -26.6060 C.2   162  ARG162      0.2287
    102  O         19.2060  -75.4250  -27.3150 O.2   162  ARG162     -0.2864
    103  CB        19.2100  -77.4450  -24.7130 C.3   162  ARG162      0.0334
    104  CG        19.7420  -77.5170  -23.2870 C.3   162  ARG162      0.0492
    105  CD        20.6170  -78.7490  -23.0800 C.3   162  ARG162      0.2205
    106  NE        19.8890  -80.0040  -23.2870 N.pl3 162  ARG162     -0.0865
    107  CZ        19.2670  -80.6930  -22.3300 C.cat 162  ARG162      0.5346
    108  NH1       19.2620  -80.2660  -21.0710 N.pl3 162  ARG162      0.1354
    109  NH2       18.6420  -81.8220  -22.6360 N.pl3 162  ARG162      0.1354
    110  N         11.5250  -68.7780  -18.8400 N.3   170  PHE170     -0.1241
    111  CA        12.0380  -69.9080  -18.0750 C.3   170  PHE170      0.1605
    112  C         13.4040  -69.6140  -17.4540 C.2   170  PHE170      0.2264
    113  O         13.7760  -70.2310  -16.4560 O.2   170  PHE170     -0.2867
    114  CB        12.1270  -71.1540  -18.9570 C.3   170  PHE170      0.0534
    115  CG        10.8060  -71.8250  -19.1870 C.ar  170  PHE170     -0.0203
    116  CD1        9.9120  -71.3260  -20.1170 C.ar  170  PHE170     -0.0042
    117  CD2       10.4550  -72.9520  -18.4650 C.ar  170  PHE170     -0.0042
    118  CE1        8.6930  -71.9430  -20.3250 C.ar  170  PHE170     -0.0003
    119  CE2        9.2400  -73.5720  -18.6700 C.ar  170  PHE170     -0.0003
    120  CZ         8.3580  -73.0670  -19.6000 C.ar  170  PHE170     -0.0000
    121  N         13.3150  -68.6720  -13.8070 N.3   173  LEU173     -0.1231
    122  CA        12.8440  -69.6500  -12.8260 C.3   173  LEU173      0.1693
    123  C         13.9360  -70.1520  -11.8900 C.2   173  LEU173      0.2592
    124  O         13.6480  -70.5300  -10.7580 O.2   173  LEU173     -0.2718
    125  CB        12.2030  -70.8450  -13.5350 C.3   173  LEU173      0.0284
    126  CG        10.9050  -70.5670  -14.2990 C.3   173  LEU173      0.0019
    127  CD1       10.4140  -71.8430  -14.9630 C.3   173  LEU173      0.0001
    128  CD2        9.8290  -69.9940  -13.3850 C.3   173  LEU173      0.0001
    129  N         15.1780  -70.1680  -12.3660 N.am  174  GLY174     -0.1957
    130  CA        16.3000  -70.6300  -11.5660 C.3   174  GLY174      0.1869
    131  C         16.3320  -70.0540  -10.1580 C.2   174  GLY174      0.2309
    132  O         16.3250  -70.8040   -9.1820 O.2   174  GLY174     -0.2863
    133  N         13.1990  -70.9050   -7.9100 N.3   177  THR177     -0.1218
    134  CA        12.9280  -72.3120   -7.6280 C.3   177  THR177      0.1862
    135  C         14.1170  -73.0000   -6.9650 C.2   177  THR177      0.2287
    136  O         14.3100  -74.2080   -7.1090 O.2   177  THR177     -0.2866
    137  CB        12.5570  -73.0720   -8.9140 C.3   177  THR177      0.1770
    138  OG1       13.6580  -73.0390   -9.8290 O.3   177  THR177     -0.2211
    139  CG2       11.3350  -72.4380   -9.5670 C.3   177  THR177      0.0375
@<TRIPOS>BOND
     1   102   101    2
     2   101   100    1
     3   100   103    1
     4   100    99    1
     5    91    90    2
     6   103   104    1
     7    99    90   am
     8    90    89    1
     9    88    89    1
    10    89    92    1
    11   106   105    1
    12   106   107    2
    13   104   105    1
    14   109   107    1
    15   107   108    1
    16    92    93    1
    17    86    85    2
    18    85    84    1
    19    93    94    1
    20    94    95    1
    21   118   116   ar
    22   118   120   ar
    23    75    74    2
    24   116   115   ar
    25    84    83    1
    26    84    87    1
    27   120   119   ar
    28    95    96    2
    29    74    73    1
    30   115   114    1
    31   115   117   ar
    32    97    96    1
    33   114   111    1
    34   110   111    1
    35    96    98    1
    36   119   117   ar
    37   111   112    1
    38    73    76    1
    39    73    72    1
    40    77    76    1
    41    77    78    1
    42    79    78    1
    43    79    80    2
    44    63    62    2
    45   112   113    2
    46    71    70    1
    47    72    62   am
    48    82    80    1
    49    62    61    1
    50    80    81    1
    51    70    69   ar
    52    70    68   ar
    53    69    67   ar
    54    30    28   am
    55    68    66   ar
    56    67    65   ar
    57    61    64    1
    58    61    60    1
    59    66    65   ar
    60    65    64    1
    61    28    29    2
    62    28    27    1
    63   127   126    1
    64    26    25    2
    65    56    55    2
    66    25    24    1
    67    27    24    1
    68   126   125    1
    69   126   128    1
    70   121   122    1
    71    41    40    1
    72    41    42    1
    73    24    23    1
    74   125   122    1
    75    55    54    1
    76    40    37    1
    77   122   123    1
    78    46    45    2
    79    23    21   am
    80     7     8    1
    81     7     6    1
    82    42    36    1
    83    37    36    1
    84    37    38    1
    85   129   123   am
    86   129   130    1
    87    54    57    1
    88    54    53    1
    89    36    33   am
    90   123   124    2
    91    35    32    1
    92    45    53   am
    93    45    44    1
    94    57    58    1
    95   130   131    1
    96    21    22    2
    97    21    20    1
    98    39    38    2
    99     6     5    1
   100    53    59    1
   101     5     2    1
   102    33    34    2
   103    33    32    1
   104    47    44    1
   105    47    48    1
   106    20    19    1
   107    32    31    1
   108     2     1    1
   109     2     3    1
   110    44    43    1
   111    58    59    1
   112   131   132    2
   113    48    50   ar
   114    48    49   ar
   115   138   137    1
   116    50    52   ar
   117   139   137    1
   118    19    11   am
   119    49    51   ar
   120    17    18   ar
   121    17    15   ar
   122    12    11    2
   123     3     4    2
   124    18    16   ar
   125   137   134    1
   126    11    10    1
   127    52    51   ar
   128    15    14   ar
   129    16    14   ar
   130    14    13    1
   131   133   134    1
   132   134   135    1
   133    10    13    1
   134    10     9    1
   135   136   135    2
