@<TRIPOS>MOLECULE
tmp/4ztyA00.pdb
 99 98 0 0 0
SMALL
GASTEIGER

@<TRIPOS>ATOM
      1  N         34.7650    2.9380   14.7390 N.3   119  ASN119     -0.1240
      2  CA        34.7970    3.7190   15.9700 C.3   119  ASN119      0.1653
      3  C         36.0510    4.5890   16.0380 C.2   119  ASN119      0.2266
      4  O         36.3230    5.2420   17.0430 O.2   119  ASN119     -0.2867
      5  CB        34.7160    2.8040   17.1930 C.3   119  ASN119      0.1155
      6  CG        33.6220    3.2230   18.1580 C.2   119  ASN119      0.2627
      7  OD1       33.2640    4.4000   18.2360 O.2   119  ASN119     -0.2716
      8  ND2       33.0820    2.2600   18.8960 N.am  119  ASN119     -0.0877
      9  N         38.3780   -5.5660   11.2180 N.3   298  ARG298     -0.1245
     10  CA        37.4480   -4.8310   12.0850 C.3   298  ARG298      0.1563
     11  C         36.9390   -5.6450   13.2670 C.2   298  ARG298      0.2260
     12  O         36.1510   -5.1500   14.0690 O.2   298  ARG298     -0.2867
     13  CB        36.2420   -4.3430   11.2740 C.3   298  ARG298      0.0307
     14  CG        36.5440   -3.2490   10.2450 C.3   298  ARG298      0.0489
     15  CD        36.5400   -1.8700   10.8760 C.3   298  ARG298      0.2205
     16  NE        35.2520   -1.5590   11.4920 N.pl3 298  ARG298     -0.0865
     17  CZ        34.2290   -0.9830   10.8660 C.cat 298  ARG298      0.5346
     18  NH1       34.3300   -0.6360    9.5910 N.pl3 298  ARG298      0.1354
     19  NH2       33.0990   -0.7480   11.5250 N.pl3 298  ARG298      0.1354
     20  N         41.9790   -1.0280   13.5350 N.3   334  HIS334     -0.1241
     21  CA        40.7020   -1.2580   14.2100 C.3   334  HIS334      0.1621
     22  C         40.6840   -2.5020   15.1020 C.2   334  HIS334      0.2264
     23  O         39.6490   -2.8320   15.6640 O.2   334  HIS334     -0.2867
     24  CB        39.5790   -1.3480   13.1710 C.3   334  HIS334      0.0745
     25  CG        39.5900   -0.2040   12.2130 C.ar  334  HIS334      0.0817
     26  ND1       39.2670    1.0800   12.5920 N.ar  334  HIS334     -0.2268
     27  CD2       39.9390   -0.1370   10.9050 C.ar  334  HIS334      0.1154
     28  CE1       39.3980    1.8870   11.5530 C.ar  334  HIS334      0.1986
     29  NE2       39.8170    1.1740   10.5230 N.ar  334  HIS334     -0.2212
     30  N         41.8560   -0.5040   21.5380 N.3   518  VAL518     -0.1245
     31  CA        41.8110   -0.0590   20.1460 C.3   518  VAL518      0.1561
     32  C         41.8000    1.4670   20.1290 C.2   518  VAL518      0.2260
     33  O         41.0910    2.0930   20.9200 O.2   518  VAL518     -0.2867
     34  CB        40.5630   -0.6140   19.4080 C.3   518  VAL518      0.0252
     35  CG1       40.5610   -0.1790   17.9210 C.3   518  VAL518      0.0019
     36  CG2       40.5150   -2.1340   19.5120 C.3   518  VAL518      0.0019
     37  N         39.7680    2.6000   23.3820 N.3   526  VAL526     -0.1245
     38  CA        38.6630    1.8630   23.9890 C.3   526  VAL526      0.1561
     39  C         38.9900    0.3790   24.0970 C.2   526  VAL526      0.2260
     40  O         39.7940   -0.1640   23.3310 O.2   526  VAL526     -0.2867
     41  CB        37.3490    2.0160   23.1890 C.3   526  VAL526      0.0252
     42  CG1       36.8400    3.4510   23.2560 C.3   526  VAL526      0.0019
     43  CG2       37.5570    1.5660   21.7390 C.3   526  VAL526      0.0019
     44  N         36.7320   -2.6210   23.9300 N.3   528  PRO528     -0.2116
     45  CA        35.3560   -3.1090   23.7670 C.3   528  PRO528      0.1372
     46  C         35.1360   -4.4850   24.3870 C.2   528  PRO528      0.2244
     47  O         36.0280   -5.3270   24.3260 O.2   528  PRO528     -0.2868
     48  CB        35.1790   -3.1820   22.2450 C.3   528  PRO528      0.0268
     49  CG        36.3160   -2.3470   21.6700 C.3   528  PRO528      0.0207
     50  CD        37.4390   -2.5060   22.6410 C.3   528  PRO528      0.0892
     51  N         26.9100   -2.7550   18.7710 N.3   569  ARG569     -0.1231
     52  CA        27.9070   -2.1140   17.9120 C.3   569  ARG569      0.1694
     53  C         29.1380   -1.5930   18.6430 C.2   569  ARG569      0.2592
     54  O         30.1960   -1.4450   18.0360 O.2   569  ARG569     -0.2718
     55  CB        27.2680   -0.9690   17.1330 C.3   569  ARG569      0.0321
     56  CG        26.5860   -1.4360   15.8740 C.3   569  ARG569      0.0489
     57  CD        26.5350   -0.3250   14.8600 C.3   569  ARG569      0.2205
     58  NE        27.8640    0.0980   14.4140 N.pl3 569  ARG569     -0.0865
     59  CZ        28.5280   -0.4520   13.4000 C.cat 569  ARG569      0.5346
     60  NH1       28.0000   -1.4690   12.7210 N.pl3 569  ARG569      0.1354
     61  NH2       29.7220    0.0130   13.0640 N.pl3 569  ARG569      0.1354
     62  N         29.0070   -1.3060   19.9370 N.am  570  TRP570     -0.1962
     63  CA        30.1560   -0.8470   20.7110 C.3   570  TRP570      0.1771
     64  C         30.8250   -2.0170   21.4220 C.2   570  TRP570      0.2620
     65  O         31.6980   -1.8300   22.2600 O.2   570  TRP570     -0.2715
     66  CB        29.7440    0.2480   21.6970 C.3   570  TRP570      0.0590
     67  CG        29.5690    1.5540   20.9980 C.ar  570  TRP570      0.0006
     68  CD1       29.6940    1.7760   19.6550 C.ar  570  TRP570      0.0946
     69  CD2       29.2510    2.8220   21.5860 C.ar  570  TRP570      0.0152
     70  NE1       29.4720    3.1000   19.3710 N.ar  570  TRP570     -0.2442
     71  CE2       29.1950    3.7640   20.5380 C.ar  570  TRP570      0.0810
     72  CE3       29.0120    3.2520   22.8940 C.ar  570  TRP570      0.0012
     73  CZ2       28.9100    5.1070   20.7570 C.ar  570  TRP570      0.0191
     74  CZ3       28.7220    4.5870   23.1080 C.ar  570  TRP570      0.0001
     75  CH2       28.6770    5.4970   22.0460 C.ar  570  TRP570      0.0015
     76  N         30.4210   -3.2250   21.0480 N.am  571  SER571     -0.1936
     77  CA        31.1560   -4.4350   21.4010 C.3   571  SER571      0.2055
     78  C         31.7950   -4.9870   20.1380 C.2   571  SER571      0.2643
     79  O         31.4810   -4.5340   19.0410 O.2   571  SER571     -0.2714
     80  CB        30.2340   -5.4820   22.0210 C.3   571  SER571      0.2130
     81  OG        29.5370   -4.9400   23.1360 O.3   571  SER571     -0.2179
     82  N         32.6930   -5.9530   20.2850 N.am  572  PHE572     -0.1960
     83  CA        33.0590   -6.7790   19.1330 C.3   572  PHE572      0.1756
     84  C         31.9630   -7.8120   18.9490 C.2   572  PHE572      0.2461
     85  O         31.7740   -8.6860   19.7870 O.2   572  PHE572     -0.2730
     86  CB        34.4190   -7.4510   19.3250 C.3   572  PHE572      0.0574
     87  CG        35.5890   -6.5270   19.1300 C.ar  572  PHE572     -0.0200
     88  CD1       35.8880   -6.0340   17.8680 C.ar  572  PHE572     -0.0042
     89  CD2       36.3980   -6.1690   20.1950 C.ar  572  PHE572     -0.0042
     90  CE1       36.9760   -5.1910   17.6720 C.ar  572  PHE572     -0.0003
     91  CE2       37.4840   -5.3270   20.0050 C.ar  572  PHE572     -0.0003
     92  CZ        37.7700   -4.8370   18.7400 C.ar  572  PHE572     -0.0000
     93  N         31.2120   -7.7070   17.8520 N.am  573  PRO573     -0.2727
     94  CA        30.1130   -8.6560   17.6750 C.3   573  PRO573      0.1402
     95  C         30.5880  -10.0440   17.2200 C.2   573  PRO573      0.2269
     96  O         31.7190  -10.2060   16.7450 O.2   573  PRO573     -0.2865
     97  CB        29.2640   -7.9810   16.5880 C.3   573  PRO573      0.0296
     98  CG        30.2630   -7.2350   15.7790 C.3   573  PRO573      0.0237
     99  CD        31.2780   -6.7180   16.7630 C.3   573  PRO573      0.0939
@<TRIPOS>BOND
     1    18    17    1
     2    14    15    1
     3    14    13    1
     4    29    27   ar
     5    29    28   ar
     6    17    16    2
     7    17    19    1
     8    15    16    1
     9    27    25   ar
    10     9    10    1
    11    13    10    1
    12    28    26   ar
    13    10    11    1
    14    25    26   ar
    15    25    24    1
    16    60    59    1
    17    61    59    1
    18    24    21    1
    19    11    12    2
    20    59    58    2
    21    20    21    1
    22    21    22    1
    23    58    57    1
    24     1     2    1
    25    57    56    1
    26    22    23    2
    27    98    97    1
    28    98    99    1
    29    56    55    1
    30     2     3    1
    31     2     5    1
    32     3     4    2
    33    97    94    1
    34    96    95    2
    35    99    93    1
    36    55    52    1
    37     5     6    1
    38    95    94    1
    39    90    88   ar
    40    90    92   ar
    41    94    93    1
    42    93    84   am
    43    88    87   ar
    44    52    53    1
    45    52    51    1
    46    35    34    1
    47    54    53    2
    48     6     7    2
    49     6     8   am
    50    53    62   am
    51    92    91   ar
    52    84    83    1
    53    84    85    2
    54    79    78    2
    55    87    86    1
    56    87    89   ar
    57    83    86    1
    58    83    82    1
    59    70    68   ar
    60    70    71   ar
    61    34    36    1
    62    34    31    1
    63    68    67   ar
    64    62    63    1
    65    91    89   ar
    66    32    31    1
    67    32    33    2
    68    78    82   am
    69    78    77    1
    70    31    30    1
    71    71    73   ar
    72    71    69   ar
    73    63    64    1
    74    63    66    1
    75    73    75   ar
    76    67    69   ar
    77    67    66    1
    78    76    77    1
    79    76    64   am
    80    77    80    1
    81    64    65    2
    82    69    72   ar
    83    49    48    1
    84    49    50    1
    85    43    41    1
    86    80    81    1
    87    75    74   ar
    88    48    45    1
    89    50    44    1
    90    72    74   ar
    91    41    42    1
    92    41    38    1
    93    40    39    2
    94    37    38    1
    95    45    44    1
    96    45    46    1
    97    38    39    1
    98    47    46    2
