@<TRIPOS>MOLECULE
tmp/4zu0A01.pdb
 152 148 0 0 0
SMALL
GASTEIGER

@<TRIPOS>ATOM
      1  N         27.6930    9.0850    0.4520 N.3    69  VAL69      -0.1231
      2  CA        26.3630    9.4080    0.9920 C.3    69  VAL69       0.1692
      3  C         25.2720    8.4090    0.5680 C.2    69  VAL69       0.2592
      4  O         24.0830    8.7490    0.5320 O.2    69  VAL69      -0.2718
      5  CB        25.9140   10.8580    0.6590 C.3    69  VAL69       0.0266
      6  CG1       25.0370   11.4010    1.7760 C.3    69  VAL69       0.0020
      7  CG2       27.1050   11.7870    0.4610 C.3    69  VAL69       0.0020
      8  N         25.6760    7.1730    0.2770 N.am   70  TYR70      -0.1962
      9  CA        24.7320    6.1140   -0.0880 C.3    70  TYR70       0.1771
     10  C         24.1780    5.4930    1.1810 C.2    70  TYR70       0.2619
     11  O         24.9290    5.1750    2.1010 O.2    70  TYR70      -0.2715
     12  CB        25.4170    5.0180   -0.9110 C.3    70  TYR70       0.0574
     13  CG        25.7540    5.3670   -2.3510 C.ar   70  TYR70      -0.0198
     14  CD1       26.1160    4.3680   -3.2480 C.ar   70  TYR70      -0.0009
     15  CD2       25.7080    6.6800   -2.8210 C.ar   70  TYR70      -0.0009
     16  CE1       26.4330    4.6620   -4.5640 C.ar   70  TYR70       0.0417
     17  CE2       26.0190    6.9850   -4.1380 C.ar   70  TYR70       0.0417
     18  CZ        26.3810    5.9720   -5.0050 C.ar   70  TYR70       0.1957
     19  OH        26.6940    6.2560   -6.3150 O.3    70  TYR70      -0.2866
     20  N         22.8620    5.3210    1.2340 N.am   71  ILE71      -0.1963
     21  CA        22.2420    4.6150    2.3500 C.3    71  ILE71       0.1727
     22  C         22.4980    3.1210    2.1610 C.2    71  ILE71       0.2616
     23  O         22.2420    2.5790    1.0880 O.2    71  ILE71      -0.2715
     24  CB        20.7310    4.9100    2.4440 C.3    71  ILE71       0.0290
     25  CG1       20.5260    6.3760    2.8570 C.3    71  ILE71       0.0022
     26  CG2       20.0640    3.9600    3.4340 C.3    71  ILE71       0.0023
     27  CD1       19.0830    6.8370    2.9050 C.3    71  ILE71       0.0001
     28  N         23.0200    2.4750    3.2010 N.am   72  MET72      -0.1977
     29  CA        23.3500    1.0480    3.1610 C.3    72  MET72       0.1605
     30  C         22.2080    0.1950    3.6980 C.2    72  MET72       0.2287
     31  O         21.9350   -0.8940    3.1910 O.2    72  MET72      -0.2864
     32  CB        24.6010    0.7770    3.9990 C.3    72  MET72       0.0413
     33  CG        25.8740    1.4160    3.4610 C.3    72  MET72       0.0598
     34  SD        26.3560    0.7380    1.8640 S.3    72  MET72      -0.1393
     35  CE        25.6720    1.9340    0.7260 C.3    72  MET72       0.0692
     36  N         20.2330   -3.1780    1.8400 N.3    83  PHE83      -0.1241
     37  CA        20.0600   -3.3580    0.4020 C.3    83  PHE83       0.1605
     38  C         20.7850   -4.6060   -0.0840 C.2    83  PHE83       0.2264
     39  O         21.7880   -5.0210    0.4980 O.2    83  PHE83      -0.2867
     40  CB        20.5660   -2.1350   -0.3670 C.3    83  PHE83       0.0534
     41  CG        19.6560   -0.9430   -0.2740 C.ar   83  PHE83      -0.0203
     42  CD1       18.3380   -1.0320   -0.7060 C.ar   83  PHE83      -0.0042
     43  CD2       20.1140    0.2690    0.2240 C.ar   83  PHE83      -0.0042
     44  CE1       17.4910    0.0560   -0.6270 C.ar   83  PHE83      -0.0003
     45  CE2       19.2710    1.3700    0.2980 C.ar   83  PHE83      -0.0003
     46  CZ        17.9570    1.2620   -0.1280 C.ar   83  PHE83      -0.0000
     47  N         23.1260   -5.6240   -2.1120 N.3    85  GLU85      -0.1245
     48  CA        24.2860   -5.1640   -2.8750 C.3    85  GLU85       0.1567
     49  C         25.5380   -5.3460   -2.0190 C.2    85  GLU85       0.2260
     50  O         25.4530   -5.2970   -0.7900 O.2    85  GLU85      -0.2867
     51  CB        24.1130   -3.6970   -3.2760 C.3    85  GLU85       0.0388
     52  CG        23.9970   -2.7520   -2.0890 C.3    85  GLU85       0.1160
     53  CD        23.6290   -1.3300   -2.4670 C.2    85  GLU85       0.3649
     54  OE1       22.8350   -1.1200   -3.4050 O.co2  85  GLU85      -0.2457
     55  OE2       24.1320   -0.4030   -1.7950 O.co2  85  GLU85      -0.2457
     56  N         20.0800   -0.5090   -3.7500 N.3   109  GLY109     -0.1210
     57  CA        19.6950    0.8420   -3.3710 C.3   109  GLY109      0.1956
     58  C         19.6580    1.8420   -4.5070 C.2   109  GLY109      0.2612
     59  O         19.3550    3.0130   -4.2890 O.2   109  GLY109     -0.2717
     60  N         19.9630    1.4090   -5.7240 N.am  110  ASN110     -0.1960
     61  CA        20.0000    2.3540   -6.8310 C.3   110  ASN110      0.1819
     62  C         18.5980    2.7510   -7.3050 C.2   110  ASN110      0.2621
     63  O         17.6540    1.9570   -7.2340 O.2   110  ASN110     -0.2715
     64  CB        20.8830    1.8440   -7.9680 C.3   110  ASN110      0.1195
     65  CG        20.2620    0.7080   -8.7430 C.2   110  ASN110      0.2630
     66  OD1       19.3880    0.9180   -9.5860 O.2   110  ASN110     -0.2716
     67  ND2       20.7500   -0.5020   -8.5010 N.am  110  ASN110     -0.0877
     68  N         18.4760    3.9910   -7.7680 N.am  111  TYR111     -0.1960
     69  CA        17.1770    4.5630   -8.1180 C.3   111  TYR111      0.1771
     70  C         16.3700    3.6960   -9.0790 C.2   111  TYR111      0.2619
     71  O         15.1610    3.5430   -8.9040 O.2   111  TYR111     -0.2715
     72  CB        17.3430    5.9640   -8.7160 C.3   111  TYR111      0.0574
     73  CG        17.5360    7.0780   -7.7020 C.ar  111  TYR111     -0.0198
     74  CD1       16.7890    7.1230   -6.5270 C.ar  111  TYR111     -0.0009
     75  CD2       18.4320    8.1170   -7.9460 C.ar  111  TYR111     -0.0009
     76  CE1       16.9470    8.1510   -5.6130 C.ar  111  TYR111      0.0417
     77  CE2       18.5990    9.1510   -7.0350 C.ar  111  TYR111      0.0417
     78  CZ        17.8530    9.1620   -5.8710 C.ar  111  TYR111      0.1957
     79  OH        18.0020   10.1830   -4.9630 O.3   111  TYR111     -0.2866
     80  N         17.0280    3.1300  -10.0850 N.am  112  GLU112     -0.1977
     81  CA        16.3180    2.3270  -11.0820 C.3   112  GLU112      0.1602
     82  C         15.6340    1.1110  -10.4510 C.2   112  GLU112      0.2287
     83  O         14.4630    0.8490  -10.7220 O.2   112  GLU112     -0.2864
     84  CB        17.2560    1.8880  -12.2130 C.3   112  GLU112      0.0415
     85  CG        17.7850    3.0240  -13.0830 C.3   112  GLU112      0.1163
     86  CD        16.7530    3.5890  -14.0470 C.2   112  GLU112      0.3649
     87  OE1       15.6970    4.0740  -13.5850 O.co2 112  GLU112     -0.2457
     88  OE2       17.0100    3.5760  -15.2720 O.co2 112  GLU112     -0.2457
     89  N         15.9680    8.7920    0.7650 N.3   155  ILE155     -0.1245
     90  CA        17.2340    9.1130    0.1060 C.3   155  ILE155      0.1561
     91  C         17.2570   10.5660   -0.3580 C.2   155  ILE155      0.2260
     92  O         18.2530   11.2670   -0.1750 O.2   155  ILE155     -0.2867
     93  CB        17.4940    8.1740   -1.0940 C.3   155  ILE155      0.0252
     94  CG1       17.8410    6.7680   -0.5870 C.3   155  ILE155      0.0019
     95  CG2       18.6200    8.7080   -1.9750 C.3   155  ILE155      0.0019
     96  CD1       17.6710    5.6820   -1.6270 C.3   155  ILE155      0.0001
     97  N         20.1650   12.3660    1.9030 N.3   159  ALA159     -0.1231
     98  CA        21.3890   12.3830    1.0900 C.3   159  ALA159      0.1694
     99  C         21.3970   13.4520   -0.0070 C.2   159  ALA159      0.2591
    100  O         22.3550   14.2230   -0.1190 O.2   159  ALA159     -0.2718
    101  CB        21.6360   11.0090    0.4840 C.3   159  ALA159      0.0304
    102  N         20.3370   13.5100   -0.8090 N.am  160  GLU160     -0.1979
    103  CA        20.3130   14.4240   -1.9560 C.3   160  GLU160      0.1602
    104  C         20.2510   15.8800   -1.5000 C.2   160  GLU160      0.2287
    105  O         20.8700   16.7430   -2.1200 O.2   160  GLU160     -0.2864
    106  CB        19.1610   14.1040   -2.9180 C.3   160  GLU160      0.0415
    107  CG        19.1680   12.6870   -3.4840 C.3   160  GLU160      0.1163
    108  CD        20.2690   12.4250   -4.5020 C.2   160  GLU160      0.3649
    109  OE1       21.2460   13.2050   -4.5800 O.co2 160  GLU160     -0.2457
    110  OE2       20.1550   11.4240   -5.2410 O.co2 160  GLU160     -0.2457
    111  N         23.6800   16.8590   -0.4990 N.3   163  ARG163     -0.1245
    112  CA        24.5290   17.1020   -1.6700 C.3   163  ARG163      0.1563
    113  C         24.2770   18.4390   -2.3610 C.2   163  ARG163      0.2260
    114  O         25.2100   19.0380   -2.8980 O.2   163  ARG163     -0.2867
    115  CB        24.3530   15.9870   -2.6960 C.3   163  ARG163      0.0307
    116  CG        24.8900   14.6420   -2.2520 C.3   163  ARG163      0.0489
    117  CD        24.2970   13.5410   -3.1090 C.3   163  ARG163      0.2205
    118  NE        24.7670   12.2110   -2.7330 N.pl3 163  ARG163     -0.0865
    119  CZ        24.1850   11.0720   -3.1120 C.cat 163  ARG163      0.5346
    120  NH1       23.1020   11.0910   -3.8800 N.pl3 163  ARG163      0.1354
    121  NH2       24.6800    9.9050   -2.7210 N.pl3 163  ARG163      0.1354
    122  N         20.1320   15.1840   -8.9440 N.3   189  GLU189     -0.1231
    123  CA        20.3380   13.8420   -8.3940 C.3   189  GLU189      0.1699
    124  C         21.0800   12.9630   -9.3910 C.2   189  GLU189      0.2592
    125  O         22.0600   12.3030   -9.0510 O.2   189  GLU189     -0.2718
    126  CB        18.9970   13.1850   -8.0610 C.3   189  GLU189      0.0402
    127  CG        18.2380   13.8550   -6.9290 C.3   189  GLU189      0.1161
    128  CD        16.8300   13.3180   -6.7660 C.2   189  GLU189      0.3649
    129  OE1       16.4020   12.4740   -7.5850 O.co2 189  GLU189     -0.2457
    130  OE2       16.1480   13.7510   -5.8130 O.co2 189  GLU189     -0.2457
    131  N         20.6070   12.9740  -10.6300 N.am  190  ASN190     -0.1974
    132  CA        21.1960   12.1630  -11.6910 C.3   190  ASN190      0.1688
    133  C         22.5900   12.6270  -12.1270 C.2   190  ASN190      0.2292
    134  O         23.3290   11.8580  -12.7450 O.2   190  ASN190     -0.2864
    135  CB        20.2730   12.1490  -12.9130 C.3   190  ASN190      0.1181
    136  CG        18.9930   11.3650  -12.6770 C.2   190  ASN190      0.2629
    137  OD1       18.9130   10.5320  -11.7710 O.2   190  ASN190     -0.2716
    138  ND2       17.9790   11.6330  -13.4970 N.am  190  ASN190     -0.0877
    139  N         25.0060   14.1480  -10.0090 N.3   192  TRP192     -0.1241
    140  CA        25.9290   14.3700   -8.8990 C.3   192  TRP192      0.1605
    141  C         27.3100   13.7760   -9.1660 C.2   192  TRP192      0.2264
    142  O         28.3250   14.4460   -8.9590 O.2   192  TRP192     -0.2867
    143  CB        25.3710   13.8140   -7.5930 C.3   192  TRP192      0.0550
    144  CG        26.2560   14.1070   -6.4130 C.ar  192  TRP192      0.0003
    145  CD1       26.6480   15.3370   -5.9710 C.ar  192  TRP192      0.0946
    146  CD2       26.8590   13.1520   -5.5270 C.ar  192  TRP192      0.0152
    147  NE1       27.4590   15.2080   -4.8660 N.ar  192  TRP192     -0.2442
    148  CE2       27.6010   13.8790   -4.5710 C.ar  192  TRP192      0.0810
    149  CE3       26.8420   11.7540   -5.4470 C.ar  192  TRP192      0.0012
    150  CZ2       28.3200   13.2550   -3.5470 C.ar  192  TRP192      0.0191
    151  CZ3       27.5540   11.1360   -4.4310 C.ar  192  TRP192      0.0001
    152  CH2       28.2790   11.8860   -3.4910 C.ar  192  TRP192      0.0015
@<TRIPOS>BOND
     1    88    86   ar
     2    86    87   ar
     3    86    85    1
     4   138   136   am
     5    85    84    1
     6   135   136    1
     7   135   132    1
     8   134   133    2
     9   136   137    2
    10    84    81    1
    11   133   132    1
    12   132   131    1
    13    81    82    1
    14    81    80    1
    15    83    82    2
    16   131   124   am
    17    80    70   am
    18   139   140    1
    19    66    65    2
    20   124   125    2
    21   124   123    1
    22   141   142    2
    23   141   140    1
    24    70    71    2
    25    70    69    1
    26   122   123    1
    27   140   143    1
    28    65    67   am
    29    65    64    1
    30    72    69    1
    31    72    73    1
    32   123   126    1
    33    69    68    1
    34   126   127    1
    35    64    61    1
    36    75    73   ar
    37    75    77   ar
    38    68    62   am
    39    73    74   ar
    40   143   144    1
    41   129   128   ar
    42    62    63    2
    43    62    61    1
    44    77    78   ar
    45   127   128    1
    46    61    60    1
    47   128   130   ar
    48    74    76   ar
    49   144   145   ar
    50   144   146   ar
    51    19    18    1
    52   145   147   ar
    53    78    76   ar
    54    78    79    1
    55    60    58   am
    56   146   149   ar
    57   146   148   ar
    58   149   151   ar
    59   110   108   ar
    60    18    16   ar
    61    18    17   ar
    62   147   148   ar
    63   109   108   ar
    64   148   150   ar
    65    16    14   ar
    66    58    59    2
    67    58    57    1
    68   108   107    1
    69   151   152   ar
    70    17    15   ar
    71   120   119    1
    72    56    57    1
    73   150   152   ar
    74   107   106    1
    75    54    53   ar
    76    51    48    1
    77    51    52    1
    78    14    13   ar
    79   119   118    2
    80   119   121    1
    81   117   118    1
    82   117   116    1
    83   106   103    1
    84   114   113    2
    85    48    47    1
    86    48    49    1
    87    15    13   ar
    88   115   116    1
    89   115   112    1
    90    53    52    1
    91    53    55   ar
    92   113   112    1
    93    13    12    1
    94   105   104    2
    95    49    50    2
    96    95    93    1
    97   103   104    1
    98   103   102    1
    99   112   111    1
   100    96    94    1
   101    93    94    1
   102    93    90    1
   103    12     9    1
   104   102    99   am
   105    42    44   ar
   106    42    41   ar
   107    44    46   ar
   108    40    41    1
   109    40    37    1
   110    91    92    2
   111    91    90    1
   112    41    43   ar
   113    46    45   ar
   114   100    99    2
   115     9     8    1
   116     9    10    1
   117    38    37    1
   118    38    39    2
   119    99    98    1
   120    90    89    1
   121    43    45   ar
   122     8     3   am
   123    37    36    1
   124     1     2    1
   125     7     5    1
   126   101    98    1
   127     4     3    2
   128     3     2    1
   129     5     2    1
   130     5     6    1
   131    35    34    1
   132    23    22    2
   133    98    97    1
   134    10    20   am
   135    10    11    2
   136    20    21    1
   137    34    33    1
   138    22    21    1
   139    22    28   am
   140    21    24    1
   141    24    25    1
   142    24    26    1
   143    25    27    1
   144    29    28    1
   145    29    30    1
   146    29    32    1
   147    31    30    2
   148    33    32    1
