@<TRIPOS>MOLECULE
tmp/4zu3B00.pdb
 116 112 0 0 0
SMALL
GASTEIGER

@<TRIPOS>ATOM
      1  N        -45.2990   20.0390  -23.0650 N.3    17  TYR17      -0.1241
      2  CA       -44.1190   20.5050  -22.3390 C.3    17  TYR17       0.1605
      3  C        -43.2990   19.3420  -21.7880 C.2    17  TYR17       0.2264
      4  O        -42.7200   18.5750  -22.5660 O.2    17  TYR17      -0.2867
      5  CB       -44.5600   21.4830  -21.2340 C.3    17  TYR17       0.0534
      6  CG       -43.4720   22.3930  -20.6790 C.ar   17  TYR17      -0.0201
      7  CD1      -42.3180   22.6740  -21.4030 C.ar   17  TYR17      -0.0009
      8  CD2      -43.6170   22.9860  -19.4300 C.ar   17  TYR17      -0.0009
      9  CE1      -41.3410   23.5080  -20.8940 C.ar   17  TYR17       0.0417
     10  CE2      -42.6400   23.8230  -18.9150 C.ar   17  TYR17       0.0417
     11  CZ       -41.5090   24.0790  -19.6500 C.ar   17  TYR17       0.1957
     12  OH       -40.5390   24.9080  -19.1360 O.3    17  TYR17      -0.2866
     13  N        -41.1690   33.9930  -29.4920 N.3    69  PHE69      -0.1241
     14  CA       -39.8010   34.4560  -29.6600 C.3    69  PHE69       0.1605
     15  C        -39.7180   35.4870  -30.7800 C.2    69  PHE69       0.2264
     16  O        -40.2730   35.2940  -31.8650 O.2    69  PHE69      -0.2867
     17  CB       -38.8930   33.2590  -29.9520 C.3    69  PHE69       0.0534
     18  CG       -38.6570   32.3680  -28.7580 C.ar   69  PHE69      -0.0203
     19  CD1      -38.1970   32.8940  -27.5610 C.ar   69  PHE69      -0.0042
     20  CD2      -38.9000   31.0070  -28.8340 C.ar   69  PHE69      -0.0042
     21  CE1      -37.9790   32.0760  -26.4630 C.ar   69  PHE69      -0.0003
     22  CE2      -38.6870   30.1840  -27.7400 C.ar   69  PHE69      -0.0003
     23  CZ       -38.2260   30.7180  -26.5550 C.ar   69  PHE69      -0.0000
     24  N        -41.3550   25.4900  -14.5400 N.3   115  GLY115     -0.1210
     25  CA       -41.3800   26.8870  -14.9240 C.3   115  GLY115      0.1956
     26  C        -40.3660   27.2570  -15.9900 C.2   115  GLY115      0.2612
     27  O        -40.3490   26.6700  -17.0770 O.2   115  GLY115     -0.2717
     28  N        -39.5090   28.2290  -15.6790 N.am  116  SER116     -0.1952
     29  CA       -38.6000   28.8040  -16.6570 C.3   116  SER116      0.1924
     30  C        -37.5360   29.6370  -15.9610 C.2   116  SER116      0.2314
     31  O        -37.8330   30.3420  -14.9960 O.2   116  SER116     -0.2863
     32  CB       -39.3580   29.6960  -17.6370 C.3   116  SER116      0.2116
     33  OG       -38.4380   30.4010  -18.4570 O.3   116  SER116     -0.2180
     34  N        -36.4530   32.0660  -17.5760 N.3   118  ALA118     -0.1245
     35  CA       -36.8960   33.3890  -17.9830 C.3   118  ALA118      0.1562
     36  C        -37.6190   34.1120  -16.8550 C.2   118  ALA118      0.2260
     37  O        -37.8170   35.3290  -16.9460 O.2   118  ALA118     -0.2867
     38  CB       -37.8050   33.2860  -19.2130 C.3   118  ALA118      0.0290
     39  N        -34.5370   37.0050  -20.6170 N.3   123  GLN123     -0.1245
     40  CA       -34.4800   36.1990  -21.8320 C.3   123  GLN123      0.1566
     41  C        -34.9980   37.0460  -22.9840 C.2   123  GLN123      0.2260
     42  O        -36.1300   37.5440  -22.9420 O.2   123  GLN123     -0.2867
     43  CB       -35.2970   34.9070  -21.7060 C.3   123  GLN123      0.0367
     44  CG       -35.6060   34.2110  -23.0450 C.3   123  GLN123      0.0905
     45  CD       -34.3570   33.8560  -23.8550 C.2   123  GLN123      0.2608
     46  OE1      -33.3900   33.3110  -23.3240 O.2   123  GLN123     -0.2717
     47  NE2      -34.3820   34.1620  -25.1520 N.am  123  GLN123     -0.0878
     48  N        -44.5210   36.2780  -22.3140 N.3   129  TYR129     -0.1241
     49  CA       -44.2060   34.9740  -21.7500 C.3   129  TYR129      0.1605
     50  C        -43.3600   35.0940  -20.4870 C.2   129  TYR129      0.2264
     51  O        -43.6470   34.4490  -19.4710 O.2   129  TYR129     -0.2867
     52  CB       -43.4880   34.1430  -22.8070 C.3   129  TYR129      0.0534
     53  CG       -43.0020   32.8360  -22.2870 C.ar  129  TYR129     -0.0201
     54  CD1      -43.8970   31.8180  -22.0090 C.ar  129  TYR129     -0.0009
     55  CD2      -41.6480   32.6110  -22.0630 C.ar  129  TYR129     -0.0009
     56  CE1      -43.4740   30.6270  -21.5300 C.ar  129  TYR129      0.0417
     57  CE2      -41.2170   31.4060  -21.5770 C.ar  129  TYR129      0.0417
     58  CZ       -42.1430   30.4170  -21.3190 C.ar  129  TYR129      0.1957
     59  OH       -41.8000   29.1860  -20.8240 O.3   129  TYR129     -0.2866
     60  N        -36.3380   26.1820  -15.6280 N.3   159  GLN159     -0.1231
     61  CA       -35.5920   25.4650  -16.6460 C.3   159  GLN159      0.1698
     62  C        -35.3660   26.3280  -17.8790 C.2   159  GLN159      0.2592
     63  O        -36.1500   27.2240  -18.2020 O.2   159  GLN159     -0.2718
     64  CB       -36.3130   24.1750  -17.0500 C.3   159  GLN159      0.0381
     65  CG       -37.7190   24.3830  -17.5830 C.3   159  GLN159      0.0905
     66  CD       -38.3920   23.0820  -17.9380 C.2   159  GLN159      0.2608
     67  OE1      -39.0090   22.4340  -17.0920 O.2   159  GLN159     -0.2717
     68  NE2      -38.2730   22.6840  -19.1970 N.am  159  GLN159     -0.0878
     69  N        -34.2620   26.0490  -18.5570 N.am  160  HIS160     -0.1976
     70  CA       -33.9630   26.6540  -19.8390 C.3   160  HIS160      0.1656
     71  C        -33.0980   25.6600  -20.5920 C.2   160  HIS160      0.2291
     72  O        -32.5020   24.7570  -19.9960 O.2   160  HIS160     -0.2864
     73  CB       -33.2640   28.0070  -19.6560 C.3   160  HIS160      0.0771
     74  CG       -33.4220   28.9390  -20.8160 C.ar  160  HIS160      0.0820
     75  ND1      -33.6400   28.5010  -22.1020 N.ar  160  HIS160     -0.2267
     76  CD2      -33.3930   30.2910  -20.8810 C.ar  160  HIS160      0.1154
     77  CE1      -33.7420   29.5400  -22.9100 C.ar  160  HIS160      0.1986
     78  NE2      -33.5970   30.6390  -22.1940 N.ar  160  HIS160     -0.2212
     79  N        -33.7080   23.1550  -22.4980 N.3   162  THR162     -0.1218
     80  CA       -34.1570   21.8160  -22.1460 C.3   162  THR162      0.1862
     81  C        -35.0700   21.2860  -23.2420 C.2   162  THR162      0.2287
     82  O        -35.9140   22.0210  -23.7660 O.2   162  THR162     -0.2866
     83  CB       -34.8880   21.8370  -20.7860 C.3   162  THR162      0.1770
     84  OG1      -33.9490   22.1150  -19.7390 O.3   162  THR162     -0.2211
     85  CG2      -35.6020   20.5110  -20.4950 C.3   162  THR162      0.0375
     86  N        -37.8320   20.1600  -25.4780 N.3   164  ASN164     -0.1240
     87  CA       -39.2860   20.2200  -25.5360 C.3   164  ASN164      0.1653
     88  C        -39.6800   20.8490  -26.8630 C.2   164  ASN164      0.2266
     89  O        -38.8720   21.5030  -27.5300 O.2   164  ASN164     -0.2867
     90  CB       -39.9030   21.0010  -24.3670 C.3   164  ASN164      0.1155
     91  CG       -39.2730   22.3730  -24.1690 C.2   164  ASN164      0.2627
     92  OD1      -39.3660   23.2460  -25.0290 O.2   164  ASN164     -0.2716
     93  ND2      -38.6520   22.5750  -23.0130 N.am  164  ASN164     -0.0877
     94  N        -40.4360   25.1240  -26.9730 N.3   167  TYR167     -0.1227
     95  CA       -39.3510   26.0970  -26.9510 C.3   167  TYR167      0.1736
     96  C        -38.0680   25.6320  -27.6320 C.2   167  TYR167      0.2595
     97  O        -37.2200   26.4810  -27.9340 O.2   167  TYR167     -0.2718
     98  CB       -39.0380   26.5130  -25.5000 C.3   167  TYR167      0.0548
     99  CG       -40.3000   26.8700  -24.7370 C.ar  167  TYR167     -0.0200
    100  CD1      -41.0490   27.9890  -25.0830 C.ar  167  TYR167     -0.0009
    101  CD2      -40.7610   26.0680  -23.7020 C.ar  167  TYR167     -0.0009
    102  CE1      -42.2210   28.3090  -24.4090 C.ar  167  TYR167      0.0417
    103  CE2      -41.9300   26.3800  -23.0180 C.ar  167  TYR167      0.0417
    104  CZ       -42.6560   27.5020  -23.3800 C.ar  167  TYR167      0.1957
    105  OH       -43.8190   27.8220  -22.7150 O.3   167  TYR167     -0.2866
    106  N        -37.9000   24.3400  -27.9130 N.am  168  PHE168     -0.1976
    107  CA       -36.7120   23.8570  -28.6220 C.3   168  PHE168      0.1639
    108  C        -37.0980   22.8390  -29.6910 C.2   168  PHE168      0.2290
    109  O        -36.5750   21.7330  -29.7710 O.2   168  PHE168     -0.2864
    110  CB       -35.6930   23.3320  -27.6180 C.3   168  PHE168      0.0560
    111  CG       -35.2090   24.3950  -26.6730 C.ar  168  PHE168     -0.0200
    112  CD1      -34.1580   25.2250  -27.0240 C.ar  168  PHE168     -0.0042
    113  CD2      -35.8490   24.6110  -25.4660 C.ar  168  PHE168     -0.0042
    114  CE1      -33.7320   26.2270  -26.1700 C.ar  168  PHE168     -0.0003
    115  CE2      -35.4290   25.6130  -24.6060 C.ar  168  PHE168     -0.0003
    116  CZ       -34.3770   26.4220  -24.9560 C.ar  168  PHE168     -0.0000
@<TRIPOS>BOND
     1    16    15    2
     2    15    14    1
     3    17    14    1
     4    17    18    1
     5   109   108    2
     6   108   107    1
     7    14    13    1
     8    20    18   ar
     9    20    22   ar
    10    18    19   ar
    11   107   106    1
    12   107   110    1
    13    97    96    2
    14   106    96   am
    15    22    23   ar
    16    96    95    1
    17   110   111    1
    18    19    21   ar
    19    89    88    2
    20   112   111   ar
    21   112   114   ar
    22    94    95    1
    23    95    98    1
    24    88    87    1
    25   111   113   ar
    26    23    21   ar
    27   114   116   ar
    28    87    86    1
    29    87    90    1
    30    98    99    1
    31   113   115   ar
    32    47    45   am
    33   100    99   ar
    34   100   102   ar
    35    92    91    2
    36   116   115   ar
    37    99   101   ar
    38   102   104   ar
    39    90    91    1
    40    91    93   am
    41    45    46    2
    42    45    44    1
    43    82    81    2
    44   101   103   ar
    45   104   103   ar
    46   104   105    1
    47    81    80    1
    48     1     2    1
    49    44    43    1
    50    41    42    2
    51    41    40    1
    52    77    78   ar
    53    77    75   ar
    54    52    53    1
    55    52    49    1
    56     4     3    2
    57    79    80    1
    58     2     3    1
    59     2     5    1
    60    48    49    1
    61    53    55   ar
    62    53    54   ar
    63    78    76   ar
    64    80    83    1
    65    75    74   ar
    66    55    57   ar
    67    54    56   ar
    68    40    43    1
    69    40    39    1
    70    49    50    1
    71    57    58   ar
    72    56    58   ar
    73     7     9   ar
    74     7     6   ar
    75    58    59    1
    76     5     6    1
    77     9    11   ar
    78    76    74   ar
    79    74    73    1
    80    83    85    1
    81    83    84    1
    82     6     8   ar
    83    71    72    2
    84    71    70    1
    85    50    51    2
    86    70    73    1
    87    70    69    1
    88    11    12    1
    89    11    10   ar
    90     8    10   ar
    91    38    35    1
    92    68    66   am
    93    69    62   am
    94    33    32    1
    95    63    62    2
    96    35    34    1
    97    35    36    1
    98    66    65    1
    99    66    67    2
   100    62    61    1
   101    32    29    1
   102    65    64    1
   103    27    26    2
   104    64    61    1
   105    37    36    2
   106    29    30    1
   107    29    28    1
   108    61    60    1
   109    26    28   am
   110    26    25    1
   111    30    31    2
   112    25    24    1
