@<TRIPOS>MOLECULE
tmp/4zu4B01.pdb
 164 153 0 0 0
SMALL
GASTEIGER

@<TRIPOS>ATOM
      1  N         -4.6720  -36.7670  -22.9540 N.3    45  ARG45      -0.1245
      2  CA        -3.9640  -35.8860  -22.0500 C.3    45  ARG45       0.1563
      3  C         -2.8130  -35.2420  -22.7840 C.2    45  ARG45       0.2260
      4  O         -2.3060  -35.8190  -23.7340 O.2    45  ARG45      -0.2867
      5  CB        -3.4500  -36.6870  -20.8330 C.3    45  ARG45       0.0307
      6  CG        -2.4040  -36.0220  -19.9590 C.3    45  ARG45       0.0489
      7  CD        -2.1290  -36.8220  -18.6580 C.3    45  ARG45       0.2205
      8  NE        -1.7780  -38.2300  -18.9240 N.pl3  45  ARG45      -0.0865
      9  CZ        -0.5860  -38.7980  -18.6820 C.cat  45  ARG45       0.5346
     10  NH1       -0.3700  -40.0870  -18.9820 N.pl3  45  ARG45       0.1354
     11  NH2        0.3950  -38.1010  -18.1210 N.pl3  45  ARG45       0.1354
     12  N          0.7230  -32.7060  -21.5920 N.3    47  PHE47      -0.1241
     13  CA         1.4440  -32.0440  -20.5290 C.3    47  PHE47       0.1605
     14  C          2.6740  -31.3580  -21.1180 C.2    47  PHE47       0.2264
     15  O          3.0900  -31.6690  -22.2280 O.2    47  PHE47      -0.2867
     16  CB         1.7300  -32.9600  -19.3230 C.3    47  PHE47       0.0534
     17  CG         2.6640  -34.1240  -19.5850 C.ar   47  PHE47      -0.0203
     18  CD1        4.0310  -33.9620  -19.5100 C.ar   47  PHE47      -0.0042
     19  CD2        2.1500  -35.3910  -19.8420 C.ar   47  PHE47      -0.0042
     20  CE1        4.8860  -35.0420  -19.7360 C.ar   47  PHE47      -0.0003
     21  CE2        2.9800  -36.4800  -20.0760 C.ar   47  PHE47      -0.0003
     22  CZ         4.3510  -36.2900  -20.0300 C.ar   47  PHE47      -0.0000
     23  N          6.5950  -29.7920  -20.0150 N.3    49  VAL49      -0.1245
     24  CA         7.6650  -29.7990  -19.0170 C.3    49  VAL49       0.1561
     25  C          8.5680  -28.6210  -19.3890 C.2    49  VAL49       0.2260
     26  O          8.9570  -28.4560  -20.5420 O.2    49  VAL49      -0.2867
     27  CB         8.5010  -31.0900  -19.1110 C.3    49  VAL49       0.0252
     28  CG1        9.6220  -31.0980  -18.0670 C.3    49  VAL49       0.0019
     29  CG2        7.6510  -32.3460  -19.0600 C.3    49  VAL49       0.0019
     30  N         15.5130  -36.7000  -16.3410 N.3    58  ARG58      -0.1231
     31  CA        14.1480  -37.0660  -16.0270 C.3    58  ARG58       0.1694
     32  C         13.8240  -38.3840  -16.7320 C.2    58  ARG58       0.2592
     33  O         14.4840  -38.7590  -17.7010 O.2    58  ARG58      -0.2718
     34  CB        13.2170  -35.9090  -16.4730 C.3    58  ARG58       0.0321
     35  CG        13.5250  -34.5810  -15.7590 C.3    58  ARG58       0.0489
     36  CD        12.6010  -33.4410  -16.1710 C.3    58  ARG58       0.2205
     37  NE        11.2020  -33.7790  -16.0110 N.pl3  58  ARG58      -0.0865
     38  CZ        10.4450  -33.3450  -15.0120 C.cat  58  ARG58       0.5346
     39  NH1        9.1610  -33.7160  -14.9460 N.pl3  58  ARG58       0.1354
     40  NH2       10.9620  -32.5230  -14.1030 N.pl3  58  ARG58       0.1354
     41  N         12.8250  -39.0840  -16.2140 N.am   59  GLY59      -0.1957
     42  CA        12.3970  -40.3870  -16.7000 C.3    59  GLY59       0.1869
     43  C         13.1210  -41.5260  -16.0320 C.2    59  GLY59       0.2309
     44  O         13.1210  -41.6630  -14.8060 O.2    59  GLY59      -0.2863
     45  N         12.3770  -44.8030  -16.7850 N.3    61  HIS61      -0.1241
     46  CA        11.3500  -45.8140  -16.5440 C.3    61  HIS61       0.1621
     47  C         10.5530  -46.0320  -17.8330 C.2    61  HIS61       0.2264
     48  O         10.7720  -45.3620  -18.8530 O.2    61  HIS61      -0.2867
     49  CB        10.4100  -45.3300  -15.4390 C.3    61  HIS61       0.0745
     50  CG         9.8280  -43.9670  -15.6700 C.ar   61  HIS61       0.0817
     51  ND1        9.9450  -42.9440  -14.7500 N.ar   61  HIS61      -0.2268
     52  CD2        9.1720  -43.4440  -16.7290 C.ar   61  HIS61       0.1154
     53  CE1        9.3960  -41.8480  -15.2400 C.ar   61  HIS61       0.1986
     54  NE2        8.9120  -42.1240  -16.4330 N.ar   61  HIS61      -0.2212
     55  N          6.4700  -47.1860  -19.5510 N.3    63  HIS63      -0.1241
     56  CA         5.0570  -47.3390  -19.4020 C.3    63  HIS63       0.1621
     57  C          4.5350  -48.6850  -19.9380 C.2    63  HIS63       0.2264
     58  O          4.9360  -49.1630  -20.9800 O.2    63  HIS63      -0.2867
     59  CB         4.3490  -46.2070  -20.1540 C.3    63  HIS63       0.0745
     60  CG         4.4350  -44.8900  -19.4650 C.ar   63  HIS63       0.0817
     61  ND1        3.5440  -44.5120  -18.4890 N.ar   63  HIS63      -0.2268
     62  CD2        5.3400  -43.8920  -19.5560 C.ar   63  HIS63       0.1154
     63  CE1        3.8700  -43.3150  -18.0310 C.ar   63  HIS63       0.1986
     64  NE2        4.9560  -42.9180  -18.6670 N.ar   63  HIS63      -0.2212
     65  N          3.1650  -42.2720  -25.7140 N.3    68  GLN68      -0.1245
     66  CA         3.5670  -40.8750  -25.6930 C.3    68  GLN68       0.1566
     67  C          4.1350  -40.3730  -27.0020 C.2    68  GLN68       0.2260
     68  O          4.7380  -41.1080  -27.8210 O.2    68  GLN68      -0.2867
     69  CB         4.5910  -40.5910  -24.6080 C.3    68  GLN68       0.0367
     70  CG         4.1470  -40.9530  -23.2130 C.3    68  GLN68       0.0905
     71  CD         5.2200  -40.5980  -22.1990 C.2    68  GLN68       0.2608
     72  OE1        6.4240  -40.7360  -22.4520 O.2    68  GLN68      -0.2717
     73  NE2        4.7880  -40.0990  -21.0650 N.am   68  GLN68      -0.0878
     74  N          6.3430  -36.8270  -28.2120 N.3    70  LEU70      -0.1245
     75  CA         7.1400  -35.7300  -27.6760 C.3    70  LEU70       0.1561
     76  C          7.5520  -34.7840  -28.7920 C.2    70  LEU70       0.2260
     77  O          8.0110  -35.2220  -29.8410 O.2    70  LEU70      -0.2867
     78  CB         8.3990  -36.2930  -27.0010 C.3    70  LEU70       0.0270
     79  CG         8.3820  -36.8210  -25.5520 C.3    70  LEU70       0.0019
     80  CD1        7.4360  -37.9870  -25.3990 C.3    70  LEU70       0.0001
     81  CD2        9.8230  -37.2730  -25.2220 C.3    70  LEU70       0.0001
     82  N          6.9630  -42.6230  -28.6330 N.3   101  LEU101     -0.1245
     83  CA         7.3680  -43.6640  -27.6620 C.3   101  LEU101      0.1561
     84  C          6.2190  -44.6570  -27.4340 C.2   101  LEU101      0.2260
     85  O          5.3150  -44.4050  -26.6380 O.2   101  LEU101     -0.2867
     86  CB         7.7960  -43.0180  -26.3500 C.3   101  LEU101      0.0270
     87  CG         9.2080  -42.4490  -26.2240 C.3   101  LEU101      0.0019
     88  CD1        9.6220  -41.6880  -27.4480 C.3   101  LEU101      0.0001
     89  CD2        9.3540  -41.5760  -24.9760 C.3   101  LEU101      0.0001
     90  N         12.4920  -44.8000  -21.2290 N.3   107  GLY107     -0.1225
     91  CA        12.7720  -43.4710  -21.7170 C.3   107  GLY107      0.1811
     92  C         13.4410  -42.5510  -20.6960 C.2   107  GLY107      0.2280
     93  O         13.1420  -42.5630  -19.4960 O.2   107  GLY107     -0.2866
     94  N         14.5540  -38.1740  -20.6240 N.3   109  GLN109     -0.1245
     95  CA        14.6700  -36.8390  -21.1770 C.3   109  GLN109      0.1566
     96  C         15.6790  -36.0430  -20.3460 C.2   109  GLN109      0.2260
     97  O         15.6080  -35.9780  -19.1390 O.2   109  GLN109     -0.2867
     98  CB        13.3490  -36.1070  -21.1470 C.3   109  GLN109      0.0367
     99  CG        12.2310  -36.9740  -21.7220 C.3   109  GLN109      0.0905
    100  CD        11.6410  -37.9970  -20.7560 C.2   109  GLN109      0.2608
    101  OE1       11.4750  -37.7310  -19.5660 O.2   109  GLN109     -0.2717
    102  NE2       11.3080  -39.1880  -21.2800 N.am  109  GLN109     -0.0878
    103  N         18.1420  -30.5990  -21.0520 N.3   112  TYR112     -0.1241
    104  CA        17.2170  -29.5080  -21.3630 C.3   112  TYR112      0.1605
    105  C         17.9570  -28.1810  -21.4240 C.2   112  TYR112      0.2264
    106  O         18.7210  -27.8450  -20.5310 O.2   112  TYR112     -0.2867
    107  CB        16.1330  -29.3960  -20.3100 C.3   112  TYR112      0.0534
    108  CG        14.9730  -30.3590  -20.3780 C.ar  112  TYR112     -0.0201
    109  CD1       15.0810  -31.6750  -19.9240 C.ar  112  TYR112     -0.0009
    110  CD2       13.7420  -29.9360  -20.8250 C.ar  112  TYR112     -0.0009
    111  CE1       13.9890  -32.5390  -19.9700 C.ar  112  TYR112      0.0417
    112  CE2       12.6470  -30.7630  -20.8430 C.ar  112  TYR112      0.0417
    113  CZ        12.7540  -32.0700  -20.4210 C.ar  112  TYR112      0.1957
    114  OH        11.6230  -32.8820  -20.4120 O.3   112  TYR112     -0.2866
    115  N          8.9870  -28.8270  -23.3590 N.3   118  LEU118     -0.1245
    116  CA         8.6880  -30.1080  -23.9910 C.3   118  LEU118      0.1561
    117  C          7.2040  -30.3740  -23.8890 C.2   118  LEU118      0.2260
    118  O          6.5970  -30.3420  -22.8260 O.2   118  LEU118     -0.2867
    119  CB         9.4800  -31.2800  -23.3640 C.3   118  LEU118      0.0270
    120  CG         9.1790  -32.6970  -23.8590 C.3   118  LEU118      0.0019
    121  CD1        9.8040  -32.9550  -25.2200 C.3   118  LEU118      0.0001
    122  CD2        9.6800  -33.7580  -22.8670 C.3   118  LEU118      0.0001
    123  N          4.1580  -32.9960  -24.5110 N.3   120  VAL120     -0.1245
    124  CA         3.8670  -34.4230  -24.5760 C.3   120  VAL120      0.1561
    125  C          2.3870  -34.6930  -24.7390 C.2   120  VAL120      0.2260
    126  O          1.5670  -34.2380  -23.9320 O.2   120  VAL120     -0.2867
    127  CB         4.3290  -35.1370  -23.2950 C.3   120  VAL120      0.0252
    128  CG1        4.1050  -36.6350  -23.4270 C.3   120  VAL120      0.0019
    129  CG2        5.8040  -34.8400  -23.1110 C.3   120  VAL120      0.0019
    130  N         -3.3880  -39.7800  -16.6630 N.3   126  TYR126     -0.1241
    131  CA        -2.3350  -40.0470  -15.6990 C.3   126  TYR126      0.1605
    132  C         -2.7000  -41.2100  -14.8180 C.2   126  TYR126      0.2264
    133  O         -3.7770  -41.2230  -14.2210 O.2   126  TYR126     -0.2867
    134  CB        -2.0220  -38.8170  -14.8220 C.3   126  TYR126      0.0534
    135  CG        -1.0530  -39.1360  -13.6970 C.ar  126  TYR126     -0.0201
    136  CD1        0.3070  -39.3140  -13.9530 C.ar  126  TYR126     -0.0009
    137  CD2       -1.5020  -39.3160  -12.3880 C.ar  126  TYR126     -0.0009
    138  CE1        1.1850  -39.6510  -12.9400 C.ar  126  TYR126      0.0417
    139  CE2       -0.6240  -39.6440  -11.3630 C.ar  126  TYR126      0.0417
    140  CZ         0.7140  -39.8120  -11.6480 C.ar  126  TYR126      0.1957
    141  OH         1.5820  -40.1480  -10.6460 O.3   126  TYR126     -0.2866
    142  N          3.5190  -47.4740  -14.4420 N.3   131  TYR131     -0.1241
    143  CA         4.9850  -47.3860  -14.4990 C.3   131  TYR131      0.1605
    144  C          5.7070  -48.7040  -14.2750 C.2   131  TYR131      0.2264
    145  O          5.3340  -49.4990  -13.4150 O.2   131  TYR131     -0.2867
    146  CB         5.4910  -46.3490  -13.5110 C.3   131  TYR131      0.0534
    147  CG         5.1290  -44.9230  -13.8410 C.ar  131  TYR131     -0.0201
    148  CD1        3.9200  -44.3750  -13.4440 C.ar  131  TYR131     -0.0009
    149  CD2        6.0020  -44.1070  -14.5420 C.ar  131  TYR131     -0.0009
    150  CE1        3.5860  -43.0570  -13.7570 C.ar  131  TYR131      0.0417
    151  CE2        5.6940  -42.7890  -14.8310 C.ar  131  TYR131      0.0417
    152  CZ         4.4800  -42.2620  -14.4480 C.ar  131  TYR131      0.1957
    153  OH         4.2050  -40.9450  -14.7700 O.3   131  TYR131     -0.2866
    154  N          9.3440  -49.6590  -13.1200 N.3   133  ARG133     -0.1245
    155  CA        10.4650  -48.9200  -12.5240 C.3   133  ARG133      0.1563
    156  C         11.7430  -49.7550  -12.3450 C.2   133  ARG133      0.2260
    157  O         12.7770  -49.1890  -12.0510 O.2   133  ARG133     -0.2867
    158  CB        10.0450  -48.2460  -11.2190 C.3   133  ARG133      0.0307
    159  CG         8.9750  -47.1860  -11.4300 C.3   133  ARG133      0.0489
    160  CD         8.5850  -46.5010  -10.1410 C.3   133  ARG133      0.2205
    161  NE         7.5450  -45.5060  -10.3800 N.pl3 133  ARG133     -0.0865
    162  CZ         7.7480  -44.3150  -10.9470 C.cat 133  ARG133      0.5346
    163  NH1        8.9550  -43.9320  -11.3780 N.pl3 133  ARG133      0.1354
    164  NH2        6.7210  -43.4940  -11.1270 N.pl3 133  ARG133      0.1354
@<TRIPOS>BOND
     1    77    76    2
     2    76    75    1
     3    82    83    1
     4    74    75    1
     5    68    67    2
     6    75    78    1
     7    83    84    1
     8    83    86    1
     9    88    87    1
    10    84    85    2
    11    67    66    1
    12    78    79    1
    13    86    87    1
    14    87    89    1
    15    65    66    1
    16    66    69    1
    17    79    80    1
    18    79    81    1
    19   121   120    1
    20   125   124    1
    21   125   126    2
    22    69    70    1
    23   124   123    1
    24   124   127    1
    25   116   117    1
    26   116   119    1
    27   116   115    1
    28   117   118    2
    29   120   119    1
    30   120   122    1
    31     4     3    2
    32   128   127    1
    33   127   129    1
    34    70    71    1
    35     1     2    1
    36     3     2    1
    37    72    71    2
    38    15    14    2
    39    71    73   am
    40     2     5    1
    41    99    98    1
    42    99   100    1
    43    91    90    1
    44    91    92    1
    45    12    13    1
    46   105   104    1
    47   105   106    2
    48   104   103    1
    49   104   107    1
    50   102   100   am
    51    95    98    1
    52    95    94    1
    53    95    96    1
    54    14    13    1
    55    58    57    2
    56   112   110   ar
    57   112   113   ar
    58     5     6    1
    59   110   108   ar
    60   100   101    2
    61    92    93    2
    62    26    25    2
    63    13    16    1
    64   113   114    1
    65   113   111   ar
    66   108   107    1
    67   108   109   ar
    68    96    97    2
    69    59    60    1
    70    59    56    1
    71    21    22   ar
    72    21    19   ar
    73    22    20   ar
    74    23    24    1
    75   111   109   ar
    76     6     7    1
    77    57    56    1
    78    19    17   ar
    79    20    18   ar
    80    17    18   ar
    81    17    16    1
    82    62    60   ar
    83    62    64   ar
    84    55    56    1
    85    60    61   ar
    86    25    24    1
    87    27    29    1
    88    27    24    1
    89    27    28    1
    90    10     9    1
    91     8     9    2
    92     8     7    1
    93    48    47    2
    94     9    11    1
    95    64    63   ar
    96    61    63   ar
    97    47    46    1
    98    33    32    2
    99    45    46    1
   100    32    41   am
   101    32    31    1
   102    52    54   ar
   103    52    50   ar
   104    42    41    1
   105    42    43    1
   106   130   131    1
   107    46    49    1
   108    34    31    1
   109    34    35    1
   110    54    53   ar
   111    30    31    1
   112    36    37    1
   113    36    35    1
   114    43    44    2
   115    37    38    2
   116   131   134    1
   117   131   132    1
   118    50    49    1
   119    50    51   ar
   120    53    51   ar
   121    38    39    1
   122    38    40    1
   123   151   149   ar
   124   151   152   ar
   125   134   135    1
   126   132   133    2
   127   153   152    1
   128   149   147   ar
   129   143   142    1
   130   143   144    1
   131   143   146    1
   132   152   150   ar
   133   144   145    2
   134   136   135   ar
   135   136   138   ar
   136   147   146    1
   137   147   148   ar
   138   150   148   ar
   139   135   137   ar
   140   154   155    1
   141   138   140   ar
   142   155   156    1
   143   155   158    1
   144   137   139   ar
   145   156   157    2
   146   140   139   ar
   147   140   141    1
   148   159   158    1
   149   159   160    1
   150   163   162    1
   151   164   162    1
   152   162   161    2
   153   161   160    1
