@<TRIPOS>MOLECULE
tmp/4zu6A01.pdb
 93 86 0 0 0
SMALL
GASTEIGER

@<TRIPOS>ATOM
      1  N        124.2040  112.1480  -17.2100 N.3    42  LYS42      -0.1245
      2  CA       125.1760  111.0770  -16.9980 C.3    42  LYS42       0.1561
      3  C        124.7350  109.7320  -17.5610 C.2    42  LYS42       0.2260
      4  O        125.5620  108.8410  -17.7520 O.2    42  LYS42      -0.2867
      5  CB       125.4940  110.9490  -15.5040 C.3    42  LYS42       0.0271
      6  CG       126.5050  112.0020  -15.0730 C.3    42  LYS42       0.0035
      7  CD       127.6120  111.9580  -16.1090 C.3    42  LYS42       0.0206
      8  CE       128.5880  113.0890  -16.0430 C.3    42  LYS42       0.1093
      9  NZ       127.9750  114.3360  -16.6120 N.3    42  LYS42      -0.1314
     10  N        131.5930  108.1950   -7.7820 N.3    69  THR69      -0.1203
     11  CA       130.6410  109.1640   -8.3040 C.3    69  THR69       0.1994
     12  C        130.1470  110.1960   -7.2750 C.2    69  THR69       0.2618
     13  O        130.0930  109.9240   -6.0640 O.2    69  THR69      -0.2717
     14  CB       129.4330  108.4310   -8.9020 C.3    69  THR69       0.1784
     15  OG1      128.4940  109.3740   -9.4340 O.3    69  THR69      -0.2211
     16  CG2      128.7780  107.5670   -7.8380 C.3    69  THR69       0.0376
     17  N        129.7880  111.3850   -7.7610 N.am   70  SER70      -0.1951
     18  CA       129.0260  112.3290   -6.9430 C.3    70  SER70       0.1924
     19  C        127.5020  112.0860   -7.0980 C.2    70  SER70       0.2314
     20  O        126.6520  112.9030   -6.7210 O.2    70  SER70      -0.2863
     21  CB       129.4070  113.7720   -7.2950 C.3    70  SER70       0.2116
     22  OG       128.8640  114.1930   -8.5330 O.3    70  SER70      -0.2180
     23  N        125.1820  111.1500   -9.9280 N.3    72  ASN72      -0.1225
     24  CA       124.4070  110.9260  -11.1410 C.3    72  ASN72       0.1785
     25  C        125.0480  109.8520  -12.0020 C.2    72  ASN72       0.2597
     26  O        124.3470  109.0110  -12.5680 O.2    72  ASN72      -0.2718
     27  CB       124.2170  112.2330  -11.9100 C.3    72  ASN72       0.1169
     28  CG       123.1420  113.1050  -11.2780 C.2    72  ASN72       0.2627
     29  OD1      122.2060  112.5950  -10.6670 O.2    72  ASN72      -0.2716
     30  ND2      123.2810  114.4090  -11.4010 N.am   72  ASN72      -0.0877
     31  N        126.3750  109.8630  -12.0710 N.am   73  THR73      -0.1953
     32  CA       127.0980  108.8400  -12.8230 C.3    73  THR73       0.1897
     33  C        126.8450  107.4810  -12.1850 C.2    73  THR73       0.2313
     34  O        126.6290  106.4910  -12.8850 O.2    73  THR73      -0.2863
     35  CB       128.6160  109.1310  -12.8870 C.3    73  THR73       0.1794
     36  OG1      128.8320  110.2800  -13.7070 O.3    73  THR73      -0.2208
     37  CG2      129.3680  107.9500  -13.5190 C.3    73  THR73       0.0378
     38  N        126.4380  113.6920   -0.3280 N.3    96  MET96      -0.1245
     39  CA       125.5830  113.7970   -1.5090 C.3    96  MET96       0.1570
     40  C        124.1230  113.5360   -1.1210 C.2    96  MET96       0.2261
     41  O        123.8530  112.8490   -0.1330 O.2    96  MET96      -0.2867
     42  CB       126.0550  112.8290   -2.5950 C.3    96  MET96       0.0387
     43  CG       127.4840  113.0950   -3.0480 C.3    96  MET96       0.0595
     44  SD       127.6830  114.7170   -3.8250 S.3    96  MET96      -0.1393
     45  CE       129.4440  114.7710   -4.1630 C.3    96  MET96       0.0692
     46  N        135.2200  107.5540  -14.7710 N.3   141  GLN141     -0.1231
     47  CA       134.5760  108.6300  -15.5390 C.3   141  GLN141      0.1698
     48  C        135.4170  109.9160  -15.6960 C.2   141  GLN141      0.2592
     49  O        135.2580  110.6640  -16.6700 O.2   141  GLN141     -0.2718
     50  CB       133.2290  108.9890  -14.8950 C.3   141  GLN141      0.0381
     51  CG       133.3520  109.5600  -13.5030 C.3   141  GLN141      0.0905
     52  CD       132.0750  110.2240  -13.0400 C.2   141  GLN141      0.2608
     53  OE1      131.2890  110.7210  -13.8540 O.2   141  GLN141     -0.2717
     54  NE2      131.8490  110.2230  -11.7320 N.am  141  GLN141     -0.0878
     55  N        136.3050  110.1880  -14.7500 N.am  142  PHE142     -0.1976
     56  CA       137.0990  111.4140  -14.8420 C.3   142  PHE142      0.1639
     57  C        138.1850  111.3430  -15.9310 C.2   142  PHE142      0.2290
     58  O        138.6390  112.3740  -16.4060 O.2   142  PHE142     -0.2864
     59  CB       137.7080  111.7510  -13.4760 C.3   142  PHE142      0.0560
     60  CG       136.7150  112.3460  -12.5140 C.ar  142  PHE142     -0.0200
     61  CD1      136.4950  113.7200  -12.4830 C.ar  142  PHE142     -0.0042
     62  CD2      135.9800  111.5360  -11.6620 C.ar  142  PHE142     -0.0042
     63  CE1      135.5700  114.2790  -11.6040 C.ar  142  PHE142     -0.0003
     64  CE2      135.0460  112.0860  -10.7860 C.ar  142  PHE142     -0.0003
     65  CZ       134.8410  113.4590  -10.7570 C.ar  142  PHE142     -0.0000
     66  N        132.2250  119.0110  -14.2560 N.3   175  GLY175     -0.1210
     67  CA       132.4400  118.0290  -13.2050 C.3   175  GLY175      0.1956
     68  C        133.5920  117.1380  -13.6350 C.2   175  GLY175      0.2612
     69  O        134.7330  117.3350  -13.1970 O.2   175  GLY175     -0.2717
     70  N        133.3000  116.1880  -14.5220 N.am  176  THR176     -0.1952
     71  CA       134.3440  115.4510  -15.2290 C.3   176  THR176      0.1897
     72  C        134.8850  116.2680  -16.4130 C.2   176  THR176      0.2313
     73  O        136.0130  116.0570  -16.8460 O.2   176  THR176     -0.2863
     74  CB       133.8380  114.0980  -15.7640 C.3   176  THR176      0.1794
     75  OG1      132.9470  114.3260  -16.8600 O.3   176  THR176     -0.2208
     76  CG2      133.0950  113.3100  -14.6550 C.3   176  THR176      0.0378
     77  N        127.6110  118.1810   -8.2840 N.3   226  GLY226     -0.1210
     78  CA       127.9050  117.7090   -9.6310 C.3   226  GLY226      0.1956
     79  C        129.0270  118.4430  -10.3540 C.2   226  GLY226      0.2611
     80  O        129.6210  117.9010  -11.2850 O.2   226  GLY226     -0.2717
     81  N        129.3160  119.6790   -9.9540 N.am  227  ILE227     -0.1979
     82  CA       130.4650  120.3750  -10.5250 C.3   227  ILE227      0.1595
     83  C        131.4840  120.7180   -9.4320 C.2   227  ILE227      0.2287
     84  O        131.2570  120.4390   -8.2580 O.2   227  ILE227     -0.2864
     85  CB       130.0370  121.6480  -11.2750 C.3   227  ILE227      0.0276
     86  CG1      129.5930  122.7490  -10.3140 C.3   227  ILE227      0.0022
     87  CG2      128.9180  121.3410  -12.2760 C.3   227  ILE227      0.0022
     88  CD1      129.3170  124.0930  -11.0330 C.3   227  ILE227      0.0001
     89  N        134.9060  119.7590   -8.8910 N.3   229  ALA229     -0.1245
     90  CA       135.6060  118.6100   -8.3250 C.3   229  ALA229      0.1562
     91  C        136.8320  119.0070   -7.5080 C.2   229  ALA229      0.2260
     92  O        137.3880  118.1800   -6.8010 O.2   229  ALA229     -0.2867
     93  CB       136.0280  117.6470   -9.4300 C.3   229  ALA229      0.0290
@<TRIPOS>BOND
     1     4     3    2
     2     3     2    1
     3     1     2    1
     4     2     5    1
     5    75    74    1
     6    73    72    2
     7    49    48    2
     8     9     8    1
     9    72    71    1
    10    58    57    2
    11     7     8    1
    12     7     6    1
    13    57    56    1
    14    74    71    1
    15    74    76    1
    16    48    47    1
    17    48    55   am
    18    47    50    1
    19    47    46    1
    20     5     6    1
    21    71    70    1
    22    50    51    1
    23    56    55    1
    24    56    59    1
    25    70    68   am
    26    66    67    1
    27    53    52    2
    28    36    35    1
    29    68    67    1
    30    68    69    2
    31    37    35    1
    32    51    52    1
    33    59    60    1
    34    52    54   am
    35    35    32    1
    36    34    33    2
    37    32    33    1
    38    32    31    1
    39    26    25    2
    40    60    61   ar
    41    60    62   ar
    42    61    63   ar
    43    87    85    1
    44    31    25   am
    45    25    24    1
    46    27    28    1
    47    27    24    1
    48    62    64   ar
    49    63    65   ar
    50    30    28   am
    51    80    79    2
    52    28    29    2
    53    85    82    1
    54    85    86    1
    55    24    23    1
    56    88    86    1
    57    64    65   ar
    58    82    81    1
    59    82    83    1
    60    79    81   am
    61    79    78    1
    62    78    77    1
    63    15    14    1
    64    83    84    2
    65    93    90    1
    66    14    11    1
    67    14    16    1
    68    89    90    1
    69    22    21    1
    70    90    91    1
    71    11    10    1
    72    11    12    1
    73    17    12   am
    74    17    18    1
    75    91    92    2
    76    21    18    1
    77    12    13    2
    78    19    18    1
    79    19    20    2
    80    45    44    1
    81    44    43    1
    82    43    42    1
    83    42    39    1
    84    39    40    1
    85    39    38    1
    86    40    41    2
