@<TRIPOS>MOLECULE
tmp/4zu6A00.pdb
 178 175 0 0 0
SMALL
GASTEIGER

@<TRIPOS>ATOM
      1  N        133.7910  105.7650   -9.0240 N.3    68  ALA68      -0.1231
      2  CA       133.5490  106.7580   -7.9870 C.3    68  ALA68       0.1694
      3  C        132.6190  107.8170   -8.5390 C.2    68  ALA68       0.2593
      4  O        132.8410  108.3110   -9.6480 O.2    68  ALA68      -0.2718
      5  CB       134.8550  107.3910   -7.5280 C.3    68  ALA68       0.0304
      6  N        131.5930  108.1950   -7.7820 N.am   69  THR69      -0.1939
      7  CA       130.6410  109.1640   -8.3040 C.3    69  THR69       0.2028
      8  C        130.1470  110.1960   -7.2750 C.2    69  THR69       0.2642
      9  O        130.0930  109.9240   -6.0640 O.2    69  THR69      -0.2714
     10  CB       129.4330  108.4310   -8.9020 C.3    69  THR69       0.1808
     11  OG1      128.4940  109.3740   -9.4340 O.3    69  THR69      -0.2208
     12  CG2      128.7780  107.5670   -7.8380 C.3    69  THR69       0.0379
     13  N        129.7880  111.3850   -7.7610 N.am   70  SER70      -0.1949
     14  CA       129.0260  112.3290   -6.9430 C.3    70  SER70       0.1924
     15  C        127.5020  112.0860   -7.0980 C.2    70  SER70       0.2314
     16  O        126.6520  112.9030   -6.7210 O.2    70  SER70      -0.2863
     17  CB       129.4070  113.7720   -7.2950 C.3    70  SER70       0.2116
     18  OG       128.8640  114.1930   -8.5330 O.3    70  SER70      -0.2180
     19  N        130.8170  110.3920   -1.8900 N.3    93  PRO93      -0.2116
     20  CA       130.9530  111.2280   -0.6870 C.3    93  PRO93       0.1372
     21  C        129.6840  111.2010    0.1600 C.2    93  PRO93       0.2244
     22  O        128.5850  111.2930   -0.3950 O.2    93  PRO93      -0.2868
     23  CB       131.2090  112.6340   -1.2540 C.3    93  PRO93       0.0268
     24  CG       131.6430  112.3950   -2.6780 C.3    93  PRO93       0.0207
     25  CD       130.8510  111.2060   -3.1160 C.3    93  PRO93       0.0892
     26  N        128.1700  113.2460    1.7740 N.3    95  THR95      -0.1203
     27  CA       127.4110  114.4950    1.7610 C.3    95  THR95       0.1994
     28  C        126.4650  114.6700    0.5710 C.2    95  THR95       0.2617
     29  O        125.7630  115.6820    0.4730 O.2    95  THR95      -0.2717
     30  CB       128.3790  115.6970    1.7920 C.3    95  THR95       0.1784
     31  OG1      129.3850  115.5330    0.7800 O.3    95  THR95      -0.2211
     32  CG2      129.0550  115.7850    3.1520 C.3    95  THR95       0.0376
     33  N        126.4380  113.6920   -0.3280 N.am   96  MET96      -0.1979
     34  CA       125.5830  113.7970   -1.5090 C.3    96  MET96       0.1605
     35  C        124.1230  113.5360   -1.1210 C.2    96  MET96       0.2287
     36  O        123.8530  112.8490   -0.1330 O.2    96  MET96      -0.2864
     37  CB       126.0550  112.8290   -2.5950 C.3    96  MET96       0.0413
     38  CG       127.4840  113.0950   -3.0480 C.3    96  MET96       0.0598
     39  SD       127.6830  114.7170   -3.8250 S.3    96  MET96      -0.1393
     40  CE       129.4440  114.7710   -4.1630 C.3    96  MET96       0.0692
     41  N        133.0640  112.8260    3.5010 N.3   116  GLY116     -0.1210
     42  CA       132.5490  114.0010    2.8180 C.3   116  GLY116      0.1956
     43  C        133.5880  115.1010    2.7220 C.2   116  GLY116      0.2612
     44  O        133.6710  115.8060    1.7150 O.2   116  GLY116     -0.2717
     45  N        134.3900  115.2380    3.7730 N.am  117  ALA117     -0.1965
     46  CA       135.4920  116.2020    3.7940 C.3   117  ALA117      0.1728
     47  C        136.4950  115.9770    2.6480 C.2   117  ALA117      0.2616
     48  O        137.0810  116.9320    2.1370 O.2   117  ALA117     -0.2715
     49  CB       136.2070  116.1490    5.1470 C.3   117  ALA117      0.0334
     50  N        136.6790  114.7210    2.2420 N.am  118  LYS118     -0.1963
     51  CA       137.6430  114.3770    1.1910 C.3   118  LYS118      0.1728
     52  C        137.0500  114.4560   -0.2290 C.2   118  LYS118      0.2616
     53  O        137.7710  114.2790   -1.2150 O.2   118  LYS118     -0.2715
     54  CB       138.2100  112.9710    1.4330 C.3   118  LYS118      0.0311
     55  CG       139.2350  112.8800    2.5560 C.3   118  LYS118      0.0038
     56  CD       139.7420  111.4540    2.7060 C.3   118  LYS118      0.0206
     57  CE       141.2420  111.3970    2.9860 C.3   118  LYS118      0.1093
     58  NZ       141.7030  110.0120    3.2980 N.3   118  LYS118     -0.1314
     59  N        135.7480  114.7230   -0.3330 N.am  119  GLY119     -0.1955
     60  CA       135.0990  114.8250   -1.6300 C.3   119  GLY119      0.1869
     61  C        134.8410  113.5020   -2.3490 C.2   119  GLY119      0.2309
     62  O        135.5950  112.5230   -2.2580 O.2   119  GLY119     -0.2863
     63  N        138.7150  111.7720   -2.3860 N.3   120  GLY120     -0.1210
     64  CA       138.2030  110.8550   -1.3880 C.3   120  GLY120      0.1956
     65  C        137.4170  109.7310   -2.0230 C.2   120  GLY120      0.2612
     66  O        137.7150  108.5560   -1.8090 O.2   120  GLY120     -0.2717
     67  N        136.4130  110.0860   -2.8160 N.am  121  ALA121     -0.1965
     68  CA       135.6160  109.0760   -3.5100 C.3   121  ALA121      0.1728
     69  C        136.5060  108.2690   -4.4650 C.2   121  ALA121      0.2616
     70  O        136.4260  107.0310   -4.5230 O.2   121  ALA121     -0.2715
     71  CB       134.4380  109.7330   -4.2680 C.3   121  ALA121      0.0334
     72  N        137.3710  108.9840   -5.1850 N.am  122  ILE122     -0.1977
     73  CA       138.2610  108.3870   -6.1740 C.3   122  ILE122      0.1596
     74  C        139.2730  107.4420   -5.5330 C.2   122  ILE122      0.2287
     75  O        139.6220  106.4150   -6.1140 O.2   122  ILE122     -0.2864
     76  CB       139.0240  109.4660   -6.9650 C.3   122  ILE122      0.0276
     77  CG1      138.0260  110.1950   -7.8890 C.3   122  ILE122      0.0022
     78  CG2      140.1820  108.8720   -7.7300 C.3   122  ILE122      0.0022
     79  CD1      138.5780  111.4440   -8.5180 C.3   122  ILE122      0.0001
     80  N        136.3050  110.1880  -14.7500 N.3   142  PHE142     -0.1241
     81  CA       137.0990  111.4140  -14.8420 C.3   142  PHE142      0.1605
     82  C        138.1850  111.3430  -15.9310 C.2   142  PHE142      0.2264
     83  O        138.6390  112.3740  -16.4060 O.2   142  PHE142     -0.2867
     84  CB       137.7080  111.7510  -13.4760 C.3   142  PHE142      0.0534
     85  CG       136.7150  112.3460  -12.5140 C.ar  142  PHE142     -0.0203
     86  CD1      136.4950  113.7200  -12.4830 C.ar  142  PHE142     -0.0042
     87  CD2      135.9800  111.5360  -11.6620 C.ar  142  PHE142     -0.0042
     88  CE1      135.5700  114.2790  -11.6040 C.ar  142  PHE142     -0.0003
     89  CE2      135.0460  112.0860  -10.7860 C.ar  142  PHE142     -0.0003
     90  CZ       134.8410  113.4590  -10.7570 C.ar  142  PHE142     -0.0000
     91  N        135.4000  127.3330   -5.5760 N.3   205  SER205     -0.1217
     92  CA       136.4040  126.3300   -5.9210 C.3   205  SER205      0.1889
     93  C        136.7710  126.4960   -7.3940 C.2   205  SER205      0.2288
     94  O        136.5650  125.5950   -8.2010 O.2   205  SER205     -0.2866
     95  CB       135.8680  124.9150   -5.6280 C.3   205  SER205      0.2089
     96  OG       136.8920  123.9300   -5.6610 O.3   205  SER205     -0.2183
     97  N        141.2290  124.7800   -4.0910 N.3   219  PRO219     -0.2102
     98  CA       139.8660  124.2520   -4.0960 C.3   219  PRO219      0.1504
     99  C        139.1530  124.5720   -2.7880 C.2   219  PRO219      0.2576
    100  O        139.8150  124.8140   -1.7740 O.2   219  PRO219     -0.2718
    101  CB       140.0800  122.7520   -4.2520 C.3   219  PRO219      0.0282
    102  CG       141.4550  122.5070   -3.7040 C.3   219  PRO219      0.0208
    103  CD       142.2450  123.7130   -4.0510 C.3   219  PRO219      0.0893
    104  N        137.8270  124.5860   -2.8160 N.am  220  GLY220     -0.1943
    105  CA       137.0430  124.8290   -1.6180 C.3   220  GLY220      0.1998
    106  C        135.6840  124.1590   -1.6800 C.2   220  GLY220      0.2481
    107  O        135.2310  123.7630   -2.7500 O.2   220  GLY220     -0.2729
    108  N        135.0140  124.0420   -0.5240 N.am  221  PRO221     -0.2715
    109  CA       133.6770  123.4450   -0.4210 C.3   221  PRO221      0.1536
    110  C        132.5970  124.3490   -1.0190 C.2   221  PRO221      0.2599
    111  O        132.7480  125.5670   -0.9970 O.2   221  PRO221     -0.2715
    112  CB       133.4820  123.2940    1.0880 C.3   221  PRO221      0.0310
    113  CG       134.2590  124.4500    1.6560 C.3   221  PRO221      0.0237
    114  CD       135.4670  124.6110    0.7590 C.3   221  PRO221      0.0939
    115  N        131.5260  123.7490   -1.5350 N.am  222  HIS222     -0.1960
    116  CA       130.4420  124.4860   -2.1770 C.3   222  HIS222      0.1787
    117  C        129.1910  123.5940   -2.2360 C.2   222  HIS222      0.2620
    118  O        129.2670  122.3840   -1.9840 O.2   222  HIS222     -0.2715
    119  CB       130.8600  124.9270   -3.5840 C.3   222  HIS222      0.0785
    120  CG       131.1000  123.7770   -4.5120 C.ar  222  HIS222      0.0821
    121  ND1      130.0920  123.2010   -5.2530 N.ar  222  HIS222     -0.2267
    122  CD2      132.2210  123.0660   -4.7820 C.ar  222  HIS222      0.1154
    123  CE1      130.5830  122.1900   -5.9530 C.ar  222  HIS222      0.1986
    124  NE2      131.8720  122.0860   -5.6850 N.ar  222  HIS222     -0.2212
    125  N        128.0500  124.1800   -2.5920 N.am  223  LYS223     -0.1977
    126  CA       126.7780  123.4540   -2.5910 C.3   223  LYS223      0.1596
    127  C        126.2930  123.0480   -3.9910 C.2   223  LYS223      0.2287
    128  O        125.1890  122.4990   -4.1380 O.2   223  LYS223     -0.2864
    129  CB       125.6890  124.3020   -1.9160 C.3   223  LYS223      0.0298
    130  CG       125.9680  124.6930   -0.4650 C.3   223  LYS223      0.0038
    131  CD       124.7620  125.4240    0.1460 C.3   223  LYS223      0.0206
    132  CE       124.9930  125.7740    1.6140 C.3   223  LYS223      0.1093
    133  NZ       126.1580  126.6930    1.8060 N.3   223  LYS223     -0.1314
    134  N        126.0820  120.7250   -6.3920 N.3   225  GLN225     -0.1231
    135  CA       126.2970  119.2920   -6.5670 C.3   225  GLN225      0.1698
    136  C        126.5210  118.9020   -8.0290 C.2   225  GLN225      0.2593
    137  O        125.7340  119.2610   -8.9080 O.2   225  GLN225     -0.2718
    138  CB       125.1070  118.5000   -5.9950 C.3   225  GLN225      0.0381
    139  CG       125.0300  118.6060   -4.4720 C.3   225  GLN225      0.0905
    140  CD       123.9310  117.7560   -3.8570 C.2   225  GLN225      0.2608
    141  OE1      122.9970  117.3300   -4.5560 O.2   225  GLN225     -0.2717
    142  NE2      124.0240  117.5090   -2.5670 N.am  225  GLN225     -0.0878
    143  N        127.6110  118.1810   -8.2840 N.am  226  GLY226     -0.1942
    144  CA       127.9050  117.7090   -9.6310 C.3   226  GLY226      0.2014
    145  C        129.0270  118.4430  -10.3540 C.2   226  GLY226      0.2639
    146  O        129.6210  117.9010  -11.2850 O.2   226  GLY226     -0.2714
    147  N        129.3160  119.6790   -9.9540 N.am  227  ILE227     -0.1963
    148  CA       130.4650  120.3750  -10.5250 C.3   227  ILE227      0.1727
    149  C        131.4840  120.7180   -9.4320 C.2   227  ILE227      0.2617
    150  O        131.2570  120.4390   -8.2580 O.2   227  ILE227     -0.2715
    151  CB       130.0370  121.6480  -11.2750 C.3   227  ILE227      0.0290
    152  CG1      129.5930  122.7490  -10.3140 C.3   227  ILE227      0.0022
    153  CG2      128.9180  121.3410  -12.2760 C.3   227  ILE227      0.0023
    154  CD1      129.3170  124.0930  -11.0330 C.3   227  ILE227      0.0001
    155  N        132.6070  121.3070   -9.8220 N.am  228  GLY228     -0.1940
    156  CA       133.5910  121.7900   -8.8700 C.3   228  GLY228      0.2014
    157  C        134.2820  120.6550   -8.1340 C.2   228  GLY228      0.2639
    158  O        134.2410  120.5920   -6.9070 O.2   228  GLY228     -0.2714
    159  N        134.9060  119.7590   -8.8910 N.am  229  ALA229     -0.1963
    160  CA       135.6060  118.6100   -8.3250 C.3   229  ALA229      0.1728
    161  C        136.8320  119.0070   -7.5080 C.2   229  ALA229      0.2617
    162  O        137.3880  118.1800   -6.8010 O.2   229  ALA229     -0.2715
    163  CB       136.0280  117.6470   -9.4300 C.3   229  ALA229      0.0334
    164  N        137.2800  120.2520   -7.6260 N.am  230  GLY230     -0.1940
    165  CA       138.4430  120.6910   -6.8670 C.3   230  GLY230      0.2014
    166  C        139.7890  120.3330   -7.4850 C.2   230  GLY230      0.2638
    167  O        140.8420  120.5040   -6.8660 O.2   230  GLY230     -0.2714
    168  N        139.7590  119.8400   -8.7150 N.am  231  PHE231     -0.1973
    169  CA       140.9750  119.6070   -9.4830 C.3   231  PHE231      0.1639
    170  C        140.6050  119.7080  -10.9440 C.2   231  PHE231      0.2290
    171  O        139.4220  119.7690  -11.2750 O.2   231  PHE231     -0.2864
    172  CB       141.5940  118.2300   -9.1750 C.3   231  PHE231      0.0560
    173  CG       140.6570  117.0720   -9.4330 C.ar  231  PHE231     -0.0200
    174  CD1      139.7870  116.6350   -8.4390 C.ar  231  PHE231     -0.0042
    175  CD2      140.6360  116.4300  -10.6630 C.ar  231  PHE231     -0.0042
    176  CE1      138.9190  115.5780   -8.6610 C.ar  231  PHE231     -0.0003
    177  CE2      139.7640  115.3680  -10.8970 C.ar  231  PHE231     -0.0003
    178  CZ       138.9000  114.9490   -9.9010 C.ar  231  PHE231     -0.0000
@<TRIPOS>BOND
     1    83    82    2
     2    82    81    1
     3    81    80    1
     4    81    84    1
     5    84    85    1
     6    85    86   ar
     7    85    87   ar
     8    86    88   ar
     9   153   151    1
    10    87    89   ar
    11    88    90   ar
    12   146   145    2
    13   151   148    1
    14   151   152    1
    15   171   170    2
    16   154   152    1
    17   170   169    1
    18   177   175   ar
    19   177   178   ar
    20    89    90   ar
    21   175   173   ar
    22   148   147    1
    23   148   149    1
    24   145   147   am
    25   145   144    1
    26   178   176   ar
    27   155   149   am
    28   155   156    1
    29     4     3    2
    30   144   143    1
    31   169   172    1
    32   169   168    1
    33    11    10    1
    34   173   172    1
    35   173   174   ar
    36   149   150    2
    37   163   160    1
    38     1     2    1
    39   137   136    2
    40    10     7    1
    41    10    12    1
    42   159   160    1
    43   159   157   am
    44   156   157    1
    45   168   166   am
    46   176   174   ar
    47     3     2    1
    48     3     6   am
    49    18    17    1
    50    79    77    1
    51   160   161    1
    52     7     6    1
    53     7     8    1
    54   143   136   am
    55    94    93    2
    56   157   158    2
    57   136   135    1
    58     2     5    1
    59    77    76    1
    60    13     8   am
    61    13    14    1
    62    78    76    1
    63   164   161   am
    64   164   165    1
    65   161   162    2
    66   166   165    1
    67   166   167    2
    68    93    92    1
    69    17    14    1
    70     8     9    2
    71    15    14    1
    72    15    16    2
    73    76    73    1
    74   135   134    1
    75   135   138    1
    76    73    74    1
    77    73    72    1
    78    75    74    2
    79   138   139    1
    80   123   124   ar
    81   123   121   ar
    82    92    95    1
    83    92    91    1
    84   124   122   ar
    85    96    95    1
    86   121   120   ar
    87    72    69   am
    88   122   120   ar
    89   141   140    2
    90    70    69    2
    91   120   119    1
    92   139   140    1
    93    69    68    1
    94    71    68    1
    95   101    98    1
    96   101   102    1
    97    40    39    1
    98   128   127    2
    99    98    97    1
   100    98    99    1
   101    97   103    1
   102   103   102    1
   103   127   126    1
   104   140   142   am
   105    39    38    1
   106   119   116    1
   107    68    67    1
   108    25    24    1
   109    25    19    1
   110    38    37    1
   111    67    65   am
   112   104    99   am
   113   104   105    1
   114    99   100    2
   115   107   106    2
   116    24    23    1
   117    37    34    1
   118   125   126    1
   119   125   117   am
   120   126   129    1
   121    63    64    1
   122    61    62    2
   123    61    60    1
   124   117   116    1
   125   117   118    2
   126   116   115    1
   127    65    66    2
   128    65    64    1
   129   129   130    1
   130    19    20    1
   131   106   105    1
   132   106   108   am
   133    60    59    1
   134   115   110   am
   135    34    35    1
   136    34    33    1
   137    23    20    1
   138    53    52    2
   139    35    36    2
   140   110   111    2
   141   110   109    1
   142    20    21    1
   143   108   109    1
   144   108   114    1
   145   130   131    1
   146   109   112    1
   147    22    21    2
   148    59    52   am
   149    33    28   am
   150    52    51    1
   151   131   132    1
   152    29    28    2
   153    28    27    1
   154   114   113    1
   155    31    30    1
   156   112   113    1
   157    51    54    1
   158    51    50    1
   159    54    55    1
   160   132   133    1
   161    44    43    2
   162    27    26    1
   163    27    30    1
   164    30    32    1
   165    48    47    2
   166    50    47   am
   167    55    56    1
   168    47    46    1
   169    56    57    1
   170    43    42    1
   171    43    45   am
   172    42    41    1
   173    57    58    1
   174    45    46    1
   175    46    49    1
