@<TRIPOS>MOLECULE
tmp/4zu6A02.pdb
 171 162 0 0 0
SMALL
GASTEIGER

@<TRIPOS>ATOM
      1  N        122.1200  113.9230  -17.3410 N.3    41  VAL41      -0.1231
      2  CA       123.0250  113.8610  -18.4800 C.3    41  VAL41       0.1692
      3  C        123.9700  112.6510  -18.4160 C.2    41  VAL41       0.2591
      4  O        124.4660  112.1710  -19.4430 O.2    41  VAL41      -0.2718
      5  CB       123.8550  115.1780  -18.5550 C.3    41  VAL41       0.0266
      6  CG1      124.7330  115.3430  -17.3000 C.3    41  VAL41       0.0020
      7  CG2      124.6690  115.2630  -19.8400 C.3    41  VAL41       0.0020
      8  N        124.2040  112.1480  -17.2100 N.am   42  LYS42      -0.1980
      9  CA       125.1760  111.0770  -16.9980 C.3    42  LYS42       0.1596
     10  C        124.7350  109.7320  -17.5610 C.2    42  LYS42       0.2287
     11  O        125.5620  108.8410  -17.7520 O.2    42  LYS42      -0.2864
     12  CB       125.4940  110.9490  -15.5040 C.3    42  LYS42       0.0298
     13  CG       126.5050  112.0020  -15.0730 C.3    42  LYS42       0.0038
     14  CD       127.6120  111.9580  -16.1090 C.3    42  LYS42       0.0206
     15  CE       128.5880  113.0890  -16.0430 C.3    42  LYS42       0.1093
     16  NZ       127.9750  114.3360  -16.6120 N.3    42  LYS42      -0.1314
     17  N        129.7880  111.3850   -7.7610 N.3    70  SER70      -0.1217
     18  CA       129.0260  112.3290   -6.9430 C.3    70  SER70       0.1889
     19  C        127.5020  112.0860   -7.0980 C.2    70  SER70       0.2288
     20  O        126.6520  112.9030   -6.7210 O.2    70  SER70      -0.2866
     21  CB       129.4070  113.7720   -7.2950 C.3    70  SER70       0.2089
     22  OG       128.8640  114.1930   -8.5330 O.3    70  SER70      -0.2183
     23  N        125.1820  111.1500   -9.9280 N.3    72  ASN72      -0.1225
     24  CA       124.4070  110.9260  -11.1410 C.3    72  ASN72       0.1785
     25  C        125.0480  109.8520  -12.0020 C.2    72  ASN72       0.2597
     26  O        124.3470  109.0110  -12.5680 O.2    72  ASN72      -0.2718
     27  CB       124.2170  112.2330  -11.9100 C.3    72  ASN72       0.1169
     28  CG       123.1420  113.1050  -11.2780 C.2    72  ASN72       0.2627
     29  OD1      122.2060  112.5950  -10.6670 O.2    72  ASN72      -0.2716
     30  ND2      123.2810  114.4090  -11.4010 N.am   72  ASN72      -0.0877
     31  N        126.3750  109.8630  -12.0710 N.am   73  THR73      -0.1953
     32  CA       127.0980  108.8400  -12.8230 C.3    73  THR73       0.1897
     33  C        126.8450  107.4810  -12.1850 C.2    73  THR73       0.2313
     34  O        126.6290  106.4910  -12.8850 O.2    73  THR73      -0.2863
     35  CB       128.6160  109.1310  -12.8870 C.3    73  THR73       0.1794
     36  OG1      128.8320  110.2800  -13.7070 O.3    73  THR73      -0.2208
     37  CG2      129.3680  107.9500  -13.5190 C.3    73  THR73       0.0378
     38  N        119.9970  110.4390   -4.2140 N.3   100  ARG100     -0.1245
     39  CA       121.0540  109.6710   -4.8790 C.3   100  ARG100      0.1563
     40  C        121.3010  108.3500   -4.1510 C.2   100  ARG100      0.2260
     41  O        121.3270  107.2830   -4.7680 O.2   100  ARG100     -0.2867
     42  CB       122.3560  110.4800   -4.9470 C.3   100  ARG100      0.0307
     43  CG       122.3940  111.5660   -6.0200 C.3   100  ARG100      0.0489
     44  CD       123.3490  112.6660   -5.5950 C.3   100  ARG100      0.2205
     45  NE       123.7360  113.5920   -6.6620 N.pl3 100  ARG100     -0.0865
     46  CZ       123.0280  114.6590   -7.0430 C.cat 100  ARG100      0.5346
     47  NH1      121.8530  114.9270   -6.4730 N.pl3 100  ARG100      0.1354
     48  NH2      123.4900  115.4550   -8.0080 N.pl3 100  ARG100      0.1354
     49  N        135.2200  107.5540  -14.7710 N.3   141  GLN141     -0.1245
     50  CA       134.5760  108.6300  -15.5390 C.3   141  GLN141      0.1566
     51  C        135.4170  109.9160  -15.6960 C.2   141  GLN141      0.2260
     52  O        135.2580  110.6640  -16.6700 O.2   141  GLN141     -0.2867
     53  CB       133.2290  108.9890  -14.8950 C.3   141  GLN141      0.0367
     54  CG       133.3520  109.5600  -13.5030 C.3   141  GLN141      0.0905
     55  CD       132.0750  110.2240  -13.0400 C.2   141  GLN141      0.2608
     56  OE1      131.2890  110.7210  -13.8540 O.2   141  GLN141     -0.2717
     57  NE2      131.8490  110.2230  -11.7320 N.am  141  GLN141     -0.0878
     58  N        133.6500  108.8620  -22.0820 N.3   147  ASN147     -0.1240
     59  CA       132.8440  109.9380  -21.5020 C.3   147  ASN147      0.1653
     60  C        132.6760  111.1000  -22.5020 C.2   147  ASN147      0.2266
     61  O        131.5670  111.2960  -22.9950 O.2   147  ASN147     -0.2867
     62  CB       133.4680  110.3630  -20.1540 C.3   147  ASN147      0.1155
     63  CG       132.8070  111.5750  -19.5140 C.2   147  ASN147      0.2627
     64  OD1      132.0400  112.3000  -20.1330 O.2   147  ASN147     -0.2716
     65  ND2      133.1420  111.8060  -18.2470 N.am  147  ASN147     -0.0877
     66  N        129.2800  112.4020  -25.8060 N.3   151  HIS151     -0.1241
     67  CA       128.8330  113.7920  -25.9890 C.3   151  HIS151      0.1621
     68  C        129.1890  114.3390  -27.3640 C.2   151  HIS151      0.2264
     69  O        128.4350  115.1180  -27.9510 O.2   151  HIS151     -0.2867
     70  CB       129.4120  114.6830  -24.8980 C.3   151  HIS151      0.0745
     71  CG       128.8660  114.3790  -23.5470 C.ar  151  HIS151      0.0817
     72  ND1      127.5360  114.5900  -23.2160 N.ar  151  HIS151     -0.2268
     73  CD2      129.4400  113.8520  -22.4370 C.ar  151  HIS151      0.1154
     74  CE1      127.3310  114.2240  -21.9690 C.ar  151  HIS151      0.1986
     75  NE2      128.4760  113.7620  -21.4700 N.ar  151  HIS151     -0.2212
     76  N        128.4230  123.5300  -16.9020 N.3   173  GLY173     -0.1210
     77  CA       129.1930  123.3050  -15.6930 C.3   173  GLY173      0.1956
     78  C        130.1730  122.1590  -15.9120 C.2   173  GLY173      0.2612
     79  O        129.9340  121.2700  -16.7410 O.2   173  GLY173     -0.2717
     80  N        131.2890  122.1910  -15.1920 N.am  174  VAL174     -0.1965
     81  CA       132.3040  121.1620  -15.3330 C.3   174  VAL174      0.1727
     82  C        132.4150  120.3140  -14.0740 C.2   174  VAL174      0.2617
     83  O        132.6330  120.8310  -12.9740 O.2   174  VAL174     -0.2715
     84  CB       133.6820  121.7580  -15.6640 C.3   174  VAL174      0.0290
     85  CG1      134.7700  120.6770  -15.5280 C.3   174  VAL174      0.0023
     86  CG2      133.6650  122.3440  -17.0870 C.3   174  VAL174      0.0023
     87  N        132.2250  119.0110  -14.2560 N.am  175  GLY175     -0.1940
     88  CA       132.4400  118.0290  -13.2050 C.3   175  GLY175      0.2014
     89  C        133.5920  117.1380  -13.6350 C.2   175  GLY175      0.2640
     90  O        134.7330  117.3350  -13.1970 O.2   175  GLY175     -0.2714
     91  N        133.3000  116.1880  -14.5220 N.am  176  THR176     -0.1936
     92  CA       134.3440  115.4510  -15.2290 C.3   176  THR176      0.2028
     93  C        134.8850  116.2680  -16.4130 C.2   176  THR176      0.2643
     94  O        136.0130  116.0570  -16.8460 O.2   176  THR176     -0.2714
     95  CB       133.8380  114.0980  -15.7640 C.3   176  THR176      0.1808
     96  OG1      132.9470  114.3260  -16.8600 O.3   176  THR176     -0.2208
     97  CG2      133.0950  113.3100  -14.6550 C.3   176  THR176      0.0379
     98  N        134.0790  117.1940  -16.9420 N.am  177  GLY177     -0.1939
     99  CA       134.4660  117.9370  -18.1330 C.3   177  GLY177      0.2014
    100  C        134.0180  117.2700  -19.4350 C.2   177  GLY177      0.2639
    101  O        134.1770  117.8410  -20.5130 O.2   177  GLY177     -0.2714
    102  N        133.4490  116.0670  -19.3380 N.am  178  GLY178     -0.1939
    103  CA       133.0380  115.3120  -20.5190 C.3   178  GLY178      0.2014
    104  C        132.0250  116.0260  -21.4100 C.2   178  GLY178      0.2640
    105  O        132.1540  116.0230  -22.6360 O.2   178  GLY178     -0.2714
    106  N        131.0230  116.6540  -20.7940 N.am  179  SER179     -0.1935
    107  CA       129.9830  117.3480  -21.5430 C.3   179  SER179      0.2055
    108  C        130.5340  118.4960  -22.3780 C.2   179  SER179      0.2642
    109  O        130.3400  118.5110  -23.5870 O.2   179  SER179     -0.2714
    110  CB       128.8940  117.8800  -20.6010 C.3   179  SER179      0.2130
    111  OG       128.2680  116.8070  -19.9030 O.3   179  SER179     -0.2179
    112  N        131.2180  119.4650  -21.7680 N.am  180  ILE180     -0.1977
    113  CA       131.6650  120.6170  -22.5490 C.3   180  ILE180      0.1596
    114  C        132.7340  120.1780  -23.5510 C.2   180  ILE180      0.2287
    115  O        132.8110  120.7120  -24.6520 O.2   180  ILE180     -0.2864
    116  CB       132.1920  121.7810  -21.6620 C.3   180  ILE180      0.0276
    117  CG1      132.4000  123.0380  -22.5100 C.3   180  ILE180      0.0022
    118  CG2      133.4790  121.4120  -20.9330 C.3   180  ILE180      0.0022
    119  CD1      131.1350  123.5540  -23.1800 C.3   180  ILE180      0.0001
    120  N        126.0820  120.7250   -6.3920 N.3   225  GLN225     -0.1231
    121  CA       126.2970  119.2920   -6.5670 C.3   225  GLN225      0.1698
    122  C        126.5210  118.9020   -8.0290 C.2   225  GLN225      0.2593
    123  O        125.7340  119.2610   -8.9080 O.2   225  GLN225     -0.2718
    124  CB       125.1070  118.5000   -5.9950 C.3   225  GLN225      0.0381
    125  CG       125.0300  118.6060   -4.4720 C.3   225  GLN225      0.0905
    126  CD       123.9310  117.7560   -3.8570 C.2   225  GLN225      0.2608
    127  OE1      122.9970  117.3300   -4.5560 O.2   225  GLN225     -0.2717
    128  NE2      124.0240  117.5090   -2.5670 N.am  225  GLN225     -0.0878
    129  N        127.6110  118.1810   -8.2840 N.am  226  GLY226     -0.1942
    130  CA       127.9050  117.7090   -9.6310 C.3   226  GLY226      0.2014
    131  C        129.0270  118.4430  -10.3540 C.2   226  GLY226      0.2638
    132  O        129.6210  117.9010  -11.2850 O.2   226  GLY226     -0.2714
    133  N        129.3160  119.6790   -9.9540 N.am  227  ILE227     -0.1977
    134  CA       130.4650  120.3750  -10.5250 C.3   227  ILE227      0.1596
    135  C        131.4840  120.7180   -9.4320 C.2   227  ILE227      0.2287
    136  O        131.2570  120.4390   -8.2580 O.2   227  ILE227     -0.2864
    137  CB       130.0370  121.6480  -11.2750 C.3   227  ILE227      0.0276
    138  CG1      129.5930  122.7490  -10.3140 C.3   227  ILE227      0.0022
    139  CG2      128.9180  121.3410  -12.2760 C.3   227  ILE227      0.0022
    140  CD1      129.3170  124.0930  -11.0330 C.3   227  ILE227      0.0001
    141  N        123.0780  122.5410  -10.1870 N.3   270  SER270     -0.1217
    142  CA       124.0940  122.8830  -11.1810 C.3   270  SER270      0.1889
    143  C        123.4530  123.4830  -12.4380 C.2   270  SER270      0.2288
    144  O        124.0920  124.2500  -13.1610 O.2   270  SER270     -0.2866
    145  CB       124.9430  121.6540  -11.5400 C.3   270  SER270      0.2089
    146  OG       124.2100  120.7450  -12.3380 O.3   270  SER270     -0.2183
    147  N        122.0220  119.7990  -16.4440 N.3   297  PRO297     -0.2102
    148  CA       122.4590  118.4110  -16.2070 C.3   297  PRO297      0.1504
    149  C        121.4330  117.4880  -15.5740 C.2   297  PRO297      0.2576
    150  O        121.4230  116.3000  -15.9090 O.2   297  PRO297     -0.2718
    151  CB       123.6340  118.5760  -15.2480 C.3   297  PRO297      0.0282
    152  CG       124.1690  119.9730  -15.5340 C.3   297  PRO297      0.0208
    153  CD       122.9410  120.7870  -15.8410 C.3   297  PRO297      0.0893
    154  N        120.6060  118.0050  -14.6660 N.am  298  SER298     -0.1953
    155  CA       119.7080  117.1450  -13.8940 C.3   298  SER298      0.1924
    156  C        118.3890  117.8150  -13.4960 C.2   298  SER298      0.2314
    157  O        118.1890  119.0170  -13.7170 O.2   298  SER298     -0.2863
    158  CB       120.4370  116.6560  -12.6390 C.3   298  SER298      0.2116
    159  OG       120.7900  117.7470  -11.8040 O.3   298  SER298     -0.2180
    160  N        116.8640  116.5180   -5.7050 N.3   303  TYR303     -0.1241
    161  CA       117.4680  117.4680   -4.7800 C.3   303  TYR303      0.1605
    162  C        116.4920  117.9480   -3.7060 C.2   303  TYR303      0.2264
    163  O        116.7400  118.9540   -3.0370 O.2   303  TYR303     -0.2867
    164  CB       118.0400  118.6600   -5.5570 C.3   303  TYR303      0.0534
    165  CG       119.0160  118.2460   -6.6410 C.ar  303  TYR303     -0.0201
    166  CD1      118.5610  117.8440   -7.8920 C.ar  303  TYR303     -0.0009
    167  CD2      120.3970  118.2480   -6.4130 C.ar  303  TYR303     -0.0009
    168  CE1      119.4490  117.4470   -8.8900 C.ar  303  TYR303      0.0417
    169  CE2      121.2920  117.8620   -7.4060 C.ar  303  TYR303      0.0417
    170  CZ       120.8120  117.4560   -8.6420 C.ar  303  TYR303      0.1957
    171  OH       121.6780  117.0560   -9.6450 O.3   303  TYR303     -0.2866
@<TRIPOS>BOND
     1    69    68    2
     2    68    67    1
     3    67    66    1
     4    67    70    1
     5    70    71    1
     6   115   114    2
     7   109   108    2
     8   114   113    1
     9    71    72   ar
    10    71    73   ar
    11    72    74   ar
    12   119   117    1
    13    61    60    2
    14   105   104    2
    15   113   112    1
    16   113   116    1
    17   117   116    1
    18    60    59    1
    19    73    75   ar
    20   108   112   am
    21   108   107    1
    22    58    59    1
    23    74    75   ar
    24   116   118    1
    25   107   106    1
    26   107   110    1
    27    59    62    1
    28   104   106   am
    29   104   103    1
    30   110   111    1
    31   103   102    1
    32   101   100    2
    33    62    63    1
    34    64    63    2
    35     7     5    1
    36    63    65   am
    37     4     3    2
    38   100   102   am
    39   100    99    1
    40     5     2    1
    41     5     6    1
    42     2     3    1
    43     2     1    1
    44     3     8   am
    45    99    98    1
    46    11    10    2
    47    10     9    1
    48     8     9    1
    49    86    84    1
    50     9    12    1
    51    98    93   am
    52    76    77    1
    53    96    95    1
    54    94    93    2
    55    79    78    2
    56    52    51    2
    57    16    15    1
    58   147   148    1
    59   147   153    1
    60    93    92    1
    61   148   149    1
    62   148   151    1
    63    14    15    1
    64    14    13    1
    65    78    77    1
    66    78    80   am
    67   150   149    2
    68   153   152    1
    69    95    92    1
    70    95    97    1
    71    51    50    1
    72    84    85    1
    73    84    81    1
    74   149   154   am
    75    50    53    1
    76    50    49    1
    77   152   151    1
    78    12    13    1
    79    81    80    1
    80    81    82    1
    81    92    91    1
    82    53    54    1
    83   154   155    1
    84    91    89   am
    85    87    82   am
    86    87    88    1
    87    82    83    2
    88   155   156    1
    89   155   158    1
    90    56    55    2
    91   157   156    2
    92    36    35    1
    93    89    88    1
    94    89    90    2
    95    37    35    1
    96    54    55    1
    97   144   143    2
    98    55    57   am
    99    35    32    1
   100    34    33    2
   101    32    33    1
   102    32    31    1
   103   158   159    1
   104    26    25    2
   105   143   142    1
   106   146   145    1
   107   139   137    1
   108    31    25   am
   109    25    24    1
   110    27    28    1
   111    27    24    1
   112   145   142    1
   113    30    28   am
   114   132   131    2
   115    28    29    2
   116   137   134    1
   117   137   138    1
   118   142   141    1
   119    24    23    1
   120   140   138    1
   121   134   133    1
   122   134   135    1
   123   131   133   am
   124   131   130    1
   125   171   170    1
   126   130   129    1
   127   135   136    2
   128   123   122    2
   129   168   170   ar
   130   168   166   ar
   131   170   169   ar
   132    22    21    1
   133   129   122   am
   134   122   121    1
   135    48    46    1
   136   166   165   ar
   137    17    18    1
   138   169   167   ar
   139    21    18    1
   140    19    18    1
   141    19    20    2
   142    46    45    2
   143    46    47    1
   144    45    44    1
   145   165   167   ar
   146   165   164    1
   147   121   120    1
   148   121   124    1
   149    43    44    1
   150    43    42    1
   151   124   125    1
   152   160   161    1
   153   164   161    1
   154    42    39    1
   155    39    38    1
   156    39    40    1
   157   161   162    1
   158    41    40    2
   159   127   126    2
   160   125   126    1
   161   126   128   am
   162   162   163    2
