@<TRIPOS>MOLECULE
tmp/4zu7E00.pdb
 99 94 0 0 0
SMALL
GASTEIGER

@<TRIPOS>ATOM
      1  N        -10.0120  -14.2340   23.5830 N.3    34  ARG34      -0.1245
      2  CA       -10.1590  -15.4830   22.9130 C.3    34  ARG34       0.1563
      3  C         -9.5760  -16.6380   23.7170 C.2    34  ARG34       0.2260
      4  O         -8.5600  -16.5060   24.3560 O.2    34  ARG34      -0.2867
      5  CB        -9.4400  -15.3900   21.5780 C.3    34  ARG34       0.0307
      6  CG        -9.4960  -16.6960   20.8060 C.3    34  ARG34       0.0489
      7  CD        -9.0010  -16.5750   19.3740 C.3    34  ARG34       0.2205
      8  NE        -7.7300  -15.8590   19.2930 N.pl3  34  ARG34      -0.0865
      9  CZ        -6.6130  -16.3370   18.7510 C.cat  34  ARG34       0.5346
     10  NH1       -5.5340  -15.5780   18.7150 N.pl3  34  ARG34       0.1354
     11  NH2       -6.5670  -17.5680   18.2700 N.pl3  34  ARG34       0.1354
     12  N         -8.8210  -20.9350   23.0400 N.3    36  TYR36      -0.1241
     13  CA        -8.9850  -22.1680   22.2820 C.3    36  TYR36       0.1605
     14  C         -8.3390  -23.3820   23.0170 C.2    36  TYR36       0.2264
     15  O         -7.6240  -23.2160   24.0290 O.2    36  TYR36      -0.2867
     16  CB        -8.5160  -22.0040   20.8240 C.3    36  TYR36       0.0534
     17  CG        -7.0420  -21.8450   20.5840 C.ar   36  TYR36      -0.0201
     18  CD1       -6.2560  -22.9420   20.3060 C.ar   36  TYR36      -0.0009
     19  CD2       -6.4400  -20.5890   20.5720 C.ar   36  TYR36      -0.0009
     20  CE1       -4.8880  -22.8120   20.0690 C.ar   36  TYR36       0.0417
     21  CE2       -5.0710  -20.4390   20.3440 C.ar   36  TYR36       0.0417
     22  CZ        -4.2990  -21.5570   20.0940 C.ar   36  TYR36       0.1957
     23  OH        -2.9570  -21.4640   19.8580 O.3    36  TYR36      -0.2866
     24  N         -6.9210  -27.6020   22.2560 N.3    38  ILE38      -0.1245
     25  CA        -6.5680  -28.7120   21.4140 C.3    38  ILE38       0.1561
     26  C         -6.8090  -30.0050   22.1850 C.2    38  ILE38       0.2260
     27  O         -6.5680  -30.0720   23.4030 O.2    38  ILE38      -0.2867
     28  CB        -5.0890  -28.6140   21.0150 C.3    38  ILE38       0.0252
     29  CG1       -4.9450  -27.5290   19.9540 C.3    38  ILE38       0.0019
     30  CG2       -4.5710  -29.9330   20.4490 C.3    38  ILE38       0.0019
     31  CD1       -3.5960  -26.8600   19.9770 C.3    38  ILE38       0.0001
     32  N          2.5270  -30.2560   16.5890 N.3    47  ARG47      -0.1231
     33  CA         1.6700  -29.1140   16.2510 C.3    47  ARG47       0.1694
     34  C          2.4300  -27.7950   16.4970 C.2    47  ARG47       0.2592
     35  O          3.4890  -27.7830   17.1690 O.2    47  ARG47      -0.2718
     36  CB         0.4500  -29.0930   17.1970 C.3    47  ARG47       0.0321
     37  CG        -0.6030  -30.1630   16.9700 C.3    47  ARG47       0.0489
     38  CD        -1.9500  -29.7600   17.5570 C.3    47  ARG47       0.2205
     39  NE        -2.6780  -28.8030   16.7130 N.pl3  47  ARG47      -0.0865
     40  CZ        -3.8840  -28.9950   16.1570 C.cat  47  ARG47       0.5346
     41  NH1       -4.4100  -28.0470   15.3970 N.pl3  47  ARG47       0.1354
     42  NH2       -4.5680  -30.1160   16.3270 N.pl3  47  ARG47       0.1354
     43  N          1.8660  -26.6850   16.0100 N.am   48  GLY48      -0.1957
     44  CA         2.4190  -25.3520   16.2520 C.3    48  GLY48       0.1869
     45  C          3.1320  -24.8590   15.0160 C.2    48  GLY48       0.2309
     46  O          2.4940  -24.4920   14.0260 O.2    48  GLY48      -0.2863
     47  N          4.8390  -22.0240   14.5940 N.3    50  HIS50      -0.1241
     48  CA         4.5400  -20.6180   14.2830 C.3    50  HIS50       0.1621
     49  C          4.9520  -19.6160   15.3540 C.2    50  HIS50       0.2264
     50  O          5.2540  -19.9900   16.4880 O.2    50  HIS50      -0.2867
     51  CB         3.0530  -20.4470   13.9350 C.3    50  HIS50       0.0745
     52  CG         2.1130  -21.0190   14.9490 C.ar   50  HIS50       0.0817
     53  ND1        1.9940  -20.5120   16.2320 N.ar   50  HIS50      -0.2268
     54  CD2        1.2110  -22.0260   14.8560 C.ar   50  HIS50       0.1154
     55  CE1        1.0780  -21.1980   16.8920 C.ar   50  HIS50       0.1986
     56  NE2        0.5880  -22.1240   16.0810 N.ar   50  HIS50      -0.2212
     57  N          4.4460  -27.8930   19.6200 N.3    98  MET98      -0.1245
     58  CA         3.9650  -28.7160   20.7010 C.3    98  MET98       0.1570
     59  C          3.9590  -30.1990   20.3270 C.2    98  MET98       0.2261
     60  O          3.4960  -30.5800   19.2370 O.2    98  MET98      -0.2867
     61  CB         2.5720  -28.2710   21.1300 C.3    98  MET98       0.0387
     62  CG         2.3810  -26.7530   21.2360 C.3    98  MET98       0.0595
     63  SD         1.5130  -26.0380   19.8180 S.3    98  MET98      -0.1393
     64  CE        -0.1340  -26.6920   20.1500 C.3    98  MET98       0.0692
     65  N         -8.5400  -14.2410   16.5410 N.3   115  TYR115     -0.1241
     66  CA        -7.8350  -14.8490   15.4320 C.3   115  TYR115      0.1605
     67  C         -7.5200  -13.8390   14.3570 C.2   115  TYR115      0.2264
     68  O         -8.4070  -13.1660   13.8420 O.2   115  TYR115     -0.2867
     69  CB        -8.6780  -15.9370   14.8210 C.3   115  TYR115      0.0534
     70  CG        -7.9840  -16.7170   13.7500 C.ar  115  TYR115     -0.0201
     71  CD1       -6.8040  -17.4130   14.0150 C.ar  115  TYR115     -0.0009
     72  CD2       -8.5100  -16.7860   12.4700 C.ar  115  TYR115     -0.0009
     73  CE1       -6.1740  -18.1500   13.0250 C.ar  115  TYR115      0.0417
     74  CE2       -7.8780  -17.5080   11.4800 C.ar  115  TYR115      0.0417
     75  CZ        -6.7130  -18.1890   11.7550 C.ar  115  TYR115      0.1957
     76  OH        -6.1050  -18.9200   10.7510 O.3   115  TYR115     -0.2866
     77  N          0.1820  -14.1780   12.3440 N.3   120  TYR120     -0.1241
     78  CA         0.9500  -15.4210   12.3940 C.3   120  TYR120      0.1605
     79  C          2.1860  -15.3270   11.4880 C.2   120  TYR120      0.2264
     80  O          2.1150  -14.7190   10.4120 O.2   120  TYR120     -0.2867
     81  CB         0.1180  -16.5970   11.8620 C.3   120  TYR120      0.0534
     82  CG        -0.8330  -17.2790   12.8330 C.ar  120  TYR120     -0.0201
     83  CD1       -2.0540  -16.6990   13.1730 C.ar  120  TYR120     -0.0009
     84  CD2       -0.5300  -18.5280   13.3720 C.ar  120  TYR120     -0.0009
     85  CE1       -2.9340  -17.3320   14.0210 C.ar  120  TYR120      0.0417
     86  CE2       -1.4010  -19.1610   14.2310 C.ar  120  TYR120      0.0417
     87  CZ        -2.6040  -18.5630   14.5480 C.ar  120  TYR120      0.1957
     88  OH        -3.4690  -19.1920   15.3970 O.3   120  TYR120     -0.2866
     89  N          4.3680  -18.4660    9.8680 N.3   122  ARG122     -0.1245
     90  CA         4.3580  -19.9390    9.7660 C.3   122  ARG122      0.1563
     91  C          5.5980  -20.5140    9.0490 C.2   122  ARG122      0.2260
     92  O          5.8190  -21.7250    9.0930 O.2   122  ARG122     -0.2867
     93  CB         3.0780  -20.4150    9.0550 C.3   122  ARG122      0.0307
     94  CG         1.7730  -20.0280    9.7450 C.3   122  ARG122      0.0489
     95  CD         0.5430  -20.5060    8.9690 C.3   122  ARG122      0.2205
     96  NE        -0.7250  -20.2860    9.6880 N.pl3 122  ARG122     -0.0865
     97  CZ        -1.1810  -21.0300   10.7130 C.cat 122  ARG122      0.5346
     98  NH1       -0.4950  -22.0730   11.1740 N.pl3 122  ARG122      0.1354
     99  NH2       -2.3440  -20.7220   11.2930 N.pl3 122  ARG122      0.1354
@<TRIPOS>BOND
     1    95    96    1
     2    95    94    1
     3    91    92    2
     4    91    90    1
     5    93    94    1
     6    93    90    1
     7    96    97    2
     8    90    89    1
     9    80    79    2
    10    97    98    1
    11    97    99    1
    12    76    75    1
    13    74    75   ar
    14    74    72   ar
    15    79    78    1
    16    75    73   ar
    17    81    78    1
    18    81    82    1
    19    77    78    1
    20    72    70   ar
    21    82    83   ar
    22    82    84   ar
    23    73    71   ar
    24    83    85   ar
    25    84    86   ar
    26    70    71   ar
    27    70    69    1
    28    68    67    2
    29    51    48    1
    30    51    52    1
    31    85    87   ar
    32    46    45    2
    33    86    87   ar
    34    48    47    1
    35    48    49    1
    36    67    66    1
    37    87    88    1
    38    69    66    1
    39    54    52   ar
    40    54    56   ar
    41    52    53   ar
    42    45    44    1
    43    49    50    2
    44    41    40    1
    45    66    65    1
    46    43    44    1
    47    43    34   am
    48    56    55   ar
    49    40    42    1
    50    40    39    2
    51    53    55   ar
    52    33    34    1
    53    33    32    1
    54    33    36    1
    55    34    35    2
    56    39    38    1
    57    37    36    1
    58    37    38    1
    59    11     9    1
    60    10     9    1
    61     9     8    2
    62    60    59    2
    63     8     7    1
    64     7     6    1
    65    57    58    1
    66    63    64    1
    67    63    62    1
    68    23    22    1
    69    29    31    1
    70    29    28    1
    71    20    22   ar
    72    20    18   ar
    73    22    21   ar
    74    18    17   ar
    75    59    58    1
    76    21    19   ar
    77    30    28    1
    78    19    17   ar
    79    17    16    1
    80    58    61    1
    81     6     5    1
    82    16    13    1
    83    28    25    1
    84    61    62    1
    85    25    26    1
    86    25    24    1
    87     5     2    1
    88    26    27    2
    89    13    14    1
    90    13    12    1
    91     2     1    1
    92     2     3    1
    93    14    15    2
    94     3     4    2
