@<TRIPOS>MOLECULE
tmp/4zu9A00.pdb
 152 148 0 0 0
SMALL
GASTEIGER

@<TRIPOS>ATOM
      1  N        -12.0930   25.0210   29.1960 N.3    11  VAL11      -0.1231
      2  CA       -11.8680   23.8910   28.3160 C.3    11  VAL11       0.1692
      3  C        -10.9370   22.8460   28.9240 C.2    11  VAL11       0.2592
      4  O         -9.9760   23.1670   29.5880 O.2    11  VAL11      -0.2718
      5  CB       -11.3510   24.3940   26.9640 C.3    11  VAL11       0.0266
      6  CG1      -10.3700   25.5470   27.1600 C.3    11  VAL11       0.0020
      7  CG2      -10.7960   23.2460   26.1000 C.3    11  VAL11       0.0020
      8  N        -11.2880   21.5850   28.7140 N.am   12  ASP12      -0.1960
      9  CA       -10.6250   20.4230   29.3030 C.3    12  ASP12       0.1840
     10  C        -10.7010   20.3900   30.8270 C.2    12  ASP12       0.2622
     11  O         -9.9400   19.6710   31.4570 O.2    12  ASP12      -0.2715
     12  CB        -9.1610   20.3350   28.8530 C.3    12  ASP12       0.1450
     13  CG        -9.0140   19.7430   27.4600 C.2    12  ASP12       0.3671
     14  OD1      -10.0190   19.1970   26.9330 O.co2  12  ASP12      -0.2456
     15  OD2       -7.8940   19.8160   26.8990 O.co2  12  ASP12      -0.2456
     16  N        -11.6340   21.1230   31.4270 N.am   13  HIS13      -0.1959
     17  CA       -11.7540   21.0950   32.8830 C.3    13  HIS13       0.1787
     18  C        -12.5930   19.9410   33.4220 C.2    13  HIS13       0.2621
     19  O        -12.7680   19.8090   34.6280 O.2    13  HIS13      -0.2715
     20  CB       -12.3310   22.4090   33.4130 C.3    13  HIS13       0.0785
     21  CG       -11.2980   23.4430   33.7370 C.ar   13  HIS13       0.0821
     22  ND1      -11.5440   24.5080   34.5780 N.ar   13  HIS13      -0.2267
     23  CD2      -10.0130   23.5810   33.3240 C.ar   13  HIS13       0.1154
     24  CE1      -10.4590   25.2530   34.6680 C.ar   13  HIS13       0.1986
     25  NE2       -9.5160   24.7110   33.9140 N.ar   13  HIS13      -0.2212
     26  N        -13.1280   19.1090   32.5490 N.am   14  GLY14      -0.1940
     27  CA       -13.7600   17.8880   33.0100 C.3    14  GLY14       0.2014
     28  C        -15.2650   17.8540   32.9100 C.2    14  GLY14       0.2639
     29  O        -15.8800   16.9710   33.5150 O.2    14  GLY14      -0.2714
     30  N        -15.8380   18.7950   32.1490 N.am   15  LYS15      -0.1963
     31  CA       -17.2980   18.9390   32.0020 C.3    15  LYS15       0.1728
     32  C        -17.9620   17.6490   31.5850 C.2    15  LYS15       0.2617
     33  O        -18.7120   17.0320   32.3480 O.2    15  LYS15      -0.2715
     34  CB       -17.6580   20.0220   30.9670 C.3    15  LYS15       0.0311
     35  CG       -17.6580   21.4430   31.5190 C.3    15  LYS15       0.0038
     36  CD       -18.0290   22.5140   30.4930 C.3    15  LYS15       0.0206
     37  CE       -16.9840   22.6750   29.3930 C.3    15  LYS15       0.1093
     38  NZ       -15.5640   22.7860   29.8320 N.3    15  LYS15      -0.1314
     39  N        -17.6630   17.2580   30.3540 N.am   16  THR16      -0.1937
     40  CA       -18.2820   16.1170   29.7080 C.3    16  THR16       0.2028
     41  C        -18.0400   14.7960   30.4130 C.2    16  THR16       0.2642
     42  O        -18.9580   13.9980   30.5880 O.2    16  THR16      -0.2714
     43  CB       -17.7820   16.0030   28.3030 C.3    16  THR16       0.1808
     44  OG1      -17.7950   17.3130   27.7240 O.3    16  THR16      -0.2208
     45  CG2      -18.6880   15.0890   27.5320 C.3    16  THR16       0.0379
     46  N        -16.7990   14.5720   30.8080 N.am   17  THR17      -0.1950
     47  CA       -16.4420   13.3880   31.5630 C.3    17  THR17       0.1897
     48  C        -17.2670   13.2580   32.8240 C.2    17  THR17       0.2313
     49  O        -17.5880   12.1590   33.2510 O.2    17  THR17      -0.2863
     50  CB       -14.9820   13.4080   31.9780 C.3    17  THR17       0.1794
     51  OG1      -14.2180   14.1900   31.0450 O.3    17  THR17      -0.2208
     52  CG2      -14.4590   11.9850   32.0780 C.3    17  THR17       0.0378
     53  N        -15.0720   13.8040   18.7630 N.3    33  GLU33      -0.1245
     54  CA       -14.7100   13.9820   20.1550 C.3    33  GLU33       0.1567
     55  C        -13.7200   12.9430   20.6100 C.2    33  GLU33       0.2260
     56  O        -12.6010   13.2680   20.9900 O.2    33  GLU33      -0.2867
     57  CB       -15.9350   13.9020   21.0570 C.3    33  GLU33       0.0388
     58  CG       -15.6550   14.2900   22.5300 C.3    33  GLU33       0.1160
     59  CD       -15.0710   13.1670   23.3770 C.2    33  GLU33       0.3649
     60  OE1      -15.4430   11.9970   23.1610 O.co2  33  GLU33      -0.2457
     61  OE2      -14.2360   13.4600   24.2590 O.co2  33  GLU33      -0.2457
     62  N        -10.8630   14.2420   22.1990 N.3    37  GLY37      -0.1210
     63  CA       -11.1100   14.2960   23.6290 C.3    37  GLY37       0.1956
     64  C        -11.7820   15.6010   24.0110 C.2    37  GLY37       0.2612
     65  O        -11.6410   16.0690   25.1450 O.2    37  GLY37      -0.2717
     66  N        -12.5160   16.1890   23.0670 N.am   38  LEU38      -0.1965
     67  CA       -13.1070   17.5140   23.2680 C.3    38  LEU38       0.1728
     68  C        -14.5350   17.6350   22.7520 C.2    38  LEU38       0.2616
     69  O        -14.8570   17.1250   21.6920 O.2    38  LEU38      -0.2715
     70  CB       -12.2420   18.5720   22.5860 C.3    38  LEU38       0.0311
     71  CG       -12.1550   18.5510   21.0610 C.3    38  LEU38       0.0022
     72  CD1      -13.1790   19.5040   20.4230 C.3    38  LEU38       0.0001
     73  CD2      -10.7500   18.9340   20.6930 C.3    38  LEU38       0.0001
     74  N        -15.3910   18.3390   23.4720 N.am   39  SER39      -0.1950
     75  CA       -16.7370   18.5010   22.9690 C.3    39  SER39       0.1924
     76  C        -16.8330   19.7000   22.0300 C.2    39  SER39       0.2314
     77  O        -16.2780   20.7640   22.2800 O.2    39  SER39      -0.2863
     78  CB       -17.7170   18.5950   24.1210 C.3    39  SER39       0.2116
     79  OG       -17.8640   17.2980   24.6780 O.3    39  SER39      -0.2180
     80  N        -21.9250   21.9420   27.7620 N.3    61  VAL61      -0.1231
     81  CA       -21.4870   22.9820   26.8630 C.3    61  VAL61       0.1678
     82  C        -20.0190   22.7850   26.4220 C.2    61  VAL61       0.2434
     83  O        -19.2410   22.1010   27.0800 O.2    61  VAL61      -0.2733
     84  CB       -21.7430   24.3420   27.5560 C.3    61  VAL61       0.0265
     85  CG1      -20.7980   25.4060   27.1330 C.3    61  VAL61       0.0020
     86  CG2      -23.1350   24.7800   27.2910 C.3    61  VAL61       0.0020
     87  N        -19.6570   23.3170   25.2550 N.am   62  PRO62      -0.2718
     88  CA       -18.2540   23.2120   24.8840 C.3    62  PRO62       0.1535
     89  C        -17.3960   24.3300   25.4890 C.2    62  PRO62       0.2599
     90  O        -17.7570   25.5310   25.5420 O.2    62  PRO62      -0.2715
     91  CB       -18.3010   23.3020   23.3680 C.3    62  PRO62       0.0310
     92  CG       -19.4990   24.1650   23.1070 C.3    62  PRO62       0.0237
     93  CD       -20.5000   23.7870   24.1440 C.3    62  PRO62       0.0939
     94  N        -16.2200   23.8860   25.9290 N.am   63  GLY63      -0.1941
     95  CA       -15.2250   24.7200   26.5630 C.3    63  GLY63       0.2014
     96  C        -14.6510   25.8140   25.7080 C.2    63  GLY63       0.2638
     97  O        -14.9250   26.9770   25.9830 O.2    63  GLY63      -0.2714
     98  N        -13.8840   25.4480   24.6820 N.am   64  HIS64      -0.1973
     99  CA       -13.0320   26.4100   23.9680 C.3    64  HIS64       0.1656
    100  C        -13.7800   27.7020   23.6390 C.2    64  HIS64       0.2291
    101  O        -14.9830   27.7130   23.4360 O.2    64  HIS64      -0.2864
    102  CB       -12.4410   25.7800   22.6860 C.3    64  HIS64       0.0771
    103  CG       -11.1680   26.4360   22.1920 C.ar   64  HIS64       0.0820
    104  ND1      -10.9620   27.8020   22.2010 N.ar   64  HIS64      -0.2267
    105  CD2      -10.0510   25.8990   21.6470 C.ar   64  HIS64       0.1154
    106  CE1       -9.7770   28.0790   21.6900 C.ar   64  HIS64       0.1986
    107  NE2       -9.2020   26.9450   21.3440 N.ar   64  HIS64      -0.2212
    108  N        -13.3560   19.3970   40.1000 N.3   114  THR114     -0.1203
    109  CA       -13.2750   18.0810   39.4650 C.3   114  THR114      0.1994
    110  C        -11.8760   17.4850   39.5290 C.2   114  THR114      0.2617
    111  O        -10.9280   18.1540   39.9050 O.2   114  THR114     -0.2717
    112  CB       -13.7170   18.1570   37.9810 C.3   114  THR114      0.1784
    113  OG1      -12.8570   19.0470   37.2560 O.3   114  THR114     -0.2211
    114  CG2      -15.1470   18.6660   37.8760 C.3   114  THR114      0.0376
    115  N        -11.7500   16.2240   39.1490 N.am  115  LYS115     -0.1979
    116  CA       -10.4390   15.5870   39.0190 C.3   115  LYS115      0.1596
    117  C         -9.7060   15.5250   40.3440 C.2   115  LYS115      0.2287
    118  O         -8.4970   15.7110   40.3990 O.2   115  LYS115     -0.2864
    119  CB        -9.5770   16.3230   37.9890 C.3   115  LYS115      0.0298
    120  CG       -10.2690   16.5620   36.6680 C.3   115  LYS115      0.0038
    121  CD        -9.4650   17.4780   35.7780 C.3   115  LYS115      0.0206
    122  CE        -9.9130   17.3900   34.3350 C.3   115  LYS115      0.1093
    123  NZ        -8.8130   17.8240   33.4380 N.3   115  LYS115     -0.1314
    124  N         -9.0040   13.0840   41.9540 N.3   116  ASP116     -0.1225
    125  CA        -8.0510   11.9960   41.8820 C.3   116  ASP116      0.1805
    126  C         -6.6630   12.4920   41.4330 C.2   116  ASP116      0.2597
    127  O         -5.6560   11.8890   41.7720 O.2   116  ASP116     -0.2718
    128  CB        -8.5730   10.9060   40.9400 C.3   116  ASP116      0.1424
    129  CG        -8.7870   11.4000   39.5090 C.2   116  ASP116      0.3668
    130  OD1       -9.8560   11.9740   39.2290 O.co2 116  ASP116     -0.2456
    131  OD2       -7.8970   11.2010   38.6560 O.co2 116  ASP116     -0.2456
    132  N         -6.6170   13.6010   40.6980 N.am  117  LYS117     -0.1979
    133  CA        -5.3740   14.1060   40.1070 C.3   117  LYS117      0.1596
    134  C         -4.7780   15.2790   40.9190 C.2   117  LYS117      0.2287
    135  O         -3.8420   15.9360   40.4720 O.2   117  LYS117     -0.2864
    136  CB        -5.6370   14.5270   38.6410 C.3   117  LYS117      0.0298
    137  CG        -4.4130   14.5280   37.7170 C.3   117  LYS117      0.0038
    138  CD        -4.7640   14.4770   36.2160 C.3   117  LYS117      0.0206
    139  CE        -3.4930   14.2850   35.3480 C.3   117  LYS117      0.1093
    140  NZ        -3.7340   13.8590   33.9240 N.3   117  LYS117     -0.1314
    141  N        -14.7150   12.4720   38.7270 N.3   146  ALA146     -0.1231
    142  CA       -15.5280   11.7740   37.7320 C.3   146  ALA146      0.1694
    143  C        -15.0330   10.3340   37.5330 C.2   146  ALA146      0.2591
    144  O        -15.8160    9.4230   37.2780 O.2   146  ALA146     -0.2718
    145  CB       -15.5210   12.5440   36.4120 C.3   146  ALA146      0.0304
    146  N        -13.7300   10.1460   37.7080 N.am  147  VAL147     -0.1980
    147  CA       -13.0600    8.8650   37.5270 C.3   147  VAL147      0.1595
    148  C        -13.1160    7.9060   38.7470 C.2   147  VAL147      0.2287
    149  O        -13.6640    6.8150   38.6370 O.2   147  VAL147     -0.2864
    150  CB       -11.6220    9.1320   37.1380 C.3   147  VAL147      0.0276
    151  CG1      -10.8570    7.8530   37.0890 C.3   147  VAL147      0.0022
    152  CG2      -11.5800    9.8430   35.8060 C.3   147  VAL147      0.0022
@<TRIPOS>BOND
     1    53    54    1
     2    54    55    1
     3    54    57    1
     4    72    71    1
     5    55    56    2
     6    73    71    1
     7    57    58    1
     8    71    70    1
     9   107   105   ar
    10   107   106   ar
    11   105   103   ar
    12   106   104   ar
    13    69    68    2
    14    76    77    2
    15    76    75    1
    16   103   104   ar
    17   103   102    1
    18    62    63    1
    19    58    59    1
    20    70    67    1
    21   102    99    1
    22    68    67    1
    23    68    74   am
    24    75    74    1
    25    75    78    1
    26    66    67    1
    27    66    64   am
    28    92    91    1
    29    92    93    1
    30    60    59   ar
    31    91    88    1
    32    59    61   ar
    33   101   100    2
    34    63    64    1
    35   100    99    1
    36    99    98    1
    37    64    65    2
    38    78    79    1
    39    93    87    1
    40    98    96   am
    41    88    87    1
    42    88    89    1
    43    87    82   am
    44    89    90    2
    45    89    94   am
    46    96    97    2
    47    96    95    1
    48    94    95    1
    49     7     5    1
    50    82    81    1
    51    82    83    2
    52    81    84    1
    53    81    80    1
    54    15    13   ar
    55    14    13   ar
    56     5     6    1
    57     5     2    1
    58    85    84    1
    59    86    84    1
    60    13    12    1
    61    45    43    1
    62    44    43    1
    63    43    40    1
    64     2     3    1
    65     2     1    1
    66     8     3   am
    67     8     9    1
    68    12     9    1
    69     3     4    2
    70     9    10    1
    71    37    38    1
    72    37    36    1
    73    40    39    1
    74    40    41    1
    75    39    32   am
    76    41    42    2
    77    41    46   am
    78    36    35    1
    79    46    47    1
    80    10    16   am
    81    10    11    2
    82    34    35    1
    83    34    31    1
    84    51    50    1
    85    16    17    1
    86    47    50    1
    87    47    48    1
    88    32    31    1
    89    32    33    2
    90    50    52    1
    91    31    30    1
    92    30    28   am
    93    26    27    1
    94    26    18   am
    95    48    49    2
    96    17    20    1
    97    17    18    1
    98    28    27    1
    99    28    29    2
   100    23    21   ar
   101    23    25   ar
   102    20    21    1
   103    18    19    2
   104   123   122    1
   105    21    22   ar
   106    25    24   ar
   107   140   139    1
   108   122   121    1
   109    22    24   ar
   110   139   138    1
   111   121   120    1
   112   152   150    1
   113   138   137    1
   114   145   142    1
   115   120   119    1
   116   151   150    1
   117   150   147    1
   118   113   112    1
   119   144   143    2
   120   147   146    1
   121   147   148    1
   122   143   146   am
   123   143   142    1
   124   137   136    1
   125   142   141    1
   126   114   112    1
   127   112   109    1
   128   119   116    1
   129   149   148    2
   130   136   133    1
   131   131   129   ar
   132   116   115    1
   133   116   117    1
   134   115   110   am
   135   130   129   ar
   136   109   110    1
   137   109   108    1
   138   129   128    1
   139   110   111    2
   140   133   132    1
   141   133   134    1
   142   117   118    2
   143   135   134    2
   144   132   126   am
   145   128   125    1
   146   126   127    2
   147   126   125    1
   148   125   124    1
