@<TRIPOS>MOLECULE
tmp/4zudA00.pdb
 243 237 0 0 0
SMALL
GASTEIGER

@<TRIPOS>ATOM
      1  N        -53.9510   69.9840   27.9150 N.3   125  ILE125     -0.1245
      2  CA       -52.5750   69.7550   28.3720 C.3   125  ILE125      0.1561
      3  C        -51.7750   71.0540   28.5380 C.2   125  ILE125      0.2260
      4  O        -51.1030   71.2190   29.5650 O.2   125  ILE125     -0.2867
      5  CB       -51.8180   68.7520   27.4540 C.3   125  ILE125      0.0252
      6  CG1      -52.5100   67.3700   27.4590 C.3   125  ILE125      0.0019
      7  CG2      -50.3430   68.6210   27.8530 C.3   125  ILE125      0.0019
      8  CD1      -52.5740   66.6670   28.8070 C.3   125  ILE125      0.0001
      9  N        -50.3480   72.5120   32.0220 N.3   129  TYR129     -0.1241
     10  CA       -48.9220   72.9090   32.0690 C.3   129  TYR129      0.1605
     11  C        -48.7020   74.3870   32.4650 C.2   129  TYR129      0.2264
     12  O        -47.7130   74.7130   33.1320 O.2   129  TYR129     -0.2867
     13  CB       -48.2420   72.6410   30.7140 C.3   129  TYR129      0.0534
     14  CG       -47.7960   71.2070   30.4660 C.ar  129  TYR129     -0.0201
     15  CD1      -48.5220   70.1160   30.9490 C.ar  129  TYR129     -0.0009
     16  CD2      -46.6560   70.9400   29.7090 C.ar  129  TYR129     -0.0009
     17  CE1      -48.1080   68.8160   30.7010 C.ar  129  TYR129      0.0417
     18  CE2      -46.2470   69.6350   29.4610 C.ar  129  TYR129      0.0417
     19  CZ       -46.9790   68.5800   29.9610 C.ar  129  TYR129      0.1957
     20  OH       -46.5950   67.2810   29.7290 O.3   129  TYR129     -0.2866
     21  N        -36.9430   72.4110   36.8500 N.3   171  PHE171     -0.1241
     22  CA       -37.9620   71.7670   36.0260 C.3   171  PHE171      0.1605
     23  C        -38.9130   72.7970   35.4410 C.2   171  PHE171      0.2264
     24  O        -39.1040   72.8490   34.2250 O.2   171  PHE171     -0.2867
     25  CB       -38.7570   70.7560   36.8610 C.3   171  PHE171      0.0534
     26  CG       -39.9280   70.1570   36.1410 C.ar  171  PHE171     -0.0203
     27  CD1      -41.1850   70.7560   36.2030 C.ar  171  PHE171     -0.0042
     28  CD2      -39.7800   68.9910   35.3990 C.ar  171  PHE171     -0.0042
     29  CE1      -42.2710   70.1960   35.5410 C.ar  171  PHE171     -0.0003
     30  CE2      -40.8630   68.4290   34.7290 C.ar  171  PHE171     -0.0003
     31  CZ       -42.1120   69.0280   34.8040 C.ar  171  PHE171     -0.0000
     32  N        -41.0130   74.0660   31.4120 N.3   175  LEU175     -0.1245
     33  CA       -42.4070   73.6800   31.0770 C.3   175  LEU175      0.1561
     34  C        -43.0480   74.4370   29.9110 C.2   175  LEU175      0.2260
     35  O        -43.5900   73.7930   29.0100 O.2   175  LEU175     -0.2867
     36  CB       -43.3430   73.7590   32.2950 C.3   175  LEU175      0.0270
     37  CG       -43.4470   72.5670   33.2520 C.3   175  LEU175      0.0019
     38  CD1      -44.6350   72.8100   34.1690 C.3   175  LEU175      0.0001
     39  CD2      -43.5960   71.2250   32.5420 C.3   175  LEU175      0.0001
     40  N        -42.8850   72.7850   26.6140 N.3   178  TRP178     -0.1241
     41  CA       -43.7390   71.6100   26.3840 C.3   178  TRP178      0.1605
     42  C        -45.2250   71.9740   26.3170 C.2   178  TRP178      0.2264
     43  O        -46.0060   71.3040   25.6280 O.2   178  TRP178     -0.2867
     44  CB       -43.5230   70.5740   27.4800 C.3   178  TRP178      0.0550
     45  CG       -42.1130   70.0910   27.6080 C.ar  178  TRP178      0.0003
     46  CD1      -41.2520   70.3520   28.6270 C.ar  178  TRP178      0.0946
     47  CD2      -41.4110   69.2440   26.6950 C.ar  178  TRP178      0.0152
     48  NE1      -40.0510   69.7240   28.4080 N.ar  178  TRP178     -0.2442
     49  CE2      -40.1220   69.0350   27.2260 C.ar  178  TRP178      0.0810
     50  CE3      -41.7440   68.6440   25.4700 C.ar  178  TRP178      0.0012
     51  CZ2      -39.1580   68.2480   26.5750 C.ar  178  TRP178      0.0191
     52  CZ3      -40.7870   67.8600   24.8260 C.ar  178  TRP178      0.0001
     53  CH2      -39.5110   67.6730   25.3800 C.ar  178  TRP178      0.0015
     54  N        -45.4320   73.3110   22.7470 N.3   181  TYR181     -0.1227
     55  CA       -45.2330   72.0930   21.9450 C.3   181  TYR181      0.1736
     56  C        -46.5620   71.3700   21.7300 C.2   181  TYR181      0.2596
     57  O        -46.9930   71.1680   20.5900 O.2   181  TYR181     -0.2718
     58  CB       -44.2300   71.1720   22.6470 C.3   181  TYR181      0.0548
     59  CG       -43.9000   69.8960   21.9200 C.ar  181  TYR181     -0.0200
     60  CD1      -43.5000   69.9240   20.5900 C.ar  181  TYR181     -0.0009
     61  CD2      -43.9410   68.6590   22.5710 C.ar  181  TYR181     -0.0009
     62  CE1      -43.1800   68.7570   19.9050 C.ar  181  TYR181      0.0417
     63  CE2      -43.6250   67.4860   21.8970 C.ar  181  TYR181      0.0417
     64  CZ       -43.2460   67.5440   20.5660 C.ar  181  TYR181      0.1957
     65  OH       -42.9190   66.3980   19.8930 O.3   181  TYR181     -0.2866
     66  N        -47.2250   71.0410   22.8350 N.am  182  THR182     -0.1953
     67  CA       -48.5380   70.3880   22.8070 C.3   182  THR182      0.1897
     68  C        -49.6430   71.3090   22.2620 C.2   182  THR182      0.2313
     69  O        -50.5530   70.8430   21.5760 O.2   182  THR182     -0.2863
     70  CB       -48.9310   69.8940   24.2150 C.3   182  THR182      0.1794
     71  OG1      -47.8200   69.1990   24.8100 O.3   182  THR182     -0.2208
     72  CG2      -50.1380   68.9700   24.1550 C.3   182  THR182      0.0378
     73  N        -48.2750   69.1420   18.8430 N.3   186  TYR186     -0.1241
     74  CA       -46.9750   68.4570   18.8000 C.3   186  TYR186      0.1605
     75  C        -46.0890   68.8940   17.6150 C.2   186  TYR186      0.2264
     76  O        -45.9330   68.1520   16.6350 O.2   186  TYR186     -0.2867
     77  CB       -47.1430   66.9210   18.8030 C.3   186  TYR186      0.0534
     78  CG       -47.9330   66.3430   19.9670 C.ar  186  TYR186     -0.0201
     79  CD1      -47.7820   66.8320   21.2720 C.ar  186  TYR186     -0.0009
     80  CD2      -48.8070   65.2710   19.7690 C.ar  186  TYR186     -0.0009
     81  CE1      -48.5040   66.2960   22.3260 C.ar  186  TYR186      0.0417
     82  CE2      -49.5180   64.7150   20.8250 C.ar  186  TYR186      0.0417
     83  CZ       -49.3690   65.2320   22.1000 C.ar  186  TYR186      0.1957
     84  OH       -50.0840   64.6880   23.1520 O.3   186  TYR186     -0.2866
     85  N        -35.5130   68.1550   27.8780 N.3   199  SER199     -0.1217
     86  CA       -35.8310   66.7380   28.0700 C.3   199  SER199      0.1889
     87  C        -34.9630   66.1250   29.1610 C.2   199  SER199      0.2288
     88  O        -35.4030   65.2350   29.8920 O.2   199  SER199     -0.2866
     89  CB       -35.6270   65.9810   26.7620 C.3   199  SER199      0.2089
     90  OG       -36.3940   66.5780   25.7290 O.3   199  SER199     -0.2183
     91  N        -36.5650   67.1980   32.7880 N.3   202  VAL202     -0.1231
     92  CA       -37.6990   66.4530   33.3700 C.3   202  VAL202      0.1692
     93  C        -37.2930   65.0520   33.8570 C.2   202  VAL202      0.2592
     94  O        -37.8690   64.5380   34.8180 O.2   202  VAL202     -0.2718
     95  CB       -38.9180   66.3850   32.4230 C.3   202  VAL202      0.0266
     96  CG1      -39.2030   67.7500   31.8040 C.3   202  VAL202      0.0020
     97  CG2      -38.7270   65.3510   31.3430 C.3   202  VAL202      0.0020
     98  N        -36.3220   64.4340   33.1900 N.am  203  SER203     -0.1952
     99  CA       -35.6740   63.2360   33.7240 C.3   203  SER203      0.1924
    100  C        -34.9640   63.5590   35.0370 C.2   203  SER203      0.2314
    101  O        -35.0730   62.7990   36.0010 O.2   203  SER203     -0.2863
    102  CB       -34.6790   62.6680   32.7160 C.3   203  SER203      0.2116
    103  OG       -35.3510   62.2850   31.5290 O.3   203  SER203     -0.2180
    104  N        -37.2160   63.6710   38.0840 N.3   206  LEU206     -0.1231
    105  CA       -37.5710   62.3310   38.5550 C.3   206  LEU206      0.1693
    106  C        -36.4730   61.7170   39.4200 C.2   206  LEU206      0.2592
    107  O        -36.7550   61.2230   40.5220 O.2   206  LEU206     -0.2718
    108  CB       -37.8950   61.4130   37.3760 C.3   206  LEU206      0.0284
    109  CG       -38.1410   59.9230   37.6470 C.3   206  LEU206      0.0019
    110  CD1      -39.1870   59.7010   38.7370 C.3   206  LEU206      0.0001
    111  CD2      -38.5240   59.2400   36.3400 C.3   206  LEU206      0.0001
    112  N        -35.2300   61.7480   38.9330 N.am  207  TYR207     -0.1976
    113  CA       -34.0980   61.1710   39.6790 C.3   207  TYR207      0.1639
    114  C        -33.7390   62.0190   40.8900 C.2   207  TYR207      0.2290
    115  O        -33.6070   61.4910   41.9940 O.2   207  TYR207     -0.2864
    116  CB       -32.8850   60.9230   38.7680 C.3   207  TYR207      0.0560
    117  CG       -33.1970   59.8830   37.7060 C.ar  207  TYR207     -0.0198
    118  CD1      -33.3750   58.5420   38.0500 C.ar  207  TYR207     -0.0009
    119  CD2      -33.3750   60.2440   36.3690 C.ar  207  TYR207     -0.0009
    120  CE1      -33.7010   57.5900   37.0940 C.ar  207  TYR207      0.0417
    121  CE2      -33.6950   59.2990   35.4030 C.ar  207  TYR207      0.0417
    122  CZ       -33.8580   57.9730   35.7740 C.ar  207  TYR207      0.1957
    123  OH       -34.1660   57.0310   34.8240 O.3   207  TYR207     -0.2866
    124  N        -29.0270   60.1980   28.9320 N.3   249  PRO249     -0.2102
    125  CA       -29.7370   59.6730   27.7530 C.3   249  PRO249      0.1504
    126  C        -30.6800   60.6540   27.0530 C.2   249  PRO249      0.2575
    127  O        -30.9500   60.4790   25.8640 O.2   249  PRO249     -0.2718
    128  CB       -30.5270   58.4950   28.3260 C.3   249  PRO249      0.0282
    129  CG       -29.6740   58.0120   29.4410 C.3   249  PRO249      0.0208
    130  CD       -29.1960   59.2870   30.0790 C.3   249  PRO249      0.0893
    131  N        -31.1840   61.6550   27.7760 N.am  250  ALA250     -0.1980
    132  CA       -31.9410   62.7570   27.1630 C.3   250  ALA250      0.1597
    133  C        -31.0590   63.6400   26.2710 C.2   250  ALA250      0.2287
    134  O        -31.5190   64.1260   25.2510 O.2   250  ALA250     -0.2864
    135  CB       -32.6080   63.6090   28.2270 C.3   250  ALA250      0.0319
    136  N        -32.1680   62.4730   22.1100 N.3   254  ARG254     -0.1245
    137  CA       -33.2080   63.4390   21.7340 C.3   254  ARG254      0.1563
    138  C        -32.7630   64.3090   20.5710 C.2   254  ARG254      0.2260
    139  O        -31.7280   64.9710   20.6560 O.2   254  ARG254     -0.2867
    140  CB       -33.5500   64.3630   22.9010 C.3   254  ARG254      0.0307
    141  CG       -34.4200   63.7260   23.9700 C.3   254  ARG254      0.0489
    142  CD       -35.8830   63.9120   23.6200 C.3   254  ARG254      0.2205
    143  NE       -36.7720   63.0720   24.4160 N.pl3 254  ARG254     -0.0865
    144  CZ       -38.0900   63.2430   24.5300 C.cat 254  ARG254      0.5346
    145  NH1      -38.7160   64.2410   23.9060 N.pl3 254  ARG254      0.1354
    146  NH2      -38.7930   62.4050   25.2860 N.pl3 254  ARG254      0.1354
    147  N        -39.8160   66.6730   18.5890 N.3   267  CYS267     -0.1235
    148  CA       -38.6470   66.4860   19.4940 C.3   267  CYS267      0.1677
    149  C        -38.7300   65.1220   20.1990 C.2   267  CYS267      0.2270
    150  O        -39.1780   65.0230   21.3440 O.2   267  CYS267     -0.2867
    151  CB       -38.5670   67.6320   20.5220 C.3   267  CYS267      0.0956
    152  SG       -37.3930   67.4610   21.9140 S.3   267  CYS267     -0.0801
    153  N        -37.3410   60.9110   21.0600 N.3   269  PHE269     -0.1241
    154  CA       -36.2400   60.0280   21.4380 C.3   269  PHE269      0.1605
    155  C        -35.9210   59.1000   20.2700 C.2   269  PHE269      0.2264
    156  O        -36.8360   58.6100   19.6030 O.2   269  PHE269     -0.2867
    157  CB       -36.6520   59.1970   22.6600 C.3   269  PHE269      0.0534
    158  CG       -35.5010   58.5740   23.3960 C.ar  269  PHE269     -0.0203
    159  CD1      -35.0360   57.3100   23.0550 C.ar  269  PHE269     -0.0042
    160  CD2      -34.8910   59.2430   24.4450 C.ar  269  PHE269     -0.0042
    161  CE1      -33.9780   56.7310   23.7350 C.ar  269  PHE269     -0.0003
    162  CE2      -33.8370   58.6680   25.1370 C.ar  269  PHE269     -0.0003
    163  CZ       -33.3760   57.4110   24.7760 C.ar  269  PHE269     -0.0000
    164  N        -34.5020   55.4580   19.4620 N.3   271  TYR271     -0.1241
    165  CA       -34.2860   54.1750   20.1340 C.3   271  TYR271      0.1605
    166  C        -33.2910   53.3020   19.3770 C.2   271  TYR271      0.2264
    167  O        -32.3280   52.8000   19.9710 O.2   271  TYR271     -0.2867
    168  CB       -35.6190   53.4390   20.3030 C.3   271  TYR271      0.0534
    169  CG       -36.5690   54.1260   21.2670 C.ar  271  TYR271     -0.0201
    170  CD1      -37.4580   55.1150   20.8290 C.ar  271  TYR271     -0.0009
    171  CD2      -36.5770   53.7900   22.6230 C.ar  271  TYR271     -0.0009
    172  CE1      -38.3260   55.7460   21.7140 C.ar  271  TYR271      0.0417
    173  CE2      -37.4430   54.4120   23.5140 C.ar  271  TYR271      0.0417
    174  CZ       -38.3140   55.3870   23.0610 C.ar  271  TYR271      0.1957
    175  OH       -39.1660   55.9960   23.9560 O.3   271  TYR271     -0.2866
    176  N        -34.0730   51.9490   34.6560 N.3   283  LYS283     -0.1245
    177  CA       -34.5950   53.2040   35.2230 C.3   283  LYS283      0.1561
    178  C        -35.7690   52.9980   36.1880 C.2   283  LYS283      0.2260
    179  O        -35.8870   53.7250   37.1750 O.2   283  LYS283     -0.2867
    180  CB       -34.9830   54.2220   34.1310 C.3   283  LYS283      0.0271
    181  CG       -35.7440   53.7090   32.9150 C.3   283  LYS283      0.0035
    182  CD       -36.2330   54.8620   32.0390 C.3   283  LYS283      0.0206
    183  CE       -35.8940   54.6690   30.5640 C.3   283  LYS283      0.1093
    184  NZ       -34.4610   54.9690   30.2740 N.3   283  LYS283     -0.1314
    185  N        -47.1200   58.4500   40.1960 N.3   325  TRP325     -0.1241
    186  CA       -46.3700   57.7150   39.1610 C.3   325  TRP325      0.1605
    187  C        -46.9480   56.3420   38.7910 C.2   325  TRP325      0.2264
    188  O        -46.4980   55.7340   37.8160 O.2   325  TRP325     -0.2867
    189  CB       -44.8870   57.5880   39.5560 C.3   325  TRP325      0.0550
    190  CG       -44.0690   58.7350   39.0690 C.ar  325  TRP325      0.0003
    191  CD1      -43.8440   59.9190   39.7070 C.ar  325  TRP325      0.0946
    192  CD2      -43.3840   58.8160   37.8180 C.ar  325  TRP325      0.0152
    193  NE1      -43.0510   60.7320   38.9320 N.ar  325  TRP325     -0.2442
    194  CE2      -42.7490   60.0760   37.7690 C.ar  325  TRP325      0.0810
    195  CE3      -43.2370   57.9390   36.7340 C.ar  325  TRP325      0.0012
    196  CZ2      -41.9800   60.4850   36.6760 C.ar  325  TRP325      0.0191
    197  CZ3      -42.4670   58.3450   35.6470 C.ar  325  TRP325      0.0001
    198  CH2      -41.8510   59.6070   35.6270 C.ar  325  TRP325      0.0015
    199  N        -49.0240   56.5790   35.3280 N.3   328  HIS328     -0.1241
    200  CA       -48.1060   56.7060   34.1930 C.3   328  HIS328      0.1621
    201  C        -47.2800   55.4520   33.9440 C.2   328  HIS328      0.2264
    202  O        -47.1460   55.0310   32.7940 O.2   328  HIS328     -0.2867
    203  CB       -47.1740   57.9070   34.3800 C.3   328  HIS328      0.0745
    204  CG       -46.4210   58.2820   33.1430 C.ar  328  HIS328      0.0817
    205  ND1      -45.0600   58.4910   33.1350 N.ar  328  HIS328     -0.2268
    206  CD2      -46.8360   58.4670   31.8690 C.ar  328  HIS328      0.1154
    207  CE1      -44.6690   58.8000   31.9130 C.ar  328  HIS328      0.1986
    208  NE2      -45.7260   58.7840   31.1240 N.ar  328  HIS328     -0.2212
    209  N        -51.1600   59.1750   27.7460 N.3   356  MET356     -0.1231
    210  CA       -49.7840   59.5120   28.1290 C.3   356  MET356      0.1687
    211  C        -49.6130   60.9530   28.6430 C.2   356  MET356      0.2434
    212  O        -49.2100   61.1270   29.7970 O.2   356  MET356     -0.2733
    213  CB       -48.7970   59.1850   26.9840 C.3   356  MET356      0.0400
    214  CG       -48.4280   57.7100   26.8850 C.3   356  MET356      0.0596
    215  SD       -46.9220   57.2850   27.7750 S.3   356  MET356     -0.1393
    216  CE       -45.6830   57.7560   26.5650 C.3   356  MET356      0.0692
    217  N        -49.9360   61.9830   27.8200 N.am  357  PRO357     -0.2729
    218  CA       -49.8650   63.3770   28.2990 C.3   357  PRO357      0.1401
    219  C        -50.5080   63.6090   29.6570 C.2   357  PRO357      0.2269
    220  O        -49.9420   64.3230   30.4900 O.2   357  PRO357     -0.2865
    221  CB       -50.6530   64.1560   27.2440 C.3   357  PRO357      0.0296
    222  CG       -50.5710   63.3400   26.0120 C.3   357  PRO357      0.0237
    223  CD       -50.3030   61.9170   26.3940 C.3   357  PRO357      0.0939
    224  N        -48.6050   62.0100   32.4690 N.3   360  ILE360     -0.1245
    225  CA       -47.3800   62.8050   32.6550 C.3   360  ILE360      0.1561
    226  C        -47.6380   64.0650   33.4830 C.2   360  ILE360      0.2260
    227  O        -46.7930   64.4340   34.2980 O.2   360  ILE360     -0.2867
    228  CB       -46.7320   63.1750   31.2960 C.3   360  ILE360      0.0252
    229  CG1      -46.2410   61.9100   30.5830 C.3   360  ILE360      0.0019
    230  CG2      -45.5510   64.1300   31.4710 C.3   360  ILE360      0.0019
    231  CD1      -46.2020   62.0290   29.0780 C.3   360  ILE360      0.0001
    232  N        -45.8520   64.9940   37.2870 N.3   364  TYR364     -0.1241
    233  CA       -45.1520   66.2600   37.5040 C.3   364  TYR364      0.1605
    234  C        -46.0500   67.3740   38.0820 C.2   364  TYR364      0.2264
    235  O        -45.6250   68.5250   38.1770 O.2   364  TYR364     -0.2867
    236  CB       -44.4800   66.6700   36.1880 C.3   364  TYR364      0.0534
    237  CG       -43.3350   65.7310   35.8340 C.ar  364  TYR364     -0.0201
    238  CD1      -42.0920   65.8640   36.4450 C.ar  364  TYR364     -0.0009
    239  CD2      -43.5030   64.6940   34.9210 C.ar  364  TYR364     -0.0009
    240  CE1      -41.0420   65.0090   36.1450 C.ar  364  TYR364      0.0417
    241  CE2      -42.4580   63.8280   34.6160 C.ar  364  TYR364      0.0417
    242  CZ       -41.2300   63.9900   35.2340 C.ar  364  TYR364      0.1957
    243  OH       -40.1860   63.1430   34.9440 O.3   364  TYR364     -0.2866
@<TRIPOS>BOND
     1    76    75    2
     2    75    74    1
     3   147   148    1
     4    74    77    1
     5    74    73    1
     6    77    78    1
     7   166   167    2
     8   166   165    1
     9   164   165    1
    10   148   149    1
    11   148   151    1
    12   156   155    2
    13    80    78   ar
    14    80    82   ar
    15    65    64    1
    16    62    64   ar
    17    62    60   ar
    18    78    79   ar
    19   165   168    1
    20   149   150    2
    21   155   154    1
    22   168   169    1
    23   151   152    1
    24    64    63   ar
    25   138   139    2
    26   138   137    1
    27    57    56    2
    28    60    59   ar
    29    82    83   ar
    30   170   169   ar
    31   170   172   ar
    32   153   154    1
    33   169   171   ar
    34    79    81   ar
    35   154   157    1
    36    69    68    2
    37   172   174   ar
    38    56    55    1
    39    56    66   am
    40   137   136    1
    41   137   140    1
    42    63    61   ar
    43    59    61   ar
    44    59    58    1
    45    55    58    1
    46    55    54    1
    47    83    81   ar
    48    83    84    1
    49    68    67    1
    50   171   173   ar
    51   157   158    1
    52    67    66    1
    53    67    70    1
    54   140   141    1
    55   159   158   ar
    56   159   161   ar
    57   174   173   ar
    58   174   175    1
    59   158   160   ar
    60   142   141    1
    61   142   143    1
    62   161   163   ar
    63   145   144    1
    64    72    70    1
    65    70    71    1
    66   143   144    2
    67   160   162   ar
    68   144   146    1
    69   163   162   ar
    70    52    53   ar
    71    52    50   ar
    72   134   133    2
    73    53    51   ar
    74    50    47   ar
    75    43    42    2
    76    90    89    1
    77   127   126    2
    78   222   223    1
    79   222   221    1
    80   133   132    1
    81    42    41    1
    82    41    40    1
    83    41    44    1
    84   223   217    1
    85   216   215    1
    86    51    49   ar
    87    47    49   ar
    88    47    45   ar
    89    89    86    1
    90   214   213    1
    91   214   215    1
    92   213   210    1
    93   126   125    1
    94   126   131   am
    95   132   131    1
    96   132   135    1
    97    49    48   ar
    98   221   218    1
    99     5     6    1
   100     5     7    1
   101     5     2    1
   102     6     8    1
   103    44    45    1
   104    45    46   ar
   105   209   210    1
   106   125   128    1
   107   125   124    1
   108   217   218    1
   109   217   211   am
   110    85    86    1
   111     1     2    1
   112    86    87    1
   113   210   211    1
   114   218   219    1
   115   128   129    1
   116     2     3    1
   117    48    46   ar
   118     3     4    2
   119   211   212    2
   120   124   130    1
   121    35    34    2
   122   231   229    1
   123    87    88    2
   124   129   130    1
   125    18    16   ar
   126    18    19   ar
   127   219   220    2
   128    16    14   ar
   129    20    19    1
   130    34    33    1
   131    19    17   ar
   132   184   183    1
   133    14    13    1
   134    14    15   ar
   135   183   182    1
   136   229   228    1
   137    17    15   ar
   138    13    10    1
   139    33    32    1
   140    33    36    1
   141   208   206   ar
   142   208   207   ar
   143   228   230    1
   144   228   225    1
   145    97    95    1
   146   103   102    1
   147    96    95    1
   148   206   204   ar
   149   207   205   ar
   150     9    10    1
   151   182   181    1
   152    10    11    1
   153    36    37    1
   154    95    92    1
   155    11    12    2
   156   224   225    1
   157    39    37    1
   158   225   226    1
   159   102    99    1
   160    91    92    1
   161   202   201    2
   162   181   180    1
   163   205   204   ar
   164   204   203    1
   165    98    99    1
   166    98    93   am
   167    37    38    1
   168    92    93    1
   169   226   227    2
   170    99   100    1
   171    93    94    2
   172   201   200    1
   173   180   177    1
   174   200   203    1
   175   200   199    1
   176    24    23    2
   177   241   239   ar
   178   241   242   ar
   179   176   177    1
   180    30    31   ar
   181    30    28   ar
   182    31    29   ar
   183   123   122    1
   184   239   237   ar
   185   243   242    1
   186   100   101    2
   187   177   178    1
   188   242   240   ar
   189    28    26   ar
   190   121   122   ar
   191   121   119   ar
   192    23    22    1
   193    29    27   ar
   194   198   197   ar
   195   198   196   ar
   196   197   195   ar
   197   122   120   ar
   198   237   236    1
   199   237   238   ar
   200    22    21    1
   201    22    25    1
   202    26    27   ar
   203    26    25    1
   204   240   238   ar
   205   236   233    1
   206   178   179    2
   207   111   109    1
   208   119   117   ar
   209   196   194   ar
   210   195   192   ar
   211   120   118   ar
   212   232   233    1
   213   108   109    1
   214   108   105    1
   215   233   234    1
   216   109   110    1
   217   117   118   ar
   218   117   116    1
   219   194   192   ar
   220   194   193   ar
   221   188   187    2
   222   192   190   ar
   223   234   235    2
   224   104   105    1
   225   105   106    1
   226   116   113    1
   227   187   186    1
   228   193   191   ar
   229   112   106   am
   230   112   113    1
   231   190   189    1
   232   190   191   ar
   233   186   189    1
   234   186   185    1
   235   106   107    2
   236   113   114    1
   237   114   115    2
