@<TRIPOS>MOLECULE
tmp/4zukF01.pdb
 140 134 0 0 0
SMALL
GASTEIGER

@<TRIPOS>ATOM
      1  N         52.6200   93.4260   49.6580 N.3   161  ILE161     -0.1231
      2  CA        53.7000   92.4840   49.4100 C.3   161  ILE161      0.1692
      3  C         54.6930   93.1760   48.4940 C.2   161  ILE161      0.2593
      4  O         54.3150   93.7380   47.4630 O.2   161  ILE161     -0.2718
      5  CB        53.1930   91.1730   48.7800 C.3   161  ILE161      0.0266
      6  CG1       52.3060   90.4340   49.7770 C.3   161  ILE161      0.0019
      7  CG2       54.3560   90.2820   48.3600 C.3   161  ILE161      0.0020
      8  CD1       51.5310   89.2700   49.1640 C.3   161  ILE161      0.0001
      9  N         55.9550   93.1830   48.9100 N.am  162  THR162     -0.1939
     10  CA        57.0170   93.8570   48.1600 C.3   162  THR162      0.2028
     11  C         58.1400   92.8900   47.7940 C.2   162  THR162      0.2642
     12  O         58.1870   91.7690   48.2910 O.2   162  THR162     -0.2714
     13  CB        57.5930   95.0310   48.9580 C.3   162  THR162      0.1808
     14  OG1       58.1130   94.5530   50.2050 O.3   162  THR162     -0.2208
     15  CG2       56.4890   96.0660   49.2420 C.3   162  THR162      0.0379
     16  N         59.0370   93.3360   46.9210 N.am  163  ALA163     -0.1963
     17  CA        60.0900   92.4900   46.3780 C.3   163  ALA163      0.1728
     18  C         61.4550   92.8680   46.9420 C.2   163  ALA163      0.2616
     19  O         61.5820   93.8450   47.6820 O.2   163  ALA163     -0.2715
     20  CB        60.1030   92.5900   44.8600 C.3   163  ALA163      0.0334
     21  N         62.4870   92.1200   46.5680 N.am  164  PHE164     -0.1974
     22  CA        63.8160   92.3690   47.1200 C.3   164  PHE164      0.1639
     23  C         64.4400   93.6720   46.6180 C.2   164  PHE164      0.2290
     24  O         65.1940   94.3300   47.3380 O.2   164  PHE164     -0.2864
     25  CB        64.7430   91.1910   46.8130 C.3   164  PHE164      0.0560
     26  CG        65.2480   91.1540   45.3930 C.ar  164  PHE164     -0.0200
     27  CD1       64.5020   90.5590   44.3910 C.ar  164  PHE164     -0.0042
     28  CD2       66.4870   91.7040   45.0630 C.ar  164  PHE164     -0.0042
     29  CE1       64.9700   90.5230   43.0870 C.ar  164  PHE164     -0.0003
     30  CE2       66.9580   91.6760   43.7640 C.ar  164  PHE164     -0.0003
     31  CZ        66.2050   91.0830   42.7710 C.ar  164  PHE164     -0.0000
     32  N         54.2370   92.2700   54.0780 N.3   188  LYS188     -0.1231
     33  CA        55.0270   91.0600   53.9450 C.3   188  LYS188      0.1693
     34  C         56.0850   91.3060   52.8800 C.2   188  LYS188      0.2593
     35  O         55.8070   91.2200   51.6870 O.2   188  LYS188     -0.2718
     36  CB        54.1620   89.8460   53.5760 C.3   188  LYS188      0.0285
     37  CG        54.9470   88.5280   53.6610 C.3   188  LYS188      0.0035
     38  CD        54.5600   87.5380   52.5620 C.3   188  LYS188      0.0206
     39  CE        55.2560   87.8590   51.2460 C.3   188  LYS188      0.1093
     40  NZ        56.7500   87.7240   51.3740 N.3   188  LYS188     -0.1314
     41  N         57.2990   91.6200   53.3160 N.am  189  GLY189     -0.1942
     42  CA        58.3830   91.9150   52.3940 C.3   189  GLY189      0.2014
     43  C         59.0860   90.6750   51.8820 C.2   189  GLY189      0.2639
     44  O         58.7880   89.5570   52.3000 O.2   189  GLY189     -0.2714
     45  N         60.0360   90.8640   50.9730 N.am  190  ALA190     -0.1963
     46  CA        60.8420   89.7370   50.5180 C.3   190  ALA190      0.1713
     47  C         61.6290   89.1780   51.7090 C.2   190  ALA190      0.2458
     48  O         62.1900   89.9380   52.5080 O.2   190  ALA190     -0.2730
     49  CB        61.7780   90.1560   49.3780 C.3   190  ALA190      0.0333
     50  N         61.6510   87.8470   51.8480 N.am  191  PRO191     -0.2727
     51  CA        62.3360   87.1870   52.9680 C.3   191  PRO191      0.1402
     52  C         63.8300   87.5190   53.0300 C.2   191  PRO191      0.2269
     53  O         64.3970   87.5960   54.1190 O.2   191  PRO191     -0.2865
     54  CB        62.1240   85.6980   52.6750 C.3   191  PRO191      0.0296
     55  CG        60.8920   85.6660   51.7860 C.3   191  PRO191      0.0237
     56  CD        61.0020   86.8780   50.9440 C.3   191  PRO191      0.0939
     57  N         57.4070   84.0350   53.6760 N.3   224  GLY224     -0.1210
     58  CA        57.5790   83.7850   52.2580 C.3   224  GLY224      0.1956
     59  C         56.2550   83.5390   51.5590 C.2   224  GLY224      0.2611
     60  O         55.2480   84.1830   51.8690 O.2   224  GLY224     -0.2717
     61  N         56.2550   82.5820   50.6360 N.am  225  ALA225     -0.1979
     62  CA        55.0940   82.3100   49.7930 C.3   225  ALA225      0.1597
     63  C         53.8420   81.9190   50.5850 C.2   225  ALA225      0.2287
     64  O         52.7330   82.2480   50.1820 O.2   225  ALA225     -0.2864
     65  CB        55.4320   81.2260   48.7830 C.3   225  ALA225      0.0319
     66  N         52.2470   85.0620   51.8290 N.3   228  GLY228     -0.1210
     67  CA        51.7970   85.8190   50.6780 C.3   228  GLY228      0.1956
     68  C         50.5430   85.2270   50.0620 C.2   228  GLY228      0.2612
     69  O         49.6380   85.9550   49.6490 O.2   228  GLY228     -0.2717
     70  N         50.4910   83.9000   49.9800 N.am  229  THR229     -0.1952
     71  CA        49.3260   83.2370   49.3990 C.3   229  THR229      0.1897
     72  C         48.1140   83.4290   50.3070 C.2   229  THR229      0.2313
     73  O         47.0060   83.6460   49.8230 O.2   229  THR229     -0.2863
     74  CB        49.5800   81.7310   49.1560 C.3   229  THR229      0.1794
     75  OG1       50.6300   81.5740   48.1910 O.3   229  THR229     -0.2208
     76  CG2       48.3320   81.0580   48.6160 C.3   229  THR229      0.0378
     77  N         46.7010   86.6900   49.7450 N.3   232  ALA232     -0.1245
     78  CA        46.0340   86.7000   48.4580 C.3   232  ALA232      0.1562
     79  C         44.6360   86.0990   48.5610 C.2   232  ALA232      0.2260
     80  O         43.7250   86.4860   47.8220 O.2   232  ALA232     -0.2867
     81  CB        46.8710   85.9440   47.4120 C.3   232  ALA232      0.0290
     82  N         50.5860   94.1430   45.3140 N.3   242  PHE242     -0.1227
     83  CA        51.6770   93.1800   45.0850 C.3   242  PHE242      0.1736
     84  C         52.7240   93.7150   44.1190 C.2   242  PHE242      0.2596
     85  O         52.4150   94.0820   42.9850 O.2   242  PHE242     -0.2718
     86  CB        51.1240   91.8410   44.5530 C.3   242  PHE242      0.0547
     87  CG        52.1950   90.8190   44.2430 C.ar  242  PHE242     -0.0202
     88  CD1       52.7950   90.7700   42.9860 C.ar  242  PHE242     -0.0042
     89  CD2       52.6030   89.9120   45.2040 C.ar  242  PHE242     -0.0042
     90  CE1       53.7810   89.8510   42.7060 C.ar  242  PHE242     -0.0003
     91  CE2       53.5880   88.9800   44.9200 C.ar  242  PHE242     -0.0003
     92  CZ        54.1750   88.9520   43.6760 C.ar  242  PHE242     -0.0000
     93  N         53.9680   93.7560   44.5770 N.am  243  THR243     -0.1939
     94  CA        55.0880   94.0910   43.7150 C.3   243  THR243      0.2028
     95  C         56.0130   92.8850   43.6580 C.2   243  THR243      0.2643
     96  O         56.4950   92.4080   44.6840 O.2   243  THR243     -0.2714
     97  CB        55.8340   95.3300   44.2110 C.3   243  THR243      0.1808
     98  OG1       54.9870   96.4770   44.0680 O.3   243  THR243     -0.2208
     99  CG2       57.1770   95.5390   43.4230 C.3   243  THR243      0.0379
    100  N         56.2310   92.3670   42.4570 N.am  244  GLY244     -0.1939
    101  CA        57.0060   91.1530   42.3100 C.3   244  GLY244      0.2014
    102  C         57.0280   90.6540   40.8860 C.2   244  GLY244      0.2639
    103  O         56.7670   91.4010   39.9390 O.2   244  GLY244     -0.2714
    104  N         57.3460   89.3760   40.7370 N.am  245  SER245     -0.1949
    105  CA        57.4780   88.7690   39.4250 C.3   245  SER245      0.1924
    106  C         56.1300   88.6160   38.7460 C.2   245  SER245      0.2314
    107  O         55.0960   88.4530   39.4030 O.2   245  SER245     -0.2863
    108  CB        58.1630   87.4070   39.5310 C.3   245  SER245      0.2116
    109  OG        57.3240   86.4220   40.1150 O.3   245  SER245     -0.2180
    110  N         54.3660   85.1410   39.6770 N.3   248  VAL248     -0.1245
    111  CA        53.6480   85.1630   40.9530 C.3   248  VAL248      0.1561
    112  C         52.4770   86.1400   40.8990 C.2   248  VAL248      0.2260
    113  O         51.3960   85.8480   41.3930 O.2   248  VAL248     -0.2867
    114  CB        54.5620   85.5540   42.1340 C.3   248  VAL248      0.0252
    115  CG1       53.7720   85.5200   43.4310 C.3   248  VAL248      0.0019
    116  CG2       55.7270   84.6180   42.2310 C.3   248  VAL248      0.0019
    117  N         49.2740   84.8030   39.5630 N.3   251  GLN251     -0.1231
    118  CA        48.5770   83.9050   40.4770 C.3   251  GLN251      0.1698
    119  C         47.9390   84.6810   41.6210 C.2   251  GLN251      0.2592
    120  O         46.8820   84.3030   42.1260 O.2   251  GLN251     -0.2718
    121  CB        49.5330   82.8360   41.0040 C.3   251  GLN251      0.0381
    122  CG        50.0810   81.9460   39.8990 C.3   251  GLN251      0.0905
    123  CD        48.9740   81.3110   39.0640 C.2   251  GLN251      0.2608
    124  OE1       48.0530   80.6930   39.6030 O.2   251  GLN251     -0.2717
    125  NE2       49.0520   81.4730   37.7440 N.am  251  GLN251     -0.0878
    126  N         48.5690   85.7800   42.0240 N.am  252  VAL252     -0.1980
    127  CA        47.9880   86.6220   43.0590 C.3   252  VAL252      0.1595
    128  C         46.7360   87.2990   42.5220 C.2   252  VAL252      0.2287
    129  O         45.7050   87.3230   43.1970 O.2   252  VAL252     -0.2864
    130  CB        48.9670   87.6770   43.5550 C.3   252  VAL252      0.0276
    131  CG1       48.2360   88.7290   44.3820 C.3   252  VAL252      0.0022
    132  CG2       50.0740   87.0240   44.3740 C.3   252  VAL252      0.0022
    133  N         43.8320   84.8200   42.3970 N.3   255  MET255     -0.1245
    134  CA        43.3120   84.5520   43.7370 C.3   255  MET255      0.1570
    135  C         42.4450   85.6920   44.2930 C.2   255  MET255      0.2261
    136  O         41.4090   85.4550   44.9040 O.2   255  MET255     -0.2867
    137  CB        44.4660   84.2700   44.7040 C.3   255  MET255      0.0387
    138  CG        45.1060   82.9100   44.4640 C.3   255  MET255      0.0595
    139  SD        46.4950   82.5650   45.5460 S.3   255  MET255     -0.1393
    140  CE        47.2160   81.1500   44.7140 C.3   255  MET255      0.0692
@<TRIPOS>BOND
     1   125   123   am
     2   106   107    2
     3   106   105    1
     4   123   124    2
     5   123   122    1
     6   105   108    1
     7   105   104    1
     8   108   109    1
     9   117   118    1
    10   110   111    1
    11   122   121    1
    12   103   102    2
    13   118   121    1
    14   118   119    1
    15   104   102   am
    16   102   101    1
    17   112   111    1
    18   112   113    2
    19   111   114    1
    20   119   126   am
    21   119   120    2
    22   126   127    1
    23   114   116    1
    24   114   115    1
    25   101   100    1
    26   133   134    1
    27   100    95   am
    28   128   127    1
    29   128   129    2
    30    90    88   ar
    31    90    92   ar
    32    31    29   ar
    33    31    30   ar
    34    85    84    2
    35    88    87   ar
    36   127   130    1
    37    29    27   ar
    38    99    97    1
    39   130   132    1
    40   130   131    1
    41    95    94    1
    42    95    96    2
    43    92    91   ar
    44    94    97    1
    45    94    93    1
    46   134   135    1
    47   134   137    1
    48    30    28   ar
    49    98    97    1
    50    84    93   am
    51    84    83    1
    52    87    86    1
    53    87    89   ar
    54   135   136    2
    55    27    26   ar
    56   138   137    1
    57   138   139    1
    58    86    83    1
    59   140   139    1
    60    20    17    1
    61    91    89   ar
    62    28    26   ar
    63    83    82    1
    64    26    25    1
    65    17    16    1
    66    17    18    1
    67    21    18   am
    68    21    22    1
    69    23    22    1
    70    23    24    2
    71    25    22    1
    72    16    11   am
    73    18    19    2
    74    81    78    1
    75     4     3    2
    76    11    10    1
    77    11    12    2
    78    80    79    2
    79    10     9    1
    80    10    13    1
    81    75    74    1
    82     7     5    1
    83    78    79    1
    84    78    77    1
    85     3     9   am
    86     3     2    1
    87    76    74    1
    88     5     2    1
    89     5     6    1
    90    65    62    1
    91    13    15    1
    92    13    14    1
    93    74    71    1
    94     8     6    1
    95    49    46    1
    96    71    70    1
    97    71    72    1
    98     2     1    1
    99    69    68    2
   100    62    63    1
   101    62    61    1
   102    73    72    2
   103    70    68   am
   104    68    67    1
   105    64    63    2
   106    46    45    1
   107    46    47    1
   108    61    59   am
   109    67    66    1
   110    56    55    1
   111    56    50    1
   112    45    43   am
   113    39    40    1
   114    39    38    1
   115    59    60    2
   116    59    58    1
   117    35    34    2
   118    47    50   am
   119    47    48    2
   120    55    54    1
   121    50    51    1
   122    43    44    2
   123    43    42    1
   124    58    57    1
   125    42    41    1
   126    38    37    1
   127    54    51    1
   128    34    41   am
   129    34    33    1
   130    51    52    1
   131    52    53    2
   132    36    37    1
   133    36    33    1
   134    33    32    1
