@<TRIPOS>MOLECULE
tmp/4zukC01.pdb
 147 140 0 0 0
SMALL
GASTEIGER

@<TRIPOS>ATOM
      1  N         51.9540   13.7690   29.3970 N.3   161  ILE161     -0.1231
      2  CA        51.7490   12.7290   28.4060 C.3   161  ILE161      0.1692
      3  C         50.7960   13.2730   27.3590 C.2   161  ILE161      0.2593
      4  O         49.7170   13.7830   27.6990 O.2   161  ILE161     -0.2718
      5  CB        51.1830   11.4520   29.0320 C.3   161  ILE161      0.0266
      6  CG1       52.1970   10.8410   30.0060 C.3   161  ILE161      0.0019
      7  CG2       50.7830   10.4450   27.9440 C.3   161  ILE161      0.0020
      8  CD1       51.6780    9.6190   30.7440 C.3   161  ILE161      0.0001
      9  N         51.1940   13.1850   26.0940 N.am  162  THR162     -0.1939
     10  CA        50.4110   13.7790   25.0220 C.3   162  THR162      0.2028
     11  C         50.0240   12.7560   23.9480 C.2   162  THR162      0.2642
     12  O         50.5470   11.6420   23.9060 O.2   162  THR162     -0.2714
     13  CB        51.1610   14.9590   24.3780 C.3   162  THR162      0.1808
     14  OG1       52.4450   14.5240   23.9190 O.3   162  THR162     -0.2208
     15  CG2       51.3580   16.0740   25.3920 C.3   162  THR162      0.0379
     16  N         49.0650   13.1360   23.1080 N.am  163  ALA163     -0.1963
     17  CA        48.5020   12.2410   22.0920 C.3   163  ALA163      0.1728
     18  C         49.1210   12.5000   20.7210 C.2   163  ALA163      0.2616
     19  O         49.8620   13.4710   20.5370 O.2   163  ALA163     -0.2715
     20  CB        46.9760   12.4080   22.0260 C.3   163  ALA163      0.0334
     21  N         48.7970   11.6510   19.7520 N.am  164  PHE164     -0.1974
     22  CA        49.3790   11.7900   18.4260 C.3   164  PHE164      0.1639
     23  C         48.8200   12.9880   17.6640 C.2   164  PHE164      0.2290
     24  O         49.4980   13.5510   16.8130 O.2   164  PHE164     -0.2864
     25  CB        49.1630   10.5110   17.5980 C.3   164  PHE164      0.0560
     26  CG        47.7440   10.3290   17.0920 C.ar  164  PHE164     -0.0200
     27  CD1       47.3180   10.9330   15.9150 C.ar  164  PHE164     -0.0042
     28  CD2       46.8400    9.5450   17.7910 C.ar  164  PHE164     -0.0042
     29  CE1       46.0210   10.7590   15.4600 C.ar  164  PHE164     -0.0003
     30  CE2       45.5420    9.3760   17.3320 C.ar  164  PHE164     -0.0003
     31  CZ        45.1400    9.9840   16.1670 C.ar  164  PHE164     -0.0000
     32  N         56.4760   12.7460   27.8670 N.3   188  LYS188     -0.1245
     33  CA        56.3920   11.5100   27.0970 C.3   188  LYS188      0.1561
     34  C         55.3180   11.6460   26.0310 C.2   188  LYS188      0.2260
     35  O         54.1370   11.6030   26.3500 O.2   188  LYS188     -0.2867
     36  CB        56.0700   10.3100   27.9750 C.3   188  LYS188      0.0271
     37  CG        56.2930    8.9870   27.2490 C.3   188  LYS188      0.0035
     38  CD        55.3830    7.9000   27.7950 C.3   188  LYS188      0.0206
     39  CE        53.9730    8.0340   27.2190 C.3   188  LYS188      0.1093
     40  NZ        53.9220    7.9270   25.7360 N.3   188  LYS188     -0.1314
     41  N         53.3330   10.6980   22.2030 N.3   190  ALA190     -0.1231
     42  CA        52.8900    9.4780   21.5500 C.3   190  ALA190      0.1679
     43  C         54.0730    8.8720   20.7980 C.2   190  ALA190      0.2434
     44  O         54.8240    9.5900   20.1480 O.2   190  ALA190     -0.2733
     45  CB        51.7210    9.7510   20.6000 C.3   190  ALA190      0.0304
     46  N         54.2530    7.5490   20.9020 N.am  191  PRO191     -0.2729
     47  CA        55.3760    6.8900   20.2240 C.3   191  PRO191      0.1401
     48  C         55.4040    7.1810   18.7270 C.2   191  PRO191      0.2269
     49  O         56.4850    7.3210   18.1640 O.2   191  PRO191     -0.2865
     50  CB        55.1210    5.4080   20.4880 C.3   191  PRO191      0.0296
     51  CG        54.3900    5.3990   21.7900 C.3   191  PRO191      0.0237
     52  CD        53.5050    6.6170   21.7600 C.3   191  PRO191      0.0939
     53  N         56.2980    4.2810   25.4510 N.3   224  GLY224     -0.1210
     54  CA        54.8720    4.0240   25.3210 C.3   224  GLY224      0.1956
     55  C         54.1630    3.7910   26.6410 C.2   224  GLY224      0.2611
     56  O         54.3290    4.5590   27.5920 O.2   224  GLY224     -0.2717
     57  N         53.3670    2.7290   26.7030 N.am  225  ALA225     -0.1979
     58  CA        52.5750    2.4410   27.8880 C.3   225  ALA225      0.1597
     59  C         53.4550    2.1720   29.1100 C.2   225  ALA225      0.2287
     60  O         53.0720    2.4950   30.2300 O.2   225  ALA225     -0.2864
     61  CB        51.6360    1.2560   27.6300 C.3   225  ALA225      0.0319
     62  N         54.5300    5.6890   30.3840 N.3   228  GLY228     -0.1210
     63  CA        53.3300    6.3890   30.8070 C.3   228  GLY228      0.1956
     64  C         52.8370    5.8810   32.1530 C.2   228  GLY228      0.2612
     65  O         52.4750    6.6720   33.0140 O.2   228  GLY228     -0.2717
     66  N         52.8560    4.5630   32.3400 N.am  229  THR229     -0.1952
     67  CA        52.3850    3.9660   33.5820 C.3   229  THR229      0.1897
     68  C         53.3230    4.2830   34.7310 C.2   229  THR229      0.2313
     69  O         52.8740    4.5740   35.8420 O.2   229  THR229     -0.2863
     70  CB        52.2230    2.4470   33.4530 C.3   229  THR229      0.1794
     71  OG1       51.2260    2.1710   32.4670 O.3   229  THR229     -0.2208
     72  CG2       51.7840    1.8300   34.7770 C.3   229  THR229      0.0378
     73  N         52.4900    7.5940   35.9650 N.3   232  ALA232     -0.1245
     74  CA        51.2100    7.5930   36.6790 C.3   232  ALA232      0.1562
     75  C         51.3770    7.0730   38.1020 C.2   232  ALA232      0.2260
     76  O         50.6540    7.4780   39.0120 O.2   232  ALA232     -0.2867
     77  CB        50.1650    6.7410   35.9240 C.3   232  ALA232      0.0290
     78  N         47.6460   14.4900   31.4570 N.3   242  PHE242     -0.1227
     79  CA        47.4410   13.4210   30.4940 C.3   242  PHE242      0.1736
     80  C         46.4120   13.7970   29.4440 C.2   242  PHE242      0.2596
     81  O         45.2620   14.1140   29.7640 O.2   242  PHE242     -0.2718
     82  CB        47.0190   12.1150   31.1840 C.3   242  PHE242      0.0547
     83  CG        46.7320   10.9830   30.2150 C.ar  242  PHE242     -0.0202
     84  CD1       45.4710   10.8420   29.6380 C.ar  242  PHE242     -0.0042
     85  CD2       47.7330   10.0780   29.8660 C.ar  242  PHE242     -0.0042
     86  CE1       45.2100    9.8270   28.7300 C.ar  242  PHE242     -0.0003
     87  CE2       47.4930    9.0510   28.9690 C.ar  242  PHE242     -0.0003
     88  CZ        46.2190    8.9220   28.3990 C.ar  242  PHE242     -0.0000
     89  N         46.8420   13.7410   28.1890 N.am  243  THR243     -0.1939
     90  CA        45.9750   13.9440   27.0400 C.3   243  THR243      0.2028
     91  C         45.9540   12.6430   26.2390 C.2   243  THR243      0.2643
     92  O         47.0030   12.1280   25.8180 O.2   243  THR243     -0.2714
     93  CB        46.4600   15.1170   26.1630 C.3   243  THR243      0.1808
     94  OG1       46.5460   16.3200   26.9480 O.3   243  THR243     -0.2208
     95  CG2       45.5340   15.3370   24.9730 C.3   243  THR243      0.0379
     96  N         44.7680   12.0870   26.0540 N.am  244  GLY244     -0.1939
     97  CA        44.6630   10.8290   25.3380 C.3   244  GLY244      0.2014
     98  C         43.2860   10.1960   25.3900 C.2   244  GLY244      0.2639
     99  O         42.2700   10.8780   25.5670 O.2   244  GLY244     -0.2714
    100  N         43.2460    8.8790   25.2300 N.am  245  SER245     -0.1949
    101  CA        41.9750    8.1780   25.1670 C.3   245  SER245      0.1924
    102  C         41.2990    8.1860   26.5350 C.2   245  SER245      0.2314
    103  O         41.9660    8.2850   27.5630 O.2   245  SER245     -0.2863
    104  CB        42.1730    6.7480   24.6570 C.3   245  SER245      0.2116
    105  OG        42.6340    5.8770   25.6730 O.3   245  SER245     -0.2180
    106  N         42.3520    5.0300   28.5760 N.3   248  VAL248     -0.1245
    107  CA        43.6570    5.0890   29.2270 C.3   248  VAL248      0.1561
    108  C         43.6510    6.1440   30.3360 C.2   248  VAL248      0.2260
    109  O         44.1560    5.9030   31.4230 O.2   248  VAL248     -0.2867
    110  CB        44.7770    5.3890   28.2290 C.3   248  VAL248      0.0252
    111  CG1       46.1020    5.6190   28.9660 C.3   248  VAL248      0.0019
    112  CG2       44.9170    4.2410   27.2380 C.3   248  VAL248      0.0019
    113  N         42.3970    5.0070   33.7330 N.3   251  GLN251     -0.1231
    114  CA        43.3750    4.2410   34.5050 C.3   251  GLN251      0.1698
    115  C         44.4660    5.1290   35.0700 C.2   251  GLN251      0.2592
    116  O         44.9140    4.9280   36.1980 O.2   251  GLN251     -0.2718
    117  CB        43.9870    3.1270   33.6560 C.3   251  GLN251      0.0381
    118  CG        42.9640    2.0790   33.2400 C.3   251  GLN251      0.0905
    119  CD        42.0220    1.6730   34.3810 C.2   251  GLN251      0.2608
    120  OE1       40.8020    1.8770   34.3010 O.2   251  GLN251     -0.2717
    121  NE2       42.5800    1.0760   35.4320 N.am  251  GLN251     -0.0878
    122  N         44.8840    6.1220   34.2920 N.am  252  VAL252     -0.1980
    123  CA        45.8700    7.0860   34.7610 C.3   252  VAL252      0.1595
    124  C         45.3340    7.8680   35.9570 C.2   252  VAL252      0.2287
    125  O         46.0420    8.0620   36.9430 O.2   252  VAL252     -0.2864
    126  CB        46.2720    8.0500   33.6390 C.3   252  VAL252      0.0276
    127  CG1       47.0590    9.2210   34.1870 C.3   252  VAL252      0.0022
    128  CG2       47.0730    7.3040   32.5820 C.3   252  VAL252      0.0022
    129  N         45.3870    5.5790   39.0930 N.3   255  MET255     -0.1245
    130  CA        46.7540    5.4270   39.6180 C.3   255  MET255      0.1570
    131  C         47.2480    6.6820   40.3360 C.2   255  MET255      0.2261
    132  O         47.8740    6.6010   41.3930 O.2   255  MET255     -0.2867
    133  CB        47.7270    5.0760   38.4960 C.3   255  MET255      0.0387
    134  CG        47.4960    3.7070   37.9210 C.3   255  MET255      0.0595
    135  SD        48.5730    3.3620   36.5250 S.3   255  MET255     -0.1393
    136  CE        47.9490    1.7610   36.0100 C.3   255  MET255      0.0692
    137  N         37.6740    7.8160   16.1550 N.3   399  PHE399     -0.1241
    138  CA        38.5730    8.8820   15.7250 C.3   399  PHE399      0.1605
    139  C         38.8210    8.8660   14.2180 C.2   399  PHE399      0.2264
    140  O         39.9590    8.7070   13.7540 O.2   399  PHE399     -0.2867
    141  CB        39.9020    8.7840   16.4840 C.3   399  PHE399      0.0534
    142  CG        40.2920   10.0550   17.1860 C.ar  399  PHE399     -0.0203
    143  CD1       39.4090   10.6820   18.0520 C.ar  399  PHE399     -0.0042
    144  CD2       41.5470   10.6130   16.9970 C.ar  399  PHE399     -0.0042
    145  CE1       39.7570   11.8500   18.7070 C.ar  399  PHE399     -0.0003
    146  CE2       41.9060   11.7850   17.6480 C.ar  399  PHE399     -0.0003
    147  CZ        41.0060   12.4030   18.5040 C.ar  399  PHE399     -0.0000
@<TRIPOS>BOND
     1   140   139    2
     2   139   138    1
     3    29    27   ar
     4    29    31   ar
     5   138   137    1
     6   138   141    1
     7    27    26   ar
     8    31    30   ar
     9   141   142    1
    10    24    23    2
    11   144   142   ar
    12   144   146   ar
    13    26    25    1
    14    26    28   ar
    15   142   143   ar
    16    30    28   ar
    17    25    22    1
    18   146   147   ar
    19    23    22    1
    20   143   145   ar
    21    49    48    2
    22    22    21    1
    23   147   145   ar
    24    48    47    1
    25    21    18   am
    26    44    43    2
    27    47    50    1
    28    47    46    1
    29    50    51    1
    30    19    18    2
    31    45    42    1
    32    18    17    1
    33    43    46   am
    34    43    42    1
    35    46    52    1
    36    42    41    1
    37    52    51    1
    38    20    17    1
    39    17    16    1
    40    16    11   am
    41    12    11    2
    42    14    13    1
    43    11    10    1
    44    13    10    1
    45    13    15    1
    46   104   101    1
    47   104   105    1
    48    95    93    1
    49    10     9    1
    50   101   100    1
    51   101   102    1
    52   100    98   am
    53    54    53    1
    54    54    55    1
    55    97    98    1
    56    97    96    1
    57    98    99    2
    58    40    39    1
    59    92    91    2
    60    34    35    2
    61    34    33    1
    62    96    91   am
    63     9     3   am
    64    93    94    1
    65    93    90    1
    66    91    90    1
    67   102   103    2
    68    55    57   am
    69    55    56    2
    70    57    58    1
    71    90    89    1
    72    33    32    1
    73    33    36    1
    74    39    38    1
    75   112   110    1
    76    37    38    1
    77    37    36    1
    78     3     4    2
    79     3     2    1
    80    61    58    1
    81    58    59    1
    82     7     5    1
    83    89    80   am
    84   110   111    1
    85   110   107    1
    86    88    86   ar
    87    88    87   ar
    88     2     5    1
    89     2     1    1
    90   106   107    1
    91    86    84   ar
    92    87    85   ar
    93     5     6    1
    94    59    60    2
    95   107   108    1
    96    80    81    2
    97    80    79    1
    98    84    83   ar
    99    85    83   ar
   100     6     8    1
   101    83    82    1
   102   108   109    2
   103    62    63    1
   104    79    82    1
   105    79    78    1
   106    63    64    1
   107    64    66   am
   108    64    65    2
   109    66    67    1
   110    71    70    1
   111   128   126    1
   112   118   117    1
   113   118   119    1
   114    70    67    1
   115    70    72    1
   116    67    68    1
   117   126   127    1
   118   126   123    1
   119   117   114    1
   120   113   114    1
   121   122   123    1
   122   122   115   am
   123   120   119    2
   124   119   121   am
   125   114   115    1
   126    68    69    2
   127   123   124    1
   128   115   116    2
   129    77    74    1
   130   124   125    2
   131    73    74    1
   132   136   135    1
   133   135   134    1
   134    74    75    1
   135   134   133    1
   136    75    76    2
   137   133   130    1
   138   129   130    1
   139   130   131    1
   140   131   132    2
