@<TRIPOS>MOLECULE
tmp/4zulF00.pdb
 90 87 0 0 0
SMALL
GASTEIGER

@<TRIPOS>ATOM
      1  N         42.2220   94.8660   61.2340 N.3    67  ARG67      -0.1231
      2  CA        40.8510   95.2240   60.9040 C.3    67  ARG67       0.1694
      3  C         40.1680   95.8450   62.1210 C.2    67  ARG67       0.2591
      4  O         39.3090   96.7190   61.9770 O.2    67  ARG67      -0.2718
      5  CB        40.1100   94.0000   60.3500 C.3    67  ARG67       0.0321
      6  CG        40.6190   93.6570   58.9270 C.3    67  ARG67       0.0489
      7  CD        39.9380   92.4330   58.3370 C.3    67  ARG67       0.2205
      8  NE        38.4890   92.6070   58.2680 N.pl3  67  ARG67      -0.0865
      9  CZ        37.8380   93.1550   57.2440 C.cat  67  ARG67       0.5346
     10  NH1       36.5190   93.2720   57.2930 N.pl3  67  ARG67       0.1354
     11  NH2       38.4970   93.5770   56.1720 N.pl3  67  ARG67       0.1354
     12  N         40.5750   95.4420   63.3210 N.am   68  GLU68      -0.1979
     13  CA        40.0760   96.1110   64.5190 C.3    68  GLU68       0.1602
     14  C         40.6540   97.5320   64.6440 C.2    68  GLU68       0.2287
     15  O         39.9590   98.4700   65.0630 O.2    68  GLU68      -0.2864
     16  CB        40.3920   95.2860   65.7760 C.3    68  GLU68       0.0415
     17  CG        39.5780   94.0060   65.8900 C.3    68  GLU68       0.1163
     18  CD        38.0820   94.2420   65.7110 C.2    68  GLU68       0.3649
     19  OE1       37.5090   95.0500   66.4760 O.co2  68  GLU68      -0.2457
     20  OE2       37.4850   93.6250   64.7990 O.co2  68  GLU68      -0.2457
     21  N         41.3920   99.3480   62.1810 N.3    70  TRP70      -0.1227
     22  CA        40.7530  100.1560   61.1470 C.3    70  TRP70       0.1737
     23  C         39.5490  100.9090   61.6970 C.2    70  TRP70       0.2595
     24  O         39.2650  102.0260   61.2660 O.2    70  TRP70      -0.2718
     25  CB        40.3360   99.3010   59.9570 C.3    70  TRP70       0.0564
     26  CG        39.6370  100.0830   58.8780 C.ar   70  TRP70       0.0003
     27  CD1       40.2200  100.7820   57.8570 C.ar   70  TRP70       0.0946
     28  CD2       38.2230  100.2470   58.7220 C.ar   70  TRP70       0.0152
     29  NE1       39.2510  101.3690   57.0710 N.ar   70  TRP70      -0.2442
     30  CE2       38.0160  101.0490   57.5770 C.ar   70  TRP70       0.0810
     31  CE3       37.1090   99.7890   59.4360 C.ar   70  TRP70       0.0012
     32  CZ2       36.7410  101.4100   57.1350 C.ar   70  TRP70       0.0191
     33  CZ3       35.8310  100.1400   58.9880 C.ar   70  TRP70       0.0001
     34  CH2       35.6620  100.9480   57.8500 C.ar   70  TRP70       0.0015
     35  N         38.8700  100.3290   62.6790 N.am   71  LYS71      -0.1980
     36  CA        37.6890  100.9920   63.2260 C.3    71  LYS71       0.1596
     37  C         38.0610  102.3430   63.8410 C.2    71  LYS71       0.2287
     38  O         37.2920  103.2910   63.7700 O.2    71  LYS71      -0.2864
     39  CB        36.9920  100.1110   64.2620 C.3    71  LYS71       0.0298
     40  CG        36.4220   98.8240   63.7030 C.3    71  LYS71       0.0038
     41  CD        35.8600   97.9820   64.8420 C.3    71  LYS71       0.0206
     42  CE        35.2160   96.6960   64.3600 C.3    71  LYS71       0.1093
     43  NZ        34.9230   95.8140   65.5290 N.3    71  LYS71      -0.1314
     44  N         38.7210  101.3440   51.5290 N.3   156  VAL156     -0.1231
     45  CA        38.2590   99.9860   51.2620 C.3   156  VAL156      0.1692
     46  C         38.4010   99.1070   52.5020 C.2   156  VAL156      0.2593
     47  O         37.6870   98.1080   52.6480 O.2   156  VAL156     -0.2718
     48  CB        39.0160   99.3480   50.0880 C.3   156  VAL156      0.0266
     49  CG1       38.6660  100.0600   48.7900 C.3   156  VAL156      0.0020
     50  CG2       40.5320   99.3760   50.3330 C.3   156  VAL156      0.0020
     51  N         39.3080   99.4850   53.4040 N.am  157  GLY157     -0.1942
     52  CA        39.5050   98.7310   54.6370 C.3   157  GLY157      0.2014
     53  C         40.9340   98.2710   54.8360 C.2   157  GLY157      0.2638
     54  O         41.8060   99.0830   55.1410 O.2   157  GLY157     -0.2714
     55  N         41.1780   96.9790   54.6660 N.am  158  LEU158     -0.1977
     56  CA        42.5410   96.4310   54.7810 C.3   158  LEU158      0.1596
     57  C         43.2010   96.3490   53.4150 C.2   158  LEU158      0.2287
     58  O         42.6680   95.7170   52.4970 O.2   158  LEU158     -0.2864
     59  CB        42.5120   95.0400   55.4360 C.3   158  LEU158      0.0297
     60  CG        43.8300   94.2580   55.4360 C.3   158  LEU158      0.0022
     61  CD1       44.9080   95.0150   56.1940 C.3   158  LEU158      0.0001
     62  CD2       43.6070   92.8620   56.0200 C.3   158  LEU158      0.0001
     63  N         39.2580   87.0680   51.8610 N.3   236  GLU236     -0.1231
     64  CA        38.1990   88.0610   51.6950 C.3   236  GLU236      0.1699
     65  C         38.3790   89.2730   52.6100 C.2   236  GLU236      0.2592
     66  O         37.9030   90.3590   52.3040 O.2   236  GLU236     -0.2718
     67  CB        36.8150   87.4220   51.9280 C.3   236  GLU236      0.0402
     68  CG        36.3710   86.5470   50.7740 C.3   236  GLU236      0.1161
     69  CD        34.8920   86.1940   50.8210 C.2   236  GLU236      0.3649
     70  OE1       34.2740   86.3300   51.8990 O.co2 236  GLU236     -0.2457
     71  OE2       34.3490   85.7850   49.7710 O.co2 236  GLU236     -0.2457
     72  N         39.0860   89.0900   53.7200 N.am  237  ARG237     -0.1980
     73  CA        39.3640   90.1910   54.6460 C.3   237  ARG237      0.1597
     74  C         40.3990   91.1820   54.1190 C.2   237  ARG237      0.2287
     75  O         40.5480   92.2760   54.6610 O.2   237  ARG237     -0.2864
     76  CB        39.8350   89.6390   55.9880 C.3   237  ARG237      0.0334
     77  CG        38.7820   88.7990   56.6800 C.3   237  ARG237      0.0492
     78  CD        39.3730   88.1180   57.9010 C.3   237  ARG237      0.2205
     79  NE        40.4900   87.2580   57.5270 N.pl3 237  ARG237     -0.0865
     80  CZ        41.1080   86.4310   58.3600 C.cat 237  ARG237      0.5346
     81  NH1       40.7180   86.3460   59.6270 N.pl3 237  ARG237      0.1354
     82  NH2       42.1160   85.6910   57.9230 N.pl3 237  ARG237      0.1354
     83  N         40.8580   93.6550   51.5610 N.3   239  ASN239     -0.1240
     84  CA        39.9800   94.3960   50.6620 C.3   239  ASN239      0.1653
     85  C         40.6440   94.8450   49.3680 C.2   239  ASN239      0.2266
     86  O         40.0180   94.8620   48.3160 O.2   239  ASN239     -0.2867
     87  CB        39.4140   95.5920   51.4000 C.3   239  ASN239      0.1155
     88  CG        38.6200   95.1780   52.6050 C.2   239  ASN239      0.2627
     89  OD1       39.0690   95.3370   53.7360 O.2   239  ASN239     -0.2716
     90  ND2       37.4360   94.6070   52.3700 N.am  239  ASN239     -0.0877
@<TRIPOS>BOND
     1    86    85    2
     2    49    48    1
     3    85    84    1
     4    71    69   ar
     5    48    50    1
     6    48    45    1
     7    84    87    1
     8    84    83    1
     9    68    69    1
    10    68    67    1
    11    69    70   ar
    12    45    44    1
    13    45    46    1
    14    87    88    1
    15    64    63    1
    16    64    67    1
    17    64    65    1
    18    66    65    2
    19    90    88   am
    20    58    57    2
    21    46    47    2
    22    46    51   am
    23    88    89    2
    24    65    72   am
    25    51    52    1
    26    57    56    1
    27    72    73    1
    28    74    73    1
    29    74    75    2
    30    52    53    1
    31    73    76    1
    32    55    56    1
    33    55    53   am
    34    56    59    1
    35    53    54    2
    36    60    59    1
    37    60    62    1
    38    60    61    1
    39    76    77    1
    40    11     9    1
    41    77    78    1
    42    29    30   ar
    43    29    27   ar
    44    32    30   ar
    45    32    34   ar
    46     9    10    1
    47     9     8    2
    48    79    78    1
    49    79    80    2
    50    30    28   ar
    51    34    33   ar
    52    27    26   ar
    53    82    80    1
    54     8     7    1
    55     7     6    1
    56    80    81    1
    57    28    26   ar
    58    28    31   ar
    59    26    25    1
    60     6     5    1
    61    33    31   ar
    62    25    22    1
    63     5     2    1
    64     2     1    1
    65     2     3    1
    66    22    23    1
    67    22    21    1
    68    24    23    2
    69    23    35   am
    70     4     3    2
    71     3    12   am
    72    35    36    1
    73    36    37    1
    74    36    39    1
    75    12    13    1
    76    40    39    1
    77    40    41    1
    78    38    37    2
    79    42    41    1
    80    42    43    1
    81    13    14    1
    82    13    16    1
    83    14    15    2
    84    20    18   ar
    85    18    17    1
    86    18    19   ar
    87    16    17    1
