@<TRIPOS>MOLECULE
tmp/4zulH01.pdb
 87 84 0 0 0
SMALL
GASTEIGER

@<TRIPOS>ATOM
      1  N         28.4300  134.6230   78.5420 N.3   324  TYR324     -0.1227
      2  CA        29.3100  135.8000   78.5330 C.3   324  TYR324      0.1736
      3  C         29.9230  136.0380   79.9100 C.2   324  TYR324      0.2595
      4  O         31.0750  136.4710   80.0300 O.2   324  TYR324     -0.2718
      5  CB        28.5520  137.0650   78.1030 C.3   324  TYR324      0.0548
      6  CG        28.5580  137.3610   76.6130 C.ar  324  TYR324     -0.0200
      7  CD1       28.3210  136.3630   75.6850 C.ar  324  TYR324     -0.0009
      8  CD2       28.7690  138.6560   76.1430 C.ar  324  TYR324     -0.0009
      9  CE1       28.3210  136.6360   74.3230 C.ar  324  TYR324      0.0417
     10  CE2       28.7610  138.9390   74.7890 C.ar  324  TYR324      0.0417
     11  CZ        28.5350  137.9280   73.8850 C.ar  324  TYR324      0.1957
     12  OH        28.5380  138.1990   72.5360 O.3   324  TYR324     -0.2866
     13  N         29.1400  135.7710   80.9480 N.am  325  ALA325     -0.1980
     14  CA        29.5860  136.0110   82.3140 C.3   325  ALA325      0.1597
     15  C         30.6440  135.0050   82.7570 C.2   325  ALA325      0.2287
     16  O         31.3370  135.2230   83.7330 O.2   325  ALA325     -0.2864
     17  CB        28.4010  135.9830   83.2710 C.3   325  ALA325      0.0319
     18  N         33.1190  134.0690   80.8910 N.3   327  ILE327     -0.1245
     19  CA        34.3370  134.3880   80.1480 C.3   327  ILE327      0.1561
     20  C         35.4760  134.8620   81.0640 C.2   327  ILE327      0.2260
     21  O         35.3130  135.8380   81.7930 O.2   327  ILE327     -0.2867
     22  CB        34.0730  135.4940   79.1110 C.3   327  ILE327      0.0252
     23  CG1       33.0670  135.0300   78.0600 C.3   327  ILE327      0.0019
     24  CG2       35.3650  135.9040   78.4530 C.3   327  ILE327      0.0019
     25  CD1       32.6830  136.1200   77.0810 C.3   327  ILE327      0.0001
     26  N         38.6030  136.8560   81.8650 N.3   329  VAL329     -0.1245
     27  CA        39.2730  138.0520   81.3580 C.3   329  VAL329      0.1561
     28  C         40.6460  138.2390   82.0050 C.2   329  VAL329      0.2260
     29  O         40.8080  137.9990   83.2000 O.2   329  VAL329     -0.2867
     30  CB        38.4150  139.3040   81.6250 C.3   329  VAL329      0.0252
     31  CG1       39.0990  140.5690   81.1150 C.3   329  VAL329      0.0019
     32  CG2       37.0480  139.1370   81.0130 C.3   329  VAL329      0.0019
     33  N         23.7100  143.0550   78.0430 N.3   367  TYR367     -0.1241
     34  CA        24.9720  142.6620   78.6590 C.3   367  TYR367      0.1605
     35  C         26.0770  143.5880   78.1820 C.2   367  TYR367      0.2264
     36  O         26.1950  143.8540   76.9870 O.2   367  TYR367     -0.2867
     37  CB        25.3340  141.2060   78.3340 C.3   367  TYR367      0.0534
     38  CG        26.4940  140.6790   79.1610 C.ar  367  TYR367     -0.0201
     39  CD1       27.8150  140.9220   78.7830 C.ar  367  TYR367     -0.0009
     40  CD2       26.2700  139.9550   80.3300 C.ar  367  TYR367     -0.0009
     41  CE1       28.8790  140.4510   79.5450 C.ar  367  TYR367      0.0417
     42  CE2       27.3270  139.4800   81.0940 C.ar  367  TYR367      0.0417
     43  CZ        28.6250  139.7320   80.6970 C.ar  367  TYR367      0.1957
     44  OH        29.6800  139.2620   81.4500 O.3   367  TYR367     -0.2866
     45  N         36.1430  148.3920   80.4040 N.3   372  MET372     -0.1230
     46  CA        36.5840  147.8080   81.6650 C.3   372  MET372      0.1702
     47  C         37.6100  148.7100   82.3410 C.2   372  MET372      0.2592
     48  O         38.4760  149.2800   81.6770 O.2   372  MET372     -0.2718
     49  CB        37.1790  146.4250   81.4380 C.3   372  MET372      0.0401
     50  CG        36.1940  145.4270   80.8820 C.3   372  MET372      0.0596
     51  SD        36.9710  143.8180   80.7360 S.3   372  MET372     -0.1393
     52  CE        35.6200  142.8250   80.0980 C.3   372  MET372      0.0692
     53  N         37.5190  148.8330   83.6590 N.am  373  ASP373     -0.1960
     54  CA        38.4340  149.6920   84.3940 C.3   373  ASP373      0.1840
     55  C         39.7140  148.9450   84.7840 C.2   373  ASP373      0.2621
     56  O         39.9020  148.5480   85.9350 O.2   373  ASP373     -0.2715
     57  CB        37.7500  150.2650   85.6360 C.3   373  ASP373      0.1450
     58  CG        38.6330  151.2450   86.3790 C.2   373  ASP373      0.3671
     59  OD1       39.5680  151.7920   85.7490 O.co2 373  ASP373     -0.2456
     60  OD2       38.3980  151.4610   87.5890 O.co2 373  ASP373     -0.2456
     61  N         40.5860  148.7550   83.8020 N.am  374  ARG374     -0.1977
     62  CA        41.8870  148.1380   84.0210 C.3   374  ARG374      0.1597
     63  C         42.8560  148.7040   82.9910 C.2   374  ARG374      0.2287
     64  O         42.4240  149.3520   82.0360 O.2   374  ARG374     -0.2864
     65  CB        41.7880  146.6100   83.9220 C.3   374  ARG374      0.0334
     66  CG        41.0690  146.1000   82.6750 C.3   374  ARG374      0.0492
     67  CD        40.4030  144.7470   82.9300 C.3   374  ARG374      0.2205
     68  NE        41.3650  143.6640   83.1370 N.pl3 374  ARG374     -0.0865
     69  CZ        41.1340  142.5940   83.8930 C.cat 374  ARG374      0.5346
     70  NH1       42.0650  141.6580   84.0260 N.pl3 374  ARG374      0.1354
     71  NH2       39.9770  142.4690   84.5310 N.pl3 374  ARG374      0.1354
     72  N         33.8080  145.6080   77.6990 N.3   380  GLU380     -0.1231
     73  CA        32.9150  144.4920   77.9800 C.3   380  GLU380      0.1684
     74  C         32.3300  143.9490   76.6780 C.2   380  GLU380      0.2434
     75  O         31.8170  144.7180   75.8660 O.2   380  GLU380     -0.2733
     76  CB        31.7990  144.9320   78.9320 C.3   380  GLU380      0.0402
     77  CG        32.2940  145.3560   80.3150 C.3   380  GLU380      0.1161
     78  CD        31.2310  146.0470   81.1550 C.2   380  GLU380      0.3649
     79  OE1       30.1660  146.4160   80.6120 O.co2 380  GLU380     -0.2457
     80  OE2       31.4660  146.2320   82.3690 O.co2 380  GLU380     -0.2457
     81  N         32.4120  142.6240   76.4700 N.am  381  PRO381     -0.2729
     82  CA        31.7300  142.0650   75.2990 C.3   381  PRO381      0.1401
     83  C         30.2430  142.3330   75.4610 C.2   381  PRO381      0.2269
     84  O         29.7180  142.1330   76.5550 O.2   381  PRO381     -0.2865
     85  CB        32.0620  140.5730   75.3680 C.3   381  PRO381      0.0296
     86  CG        32.2900  140.3150   76.8270 C.3   381  PRO381      0.0237
     87  CD        32.9550  141.5740   77.3480 C.3   381  PRO381      0.0939
@<TRIPOS>BOND
     1    12    11    1
     2    11     9   ar
     3    11    10   ar
     4     9     7   ar
     5    10     8   ar
     6    82    85    1
     7    82    83    1
     8    82    81    1
     9    85    86    1
    10    83    84    2
    11     7     6   ar
    12    75    74    2
    13     8     6   ar
    14    81    74   am
    15    81    87    1
    16     6     5    1
    17    74    73    1
    18    86    87    1
    19    36    35    2
    20    25    23    1
    21    72    73    1
    22    73    76    1
    23    33    34    1
    24    23    22    1
    25     5     2    1
    26    35    34    1
    27    37    34    1
    28    37    38    1
    29    24    22    1
    30     2     1    1
    31     2     3    1
    32    39    38   ar
    33    39    41   ar
    34    76    77    1
    35    22    19    1
    36    38    40   ar
    37    41    43   ar
    38     3     4    2
    39     3    13   am
    40    52    51    1
    41    19    18    1
    42    19    20    1
    43    77    78    1
    44    40    42   ar
    45    45    46    1
    46    79    78   ar
    47    43    42   ar
    48    43    44    1
    49    51    50    1
    50    50    49    1
    51    13    14    1
    52    32    30    1
    53    20    21    2
    54    31    30    1
    55    78    80   ar
    56    27    30    1
    57    27    26    1
    58    27    28    1
    59    49    46    1
    60    46    47    1
    61    48    47    2
    62    28    29    2
    63    64    63    2
    64    14    15    1
    65    14    17    1
    66    47    53   am
    67    66    67    1
    68    66    65    1
    69    15    16    2
    70    67    68    1
    71    63    62    1
    72    68    69    2
    73    53    54    1
    74    61    62    1
    75    61    55   am
    76    69    70    1
    77    69    71    1
    78    65    62    1
    79    54    55    1
    80    54    57    1
    81    55    56    2
    82    57    58    1
    83    59    58   ar
    84    58    60   ar
