@<TRIPOS>MOLECULE
tmp/4zulF01.pdb
 113 109 0 0 0
SMALL
GASTEIGER

@<TRIPOS>ATOM
      1  N         62.2710  108.5210   47.6200 N.3   120  GLU120     -0.1245
      2  CA        60.9650  108.3200   46.9910 C.3   120  GLU120      0.1567
      3  C         59.8590  108.2380   48.0300 C.2   120  GLU120      0.2260
      4  O         58.7740  108.7850   47.8390 O.2   120  GLU120     -0.2867
      5  CB        60.9460  107.0490   46.1530 C.3   120  GLU120      0.0388
      6  CG        61.7950  107.0840   44.8970 C.3   120  GLU120      0.1160
      7  CD        61.4050  105.9670   43.9370 C.2   120  GLU120      0.3649
      8  OE1       60.1820  105.7630   43.7390 O.co2 120  GLU120     -0.2457
      9  OE2       62.3080  105.2800   43.4060 O.co2 120  GLU120     -0.2457
     10  N         63.5500   94.0170   44.5290 N.3   166  ASN166     -0.1225
     11  CA        64.3480   95.0140   43.8320 C.3   166  ASN166      0.1785
     12  C         64.0860   96.4360   44.3160 C.2   166  ASN166      0.2597
     13  O         64.9810   97.2890   44.2720 O.2   166  ASN166     -0.2718
     14  CB        64.1540   94.9050   42.3070 C.3   166  ASN166      0.1169
     15  CG        62.7180   95.0410   41.8650 C.2   166  ASN166      0.2627
     16  OD1       61.7860   94.8800   42.6450 O.2   166  ASN166     -0.2716
     17  ND2       62.5340   95.3050   40.5730 N.am  166  ASN166     -0.0877
     18  N         62.8820   96.6820   44.8190 N.am  167  PHE167     -0.1976
     19  CA        62.5870   97.9610   45.4520 C.3   167  PHE167      0.1639
     20  C         61.9190   97.7350   46.8010 C.2   167  PHE167      0.2290
     21  O         60.7020   97.9060   46.9350 O.2   167  PHE167     -0.2864
     22  CB        61.7210   98.8310   44.5330 C.3   167  PHE167      0.0560
     23  CG        62.5230   99.5510   43.5030 C.ar  167  PHE167     -0.0200
     24  CD1       62.8510   98.9320   42.3120 C.ar  167  PHE167     -0.0042
     25  CD2       63.0080  100.8270   43.7520 C.ar  167  PHE167     -0.0042
     26  CE1       63.6290   99.5790   41.3680 C.ar  167  PHE167     -0.0003
     27  CE2       63.7870  101.4820   42.8130 C.ar  167  PHE167     -0.0003
     28  CZ        64.0980  100.8570   41.6210 C.ar  167  PHE167     -0.0000
     29  N         58.3420  100.9200   46.8880 N.3   171  VAL171     -0.1245
     30  CA        57.0340  100.4120   46.4870 C.3   171  VAL171      0.1561
     31  C         56.1130  100.3090   47.6970 C.2   171  VAL171      0.2260
     32  O         54.9440  100.7210   47.6390 O.2   171  VAL171     -0.2867
     33  CB        57.1620   99.0450   45.7810 C.3   171  VAL171      0.0252
     34  CG1       55.7880   98.3620   45.6520 C.3   171  VAL171      0.0019
     35  CG2       57.7790   99.2250   44.4000 C.3   171  VAL171      0.0019
     36  N         55.0850  103.9150   48.4970 N.3   174  TRP174     -0.1241
     37  CA        54.0360  104.4650   47.6460 C.3   174  TRP174      0.1605
     38  C         52.6700  104.0060   48.1380 C.2   174  TRP174      0.2264
     39  O         51.7210  104.7900   48.2180 O.2   174  TRP174     -0.2867
     40  CB        54.1630  104.0250   46.1910 C.3   174  TRP174      0.0550
     41  CG        55.4040  104.3710   45.4430 C.ar  174  TRP174      0.0003
     42  CD1       56.2930  105.3690   45.7080 C.ar  174  TRP174      0.0946
     43  CD2       55.8820  103.6970   44.2740 C.ar  174  TRP174      0.0152
     44  NE1       57.3160  105.3430   44.7770 N.ar  174  TRP174     -0.2442
     45  CE2       57.0820  104.3240   43.8890 C.ar  174  TRP174      0.0810
     46  CE3       55.4160  102.6070   43.5270 C.ar  174  TRP174      0.0012
     47  CZ2       57.8190  103.9060   42.7770 C.ar  174  TRP174      0.0191
     48  CZ3       56.1510  102.1880   42.4250 C.ar  174  TRP174      0.0001
     49  CH2       57.3380  102.8420   42.0610 C.ar  174  TRP174      0.0015
     50  N         53.3700   93.5350   43.7320 N.3   244  THR244     -0.1218
     51  CA        54.4630   93.9000   42.8620 C.3   244  THR244      0.1862
     52  C         55.3710   92.6920   42.7740 C.2   244  THR244      0.2287
     53  O         55.7930   92.1500   43.7990 O.2   244  THR244     -0.2866
     54  CB        55.2260   95.1270   43.3850 C.3   244  THR244      0.1770
     55  OG1       54.3460   96.2600   43.3880 O.3   244  THR244     -0.2211
     56  CG2       56.4390   95.4160   42.5110 C.3   244  THR244      0.0375
     57  N         65.7660   96.4550   37.6710 N.3   300  ARG300     -0.1231
     58  CA        64.4970   97.1780   37.7950 C.3   300  ARG300      0.1694
     59  C         63.4530   96.6170   36.8250 C.2   300  ARG300      0.2592
     60  O         63.7930   96.0950   35.7650 O.2   300  ARG300     -0.2718
     61  CB        64.6740   98.6710   37.5270 C.3   300  ARG300      0.0321
     62  CG        65.6820   99.3780   38.3800 C.3   300  ARG300      0.0489
     63  CD        65.6000  100.8640   38.0920 C.3   300  ARG300      0.2205
     64  NE        66.5730  101.6220   38.8540 N.pl3 300  ARG300     -0.0865
     65  CZ        66.4320  102.8960   39.2100 C.cat 300  ARG300      0.5346
     66  NH1       67.4030  103.4910   39.8990 N.pl3 300  ARG300      0.1354
     67  NH2       65.3360  103.5740   38.8840 N.pl3 300  ARG300      0.1354
     68  N         62.1720   96.7440   37.1650 N.am  301  CYS301     -0.1956
     69  CA        61.1620   96.3650   36.1990 C.3   301  CYS301      0.1843
     70  C         61.1610   97.4060   35.0870 C.2   301  CYS301      0.2626
     71  O         60.7340   97.1160   33.9710 O.2   301  CYS301     -0.2714
     72  CB        59.7870   96.2200   36.8580 C.3   301  CYS301      0.0997
     73  SG        59.6290   94.6360   37.7270 S.3   301  CYS301     -0.0797
     74  N         61.6890   98.5970   35.3950 N.am  302  THR302     -0.1950
     75  CA        61.8080   99.6950   34.4330 C.3   302  THR302      0.1897
     76  C         63.1440   99.7170   33.6690 C.2   302  THR302      0.2313
     77  O         63.3850  100.6160   32.8600 O.2   302  THR302     -0.2863
     78  CB        61.6410  101.0590   35.1250 C.3   302  THR302      0.1794
     79  OG1       62.5610  101.1660   36.2160 O.3   302  THR302     -0.2208
     80  CG2       60.2320  101.2110   35.6640 C.3   302  THR302      0.0378
     81  N         64.1240  104.8730   30.4360 N.3   458  THR458     -0.1203
     82  CA        62.8910  104.1820   30.7990 C.3   458  THR458      0.1994
     83  C         62.6880  104.1320   32.3160 C.2   458  THR458      0.2619
     84  O         61.5690  103.9220   32.8120 O.2   458  THR458     -0.2717
     85  CB        62.9000  102.7480   30.2390 C.3   458  THR458      0.1784
     86  OG1       64.1370  102.1220   30.5980 O.3   458  THR458     -0.2211
     87  CG2       62.8130  102.7810   28.7270 C.3   458  THR458      0.0376
     88  N         63.7750  104.3320   33.0480 N.am  459  SER459     -0.1937
     89  CA        63.7660  104.1900   34.4990 C.3   459  SER459      0.2055
     90  C         63.8870  105.5460   35.1840 C.2   459  SER459      0.2644
     91  O         64.2000  106.5470   34.5390 O.2   459  SER459     -0.2714
     92  CB        64.9050  103.2700   34.9480 C.3   459  SER459      0.2130
     93  OG        66.1550  103.7770   34.5170 O.3   459  SER459     -0.2179
     94  N         63.6300  105.5750   36.4910 N.am  460  GLY460     -0.1939
     95  CA        63.8230  106.7850   37.2710 C.3   460  GLY460      0.2014
     96  C         62.6390  107.7500   37.2440 C.2   460  GLY460      0.2638
     97  O         62.8080  108.9470   36.9790 O.2   460  GLY460     -0.2714
     98  N         61.4440  107.2380   37.5300 N.am  461  ALA461     -0.1977
     99  CA        60.2500  108.0800   37.6160 C.3   461  ALA461      0.1597
    100  C         60.2620  108.9840   38.8480 C.2   461  ALA461      0.2287
    101  O         60.8480  108.6320   39.8740 O.2   461  ALA461     -0.2864
    102  CB        58.9880  107.2130   37.6380 C.3   461  ALA461      0.0319
    103  N         52.2020  105.6710   38.5620 N.3   467  PHE467     -0.1241
    104  CA        53.2040  104.7120   38.1180 C.3   467  PHE467      0.1605
    105  C         52.5920  103.3400   37.8630 C.2   467  PHE467      0.2264
    106  O         51.9150  102.7760   38.7210 O.2   467  PHE467     -0.2867
    107  CB        54.3240  104.5980   39.1540 C.3   467  PHE467      0.0534
    108  CG        55.3910  103.6110   38.7740 C.ar  467  PHE467     -0.0203
    109  CD1       55.2320  102.2550   39.0370 C.ar  467  PHE467     -0.0042
    110  CD2       56.5480  104.0380   38.1420 C.ar  467  PHE467     -0.0042
    111  CE1       56.2040  101.3470   38.6810 C.ar  467  PHE467     -0.0003
    112  CE2       57.5340  103.1350   37.7880 C.ar  467  PHE467     -0.0003
    113  CZ        57.3580  101.7780   38.0540 C.ar  467  PHE467     -0.0000
@<TRIPOS>BOND
     1    87    85    1
     2    85    86    1
     3    85    82    1
     4    81    82    1
     5    82    83    1
     6    83    84    2
     7    83    88   am
     8    77    76    2
     9    88    89    1
    10    76    75    1
    11    71    70    2
    12    75    78    1
    13    75    74    1
    14    89    92    1
    15    89    90    1
    16    93    92    1
    17    91    90    2
    18    70    74   am
    19    70    69    1
    20    78    80    1
    21    78    79    1
    22    90    94   am
    23    60    59    2
    24    69    72    1
    25    69    68    1
    26    94    95    1
    27    59    68   am
    28    59    58    1
    29    72    73    1
    30    97    96    2
    31    96    95    1
    32    96    98   am
    33    61    58    1
    34    61    62    1
    35    98    99    1
    36    99   102    1
    37    99   100    1
    38    57    58    1
    39   112   113   ar
    40   112   110   ar
    41   105   104    1
    42   105   106    2
    43   113   111   ar
    44    63    62    1
    45    63    64    1
    46   104   103    1
    47   104   107    1
    48   110   108   ar
    49   111   109   ar
    50   108   109   ar
    51   108   107    1
    52   100   101    2
    53    64    65    2
    54    67    65    1
    55    65    66    1
    56    17    15   am
    57    26    28   ar
    58    26    24   ar
    59    28    27   ar
    60    15    14    1
    61    15    16    2
    62    49    48   ar
    63    49    47   ar
    64    14    11    1
    65    24    23   ar
    66    48    46   ar
    67    56    54    1
    68    52    51    1
    69    52    53    2
    70    47    45   ar
    71    27    25   ar
    72    51    54    1
    73    51    50    1
    74    54    55    1
    75     9     7   ar
    76    23    25   ar
    77    23    22    1
    78    46    43   ar
    79     8     7   ar
    80    11    12    1
    81    11    10    1
    82    45    43   ar
    83    45    44   ar
    84     7     6    1
    85    13    12    2
    86    43    41   ar
    87    12    18   am
    88    35    33    1
    89    22    19    1
    90    44    42   ar
    91    18    19    1
    92     6     5    1
    93    41    42   ar
    94    41    40    1
    95    19    20    1
    96    34    33    1
    97    33    30    1
    98     5     2    1
    99    40    37    1
   100    30    29    1
   101    30    31    1
   102    20    21    2
   103     2     1    1
   104     2     3    1
   105    32    31    2
   106    37    38    1
   107    37    36    1
   108     4     3    2
   109    38    39    2
