@<TRIPOS>MOLECULE
tmp/4zumB00.pdb
 168 162 0 0 0
SMALL
GASTEIGER

@<TRIPOS>ATOM
      1  N         -5.6140   -6.2960   -9.9270 N.3    17  GLU17      -0.1245
      2  CA        -6.9290   -5.7980   -9.5350 C.3    17  GLU17       0.1567
      3  C         -6.8720   -4.2770   -9.6530 C.2    17  GLU17       0.2260
      4  O         -5.8740   -3.6610   -9.2270 O.2    17  GLU17      -0.2867
      5  CB        -7.2310   -6.1890   -8.0770 C.3    17  GLU17       0.0388
      6  CG        -8.4980   -5.5420   -7.5290 C.3    17  GLU17       0.1160
      7  CD        -8.8800   -6.0290   -6.1490 C.2    17  GLU17       0.3649
      8  OE1       -8.3720   -7.0850   -5.7070 O.co2  17  GLU17      -0.2457
      9  OE2       -9.7320   -5.3600   -5.5320 O.co2  17  GLU17      -0.2457
     10  N         -7.7090   -1.0260   -8.2060 N.3    19  TYR19      -0.1241
     11  CA        -8.0720   -0.5460   -6.8800 C.3    19  TYR19       0.1605
     12  C         -7.4250    0.8220   -6.6610 C.2    19  TYR19       0.2264
     13  O         -6.2020    0.9740   -6.7820 O.2    19  TYR19      -0.2867
     14  CB        -7.5910   -1.5330   -5.8020 C.3    19  TYR19       0.0534
     15  CG        -7.8300   -1.0500   -4.3980 C.ar   19  TYR19      -0.0201
     16  CD1       -9.1060   -1.0580   -3.8520 C.ar   19  TYR19      -0.0009
     17  CD2       -6.7960   -0.5620   -3.6290 C.ar   19  TYR19      -0.0009
     18  CE1       -9.3390   -0.6150   -2.5630 C.ar   19  TYR19       0.0417
     19  CE2       -7.0160   -0.1120   -2.3390 C.ar   19  TYR19       0.0417
     20  CZ        -8.2930   -0.1380   -1.8170 C.ar   19  TYR19       0.1957
     21  OH        -8.5210    0.3120   -0.5340 O.3    19  TYR19      -0.2866
     22  N         -8.2610  -10.9270   -3.4160 N.3    28  GLU28      -0.1245
     23  CA        -8.8110  -12.2830   -3.4460 C.3    28  GLU28       0.1567
     24  C         -7.7910  -13.2190   -4.1010 C.2    28  GLU28       0.2260
     25  O         -7.8610  -13.5310   -5.3010 O.2    28  GLU28      -0.2867
     26  CB       -10.1680  -12.2740   -4.1650 C.3    28  GLU28       0.0388
     27  CG       -11.0710  -13.4820   -3.8430 C.3    28  GLU28       0.1160
     28  CD       -10.4030  -14.8200   -4.0930 C.2    28  GLU28       0.3649
     29  OE1      -10.5330  -15.3470   -5.2200 O.co2  28  GLU28      -0.2457
     30  OE2       -9.7740  -15.3470   -3.1620 O.co2  28  GLU28      -0.2457
     31  N        -13.0730   -3.8770  -11.2100 N.3   117  GLU117     -0.1245
     32  CA       -11.8870   -4.2310  -10.4400 C.3   117  GLU117      0.1567
     33  C        -11.4230   -5.6510  -10.6840 C.2   117  GLU117      0.2260
     34  O        -10.2560   -5.9540  -10.4340 O.2   117  GLU117     -0.2867
     35  CB       -12.0720   -3.9910   -8.9380 C.3   117  GLU117      0.0388
     36  CG       -12.8530   -5.0960   -8.1950 C.3   117  GLU117      0.1160
     37  CD       -14.3070   -5.1070   -8.5920 C.2   117  GLU117      0.3649
     38  OE1      -14.9300   -4.0290   -8.6300 O.co2 117  GLU117     -0.2457
     39  OE2      -14.8220   -6.1770   -8.9610 O.co2 117  GLU117     -0.2457
     40  N        -14.9600  -16.7930   -4.9010 N.3   156  PRO156     -0.2116
     41  CA       -16.2750  -16.6130   -4.2890 C.3   156  PRO156      0.1372
     42  C        -17.3240  -16.3800   -5.3740 C.2   156  PRO156      0.2244
     43  O        -17.0250  -16.3180   -6.5830 O.2   156  PRO156     -0.2868
     44  CB       -16.0870  -15.3580   -3.4300 C.3   156  PRO156      0.0268
     45  CG       -15.0350  -14.5610   -4.1950 C.3   156  PRO156      0.0207
     46  CD       -14.0770  -15.6300   -4.6930 C.3   156  PRO156      0.0892
     47  N        -20.9560  -14.5290   -4.7000 N.3   158  HIS158     -0.1226
     48  CA       -22.2490  -13.8530   -4.5140 C.3   158  HIS158      0.1752
     49  C        -22.4650  -12.5420   -5.2910 C.2   158  HIS158      0.2596
     50  O        -23.5960  -12.0620   -5.3280 O.2   158  HIS158     -0.2718
     51  CB       -22.5960  -13.6700   -3.0190 C.3   158  HIS158      0.0759
     52  CG       -21.7770  -12.6370   -2.3010 C.ar  158  HIS158      0.0818
     53  ND1      -22.2410  -11.9860   -1.1710 N.ar  158  HIS158     -0.2268
     54  CD2      -20.5390  -12.1420   -2.5370 C.ar  158  HIS158      0.1154
     55  CE1      -21.3250  -11.1340   -0.7470 C.ar  158  HIS158      0.1986
     56  NE2      -20.2750  -11.2100   -1.5520 N.ar  158  HIS158     -0.2212
     57  N        -21.4190  -11.9980   -5.9290 N.am  159  HIS159     -0.1975
     58  CA       -21.5800  -10.8320   -6.7980 C.3   159  HIS159      0.1656
     59  C        -21.8910  -11.2270   -8.2280 C.2   159  HIS159      0.2291
     60  O        -22.1930  -10.3580   -9.0380 O.2   159  HIS159     -0.2864
     61  CB       -20.3630   -9.8970   -6.7700 C.3   159  HIS159      0.0771
     62  CG       -20.0850   -9.3250   -5.4280 C.ar  159  HIS159      0.0820
     63  ND1      -21.0050   -8.5670   -4.7310 N.ar  159  HIS159     -0.2267
     64  CD2      -18.9920   -9.4220   -4.6370 C.ar  159  HIS159      0.1154
     65  CE1      -20.4850   -8.2250   -3.5580 C.ar  159  HIS159      0.1986
     66  NE2      -19.2620   -8.7250   -3.4820 N.ar  159  HIS159     -0.2212
     67  N        -16.7970   -8.1920   -8.6270 N.3   167  GLY167     -0.1210
     68  CA       -16.5320   -8.3750   -7.2140 C.3   167  GLY167      0.1956
     69  C        -15.8140   -9.6770   -6.8910 C.2   167  GLY167      0.2612
     70  O        -16.1090  -10.3260   -5.8880 O.2   167  GLY167     -0.2717
     71  N        -14.8990  -10.0780   -7.7800 N.am  168  TYR168     -0.1962
     72  CA       -14.0660  -11.2790   -7.5680 C.3   168  TYR168      0.1771
     73  C        -14.8090  -12.5910   -7.8370 C.2   168  TYR168      0.2619
     74  O        -14.2590  -13.6740   -7.5950 O.2   168  TYR168     -0.2715
     75  CB       -13.4610  -11.3380   -6.1500 C.3   168  TYR168      0.0574
     76  CG       -12.8800  -10.0580   -5.5510 C.ar  168  TYR168     -0.0198
     77  CD1      -12.4450   -8.9740   -6.3390 C.ar  168  TYR168     -0.0009
     78  CD2      -12.7460   -9.9480   -4.1690 C.ar  168  TYR168     -0.0009
     79  CE1      -11.9030   -7.8360   -5.7590 C.ar  168  TYR168      0.0417
     80  CE2      -12.2070   -8.8110   -3.5700 C.ar  168  TYR168      0.0417
     81  CZ       -11.7890   -7.7690   -4.3700 C.ar  168  TYR168      0.1957
     82  OH       -11.2290   -6.6570   -3.8000 O.3   168  TYR168     -0.2866
     83  N        -16.0280  -12.4970   -8.3850 N.am  169  CYS169     -0.1968
     84  CA       -16.9370  -13.6360   -8.5220 C.3   169  CYS169      0.1712
     85  C        -17.2900  -13.8840   -9.9770 C.2   169  CYS169      0.2296
     86  O        -17.4670  -12.9300  -10.7600 O.2   169  CYS169     -0.2864
     87  CB       -18.2480  -13.3460   -7.7890 C.3   169  CYS169      0.0983
     88  SG       -18.0680  -13.0280   -6.0250 S.3   169  CYS169     -0.0798
     89  N        -21.6860  -12.2040    4.4970 N.3   195  ASP195     -0.1239
     90  CA       -20.5340  -11.4470    4.0280 C.3   195  ASP195      0.1674
     91  C        -20.8180   -9.9480    4.2180 C.2   195  ASP195      0.2266
     92  O        -21.9730   -9.5190    4.1550 O.2   195  ASP195     -0.2867
     93  CB       -20.3450  -11.8120    2.5320 C.3   195  ASP195      0.1410
     94  CG       -19.0890  -11.2340    1.9180 C.2   195  ASP195      0.3668
     95  OD1      -19.0980  -10.0350    1.5460 O.co2 195  ASP195     -0.2456
     96  OD2      -18.0940  -11.9680    1.7690 O.co2 195  ASP195     -0.2456
     97  N        -20.3920   -7.5980    2.1980 N.3   197  HIS197     -0.1241
     98  CA       -20.9410   -6.9820    1.0040 C.3   197  HIS197      0.1621
     99  C        -22.2900   -7.5720    0.6460 C.2   197  HIS197      0.2264
    100  O        -22.5540   -8.7480    0.8850 O.2   197  HIS197     -0.2867
    101  CB       -19.9680   -7.1750   -0.1580 C.3   197  HIS197      0.0745
    102  CG       -18.6110   -6.5970    0.1190 C.ar  197  HIS197      0.0817
    103  ND1      -17.5710   -7.3410    0.6580 N.ar  197  HIS197     -0.2268
    104  CD2      -18.1450   -5.3330   -0.0080 C.ar  197  HIS197      0.1154
    105  CE1      -16.5140   -6.5600    0.8120 C.ar  197  HIS197      0.1986
    106  NE2      -16.8360   -5.3400    0.4140 N.ar  197  HIS197     -0.2212
    107  N        -19.4750   -0.9550   -1.5860 N.3   225  PHE225     -0.1241
    108  CA       -19.5670   -1.9060   -2.6880 C.3   225  PHE225      0.1605
    109  C        -20.6120   -2.9720   -2.3220 C.2   225  PHE225      0.2264
    110  O        -20.6230   -3.4560   -1.1960 O.2   225  PHE225     -0.2867
    111  CB       -18.1760   -2.5560   -2.9060 C.3   225  PHE225      0.0534
    112  CG       -18.1190   -3.4500   -4.0990 C.ar  225  PHE225     -0.0203
    113  CD1      -17.7170   -2.9690   -5.3140 C.ar  225  PHE225     -0.0042
    114  CD2      -18.4870   -4.7850   -3.9940 C.ar  225  PHE225     -0.0042
    115  CE1      -17.6720   -3.8040   -6.4270 C.ar  225  PHE225     -0.0003
    116  CE2      -18.4850   -5.6110   -5.0890 C.ar  225  PHE225     -0.0003
    117  CZ       -18.0820   -5.1150   -6.3170 C.ar  225  PHE225     -0.0000
    118  N        -22.6900   -1.0540   -4.2090 N.3   227  HIS227     -0.1241
    119  CA       -23.2310    0.3090   -4.4020 C.3   227  HIS227      0.1621
    120  C        -24.6190    0.4200   -5.0380 C.2   227  HIS227      0.2264
    121  O        -25.3700    1.3560   -4.7440 O.2   227  HIS227     -0.2867
    122  CB       -22.2570    1.2030   -5.1780 C.3   227  HIS227      0.0745
    123  CG       -20.9560    1.4400   -4.4750 C.ar  227  HIS227      0.0817
    124  ND1      -20.8730    2.1100   -3.2740 N.ar  227  HIS227     -0.2268
    125  CD2      -19.6870    1.1070   -4.8100 C.ar  227  HIS227      0.1154
    126  CE1      -19.6070    2.1780   -2.8990 C.ar  227  HIS227      0.1986
    127  NE2      -18.8670    1.5740   -3.8120 N.ar  227  HIS227     -0.2212
    128  N        -15.3930  -10.8770    6.1170 N.3   284  ASP284     -0.1239
    129  CA       -14.9890   -9.4840    5.9590 C.3   284  ASP284      0.1674
    130  C        -15.7650   -8.5180    6.8400 C.2   284  ASP284      0.2266
    131  O        -15.5050   -7.3210    6.7820 O.2   284  ASP284     -0.2867
    132  CB       -14.9800   -9.0200    4.4760 C.3   284  ASP284      0.1410
    133  CG       -16.1270   -9.5200    3.6780 C.2   284  ASP284      0.3668
    134  OD1      -17.0960  -10.1150    4.1940 O.co2 284  ASP284     -0.2456
    135  OD2      -16.0390   -9.2560    2.4550 O.co2 284  ASP284     -0.2456
    136  N        -10.9640   -3.9040    3.7500 N.3   291  ILE291     -0.1245
    137  CA       -11.8010   -3.1950    2.7790 C.3   291  ILE291      0.1561
    138  C        -13.2220   -2.9560    3.2940 C.2   291  ILE291      0.2260
    139  O        -14.0850   -2.5210    2.5400 O.2   291  ILE291     -0.2867
    140  CB       -11.7910   -3.9030    1.3870 C.3   291  ILE291      0.0252
    141  CG1      -12.3780   -5.3110    1.4570 C.3   291  ILE291      0.0019
    142  CG2      -10.3350   -3.9000    0.8100 C.3   291  ILE291      0.0019
    143  CD1      -12.6020   -5.9120    0.0420 C.3   291  ILE291      0.0001
    144  N        -17.3160  -17.1700    1.0190 N.3   320  GLU320     -0.1231
    145  CA       -17.3220  -15.9380    0.2150 C.3   320  GLU320      0.1699
    146  C        -16.0500  -15.1470    0.5390 C.2   320  GLU320      0.2592
    147  O        -14.9450  -15.6660    0.3260 O.2   320  GLU320     -0.2718
    148  CB       -18.6100  -15.1370    0.4240 C.3   320  GLU320      0.0402
    149  CG       -19.9000  -15.9350    0.1270 C.3   320  GLU320      0.1161
    150  CD       -20.2570  -16.0450   -1.3530 C.2   320  GLU320      0.3649
    151  OE1      -19.5400  -15.5100   -2.2400 O.co2 320  GLU320     -0.2457
    152  OE2      -21.2970  -16.6930   -1.6280 O.co2 320  GLU320     -0.2457
    153  N        -16.1730  -13.9260    1.0710 N.am  321  GLY321     -0.1957
    154  CA       -15.0110  -13.0430    1.2560 C.3   321  GLY321      0.1869
    155  C        -14.4170  -13.0460    2.6530 C.2   321  GLY321      0.2309
    156  O        -14.6810  -13.9360    3.4630 O.2   321  GLY321     -0.2863
    157  N        -10.6120  -10.8110    4.1110 N.3   323  TYR323     -0.1241
    158  CA        -9.3400  -10.4320    3.4790 C.3   323  TYR323      0.1605
    159  C         -8.2210  -10.1100    4.4560 C.2   323  TYR323      0.2264
    160  O         -8.4500   -9.8750    5.6480 O.2   323  TYR323     -0.2867
    161  CB        -9.5680   -9.2190    2.5490 C.3   323  TYR323      0.0534
    162  CG       -10.6250   -9.5700    1.5490 C.ar  323  TYR323     -0.0201
    163  CD1      -10.3220  -10.4040    0.4770 C.ar  323  TYR323     -0.0009
    164  CD2      -11.9480   -9.1940    1.7530 C.ar  323  TYR323     -0.0009
    165  CE1      -11.3050  -10.8170   -0.4060 C.ar  323  TYR323      0.0417
    166  CE2      -12.9480   -9.5960    0.8830 C.ar  323  TYR323      0.0417
    167  CZ       -12.6180  -10.4090   -0.1910 C.ar  323  TYR323      0.1957
    168  OH       -13.5780  -10.8490   -1.0560 O.3   323  TYR323     -0.2866
@<TRIPOS>BOND
     1    31    32    1
     2    86    85    2
     3    33    32    1
     4    33    34    2
     5    32    35    1
     6    85    84    1
     7     1     2    1
     8     3     2    1
     9     3     4    2
    10     2     5    1
    11    60    59    2
    12    39    37   ar
    13    35    36    1
    14    38    37   ar
    15    67    68    1
    16    37    36    1
    17    84    83    1
    18    84    87    1
    19    83    73   am
    20    59    58    1
    21    10    11    1
    22     5     6    1
    23    73    74    2
    24    73    72    1
    25    87    88    1
    26    71    72    1
    27    71    69   am
    28    72    75    1
    29     6     7    1
    30    68    69    1
    31    69    70    2
    32    11    12    1
    33    11    14    1
    34    58    61    1
    35    58    57    1
    36    13    12    2
    37    61    62    1
    38    43    42    2
    39   115   117   ar
    40   115   113   ar
    41    77    79   ar
    42    77    76   ar
    43   117   116   ar
    44    75    76    1
    45     7     8   ar
    46     7     9   ar
    47    57    49   am
    48    14    15    1
    49    79    81   ar
    50    76    78   ar
    51    62    63   ar
    52    62    64   ar
    53    42    41    1
    54    50    49    2
    55   113   112   ar
    56    25    24    2
    57    49    48    1
    58    29    28   ar
    59   122   123    1
    60   122   119    1
    61   116   114   ar
    62   120   121    2
    63   120   119    1
    64    40    46    1
    65    40    41    1
    66   125   123   ar
    67   125   127   ar
    68    63    65   ar
    69    47    48    1
    70    46    45    1
    71    64    66   ar
    72    48    51    1
    73   123   124   ar
    74   119   118    1
    75    15    16   ar
    76    15    17   ar
    77    81    82    1
    78    81    80   ar
    79    41    44    1
    80    45    44    1
    81    78    80   ar
    82    26    27    1
    83    26    23    1
    84    24    23    1
    85   112   114   ar
    86   112   111    1
    87    28    27    1
    88    28    30   ar
    89    16    18   ar
    90   127   126   ar
    91    17    19   ar
    92    65    66   ar
    93    23    22    1
    94   124   126   ar
    95    51    52    1
    96   111   108    1
    97   108   109    1
    98   108   107    1
    99    18    20   ar
   100    54    52   ar
   101    54    56   ar
   102    19    20   ar
   103   109   110    2
   104    52    53   ar
   105   151   150   ar
   106    20    21    1
   107   152   150   ar
   108    56    55   ar
   109   150   149    1
   110    53    55   ar
   111   168   167    1
   112   165   167   ar
   113   165   163   ar
   114   167   166   ar
   115   101   102    1
   116   101    98    1
   117   104   102   ar
   118   104   106   ar
   119   143   141    1
   120   102   103   ar
   121   149   148    1
   122   145   148    1
   123   145   146    1
   124   145   144    1
   125   147   146    2
   126   106   105   ar
   127   163   162   ar
   128   146   153   am
   129    99   100    2
   130    99    98    1
   131   103   105   ar
   132   142   140    1
   133   166   164   ar
   134    98    97    1
   135   153   154    1
   136   154   155    1
   137   140   141    1
   138   140   137    1
   139    95    94   ar
   140   162   164   ar
   141   162   161    1
   142    96    94   ar
   143    94    93    1
   144   135   133   ar
   145    93    90    1
   146   139   138    2
   147   161   158    1
   148   155   156    2
   149   137   138    1
   150   137   136    1
   151   158   157    1
   152   158   159    1
   153   133   134   ar
   154   133   132    1
   155    90    91    1
   156    90    89    1
   157    92    91    2
   158   159   160    2
   159   132   129    1
   160   129   128    1
   161   129   130    1
   162   131   130    2
