@<TRIPOS>MOLECULE
tmp/4zunA00.pdb
 159 154 0 0 0
SMALL
GASTEIGER

@<TRIPOS>ATOM
      1  N         -4.4610    6.2250  -18.4340 N.3    17  GLU17      -0.1245
      2  CA        -5.6510    5.7950  -19.1570 C.3    17  GLU17       0.1567
      3  C         -5.6720    4.2770  -19.0920 C.2    17  GLU17       0.2260
      4  O         -4.6420    3.6360  -19.2780 O.2    17  GLU17      -0.2867
      5  CB        -5.5940    6.2570  -20.6190 C.3    17  GLU17       0.0388
      6  CG        -6.6930    5.6230  -21.4780 C.3    17  GLU17       0.1160
      7  CD        -6.7450    6.1630  -22.8950 C.2    17  GLU17       0.3649
      8  OE1       -6.1550    7.2370  -23.1880 O.co2  17  GLU17      -0.2457
      9  OE2       -7.3710    5.4820  -23.7420 O.co2  17  GLU17      -0.2457
     10  N         -6.1970    1.0340  -20.7150 N.3    19  TYR19      -0.1241
     11  CA        -6.2510    0.5790  -22.0970 C.3    19  TYR19       0.1605
     12  C         -5.6050   -0.8110  -22.1600 C.2    19  TYR19       0.2264
     13  O         -4.4490   -0.9820  -21.7740 O.2    19  TYR19      -0.2867
     14  CB        -5.4860    1.5550  -22.9930 C.3    19  TYR19       0.0534
     15  CG        -5.4090    1.0950  -24.4270 C.ar   19  TYR19      -0.0201
     16  CD1       -6.4600    1.3130  -25.3020 C.ar   19  TYR19      -0.0009
     17  CD2       -4.2940    0.4230  -24.8980 C.ar   19  TYR19      -0.0009
     18  CE1       -6.4040    0.8660  -26.6070 C.ar   19  TYR19       0.0417
     19  CE2       -4.2250   -0.0240  -26.2000 C.ar   19  TYR19       0.0417
     20  CZ        -5.2820    0.2020  -27.0500 C.ar   19  TYR19       0.1957
     21  OH        -5.2180   -0.2410  -28.3540 O.3    19  TYR19      -0.2866
     22  N        -12.0180    3.9480  -19.0740 N.3   117  GLU117     -0.1245
     23  CA       -10.6960    4.3240  -19.5510 C.3   117  GLU117      0.1567
     24  C        -10.3100    5.7470  -19.1700 C.2   117  GLU117      0.2260
     25  O         -9.1140    6.0810  -19.1590 O.2   117  GLU117     -0.2867
     26  CB       -10.5480    4.1280  -21.0600 C.3   117  GLU117      0.0388
     27  CG       -11.1490    5.2480  -21.8960 C.3   117  GLU117      0.1160
     28  CD       -12.6540    5.1930  -21.8680 C.2   117  GLU117      0.3649
     29  OE1      -13.2280    4.0990  -22.0790 O.co2 117  GLU117     -0.2457
     30  OE2      -13.2790    6.2240  -21.5650 O.co2 117  GLU117     -0.2457
     31  N        -12.4300   16.8750  -25.5090 N.3   156  PRO156     -0.2116
     32  CA       -13.5800   16.7230  -26.4040 C.3   156  PRO156      0.1372
     33  C        -14.8500   16.4670  -25.6250 C.2   156  PRO156      0.2244
     34  O        -14.8400   16.3670  -24.3850 O.2   156  PRO156     -0.2868
     35  CB       -13.1960   15.5020  -27.2470 C.3   156  PRO156      0.0268
     36  CG       -12.3240   14.6520  -26.2850 C.3   156  PRO156      0.0207
     37  CD       -11.5240   15.7110  -25.5280 C.3   156  PRO156      0.0892
     38  N        -18.1370   14.5860  -27.1890 N.3   158  HIS158     -0.1226
     39  CA       -19.3250   13.8950  -27.7210 C.3   158  HIS158      0.1752
     40  C        -19.7040   12.5790  -27.0190 C.2   158  HIS158      0.2596
     41  O        -20.7950   12.0560  -27.2610 O.2   158  HIS158     -0.2718
     42  CB       -19.2380   13.7000  -29.2440 C.3   158  HIS158      0.0759
     43  CG       -18.1810   12.7360  -29.6930 C.ar  158  HIS158      0.0818
     44  ND1      -18.3130   11.9910  -30.8460 N.ar  158  HIS158     -0.2268
     45  CD2      -16.9460   12.4500  -29.2080 C.ar  158  HIS158      0.1154
     46  CE1      -17.2370   11.2450  -31.0280 C.ar  158  HIS158      0.1986
     47  NE2      -16.3840   11.5180  -30.0510 N.ar  158  HIS158     -0.2212
     48  N        -18.8390   12.0330  -26.1600 N.am  159  HIS159     -0.1975
     49  CA       -19.2100   10.8520  -25.3610 C.3   159  HIS159      0.1656
     50  C        -19.8370   11.2140  -24.0180 C.2   159  HIS159      0.2291
     51  O        -20.2620   10.2950  -23.2960 O.2   159  HIS159     -0.2864
     52  CB       -18.0140    9.9280  -25.1550 C.3   159  HIS159      0.0771
     53  CG       -17.4300    9.4510  -26.4360 C.ar  159  HIS159      0.0820
     54  ND1      -18.1600    8.7530  -27.3740 N.ar  159  HIS159     -0.2267
     55  CD2      -16.2220    9.6980  -26.9950 C.ar  159  HIS159      0.1154
     56  CE1      -17.3980    8.5260  -28.4340 C.ar  159  HIS159      0.1986
     57  NE2      -16.2270    9.1080  -28.2360 N.ar  159  HIS159     -0.2212
     58  N        -15.0640    8.2430  -22.4040 N.3   167  GLY167     -0.1210
     59  CA       -14.5280    8.4620  -23.7510 C.3   167  GLY167      0.1956
     60  C        -13.7280    9.7560  -23.8910 C.2   167  GLY167      0.2612
     61  O        -13.7600   10.4240  -24.9390 O.2   167  GLY167     -0.2717
     62  N        -13.0820   10.1360  -22.7810 N.am  168  TYR168     -0.1962
     63  CA       -12.1800   11.3090  -22.7350 C.3   168  TYR168      0.1771
     64  C        -12.9580   12.6310  -22.6320 C.2   168  TYR168      0.2619
     65  O        -12.3590   13.7140  -22.7160 O.2   168  TYR168     -0.2715
     66  CB       -11.2500   11.3900  -23.9660 C.3   168  TYR168      0.0574
     67  CG       -10.5160   10.1300  -24.3940 C.ar  168  TYR168     -0.0198
     68  CD1      -10.2880    9.0500  -23.5320 C.ar  168  TYR168     -0.0009
     69  CD2      -10.0330   10.0480  -25.7030 C.ar  168  TYR168     -0.0009
     70  CE1       -9.5860    7.9340  -23.9710 C.ar  168  TYR168      0.0417
     71  CE2       -9.3260    8.9450  -26.1510 C.ar  168  TYR168      0.0417
     72  CZ        -9.1050    7.8850  -25.2940 C.ar  168  TYR168      0.1957
     73  OH        -8.3930    6.7870  -25.7670 O.3   168  TYR168     -0.2866
     74  N        -14.2720   12.5350  -22.4270 N.am  169  CYS169     -0.1968
     75  CA       -15.1970   13.6640  -22.5060 C.3   169  CYS169      0.1712
     76  C        -15.9080   13.9170  -21.1800 C.2   169  CYS169      0.2296
     77  O        -16.2890   12.9770  -20.4700 O.2   169  CYS169     -0.2864
     78  CB       -16.2890   13.3580  -23.5430 C.3   169  CYS169      0.0983
     79  SG       -15.6760   13.1210  -25.2230 S.3   169  CYS169     -0.0798
     80  N        -16.7250   12.1740  -36.3290 N.3   195  ASP195     -0.1239
     81  CA       -15.7110   11.4210  -35.6250 C.3   195  ASP195      0.1674
     82  C        -15.9570    9.9160  -35.8920 C.2   195  ASP195      0.2266
     83  O        -17.0980    9.5040  -36.1000 O.2   195  ASP195     -0.2867
     84  CB       -15.8790   11.7650  -34.1300 C.3   195  ASP195      0.1410
     85  CG       -14.8240   11.1580  -33.2330 C.2   195  ASP195      0.3668
     86  OD1      -14.8900    9.9460  -32.9690 O.co2 195  ASP195     -0.2456
     87  OD2      -13.9320   11.8870  -32.7540 O.co2 195  ASP195     -0.2456
     88  N        -16.0720    7.5080  -33.8660 N.3   197  HIS197     -0.1241
     89  CA       -16.8960    6.9220  -32.8240 C.3   197  HIS197      0.1621
     90  C        -18.2790    7.5530  -32.7540 C.2   197  HIS197      0.2264
     91  O        -18.4510    8.7540  -33.0020 O.2   197  HIS197     -0.2867
     92  CB       -16.1820    7.0480  -31.4830 C.3   197  HIS197      0.0745
     93  CG       -14.8180    6.4320  -31.4820 C.ar  197  HIS197      0.0817
     94  ND1      -13.6840    7.1540  -31.7790 N.ar  197  HIS197     -0.2268
     95  CD2      -14.4040    5.1660  -31.2350 C.ar  197  HIS197      0.1154
     96  CE1      -12.6300    6.3580  -31.7270 C.ar  197  HIS197      0.1986
     97  NE2      -13.0350    5.1510  -31.3860 N.ar  197  HIS197     -0.2212
     98  N        -16.0810    0.8890  -29.9630 N.3   225  PHE225     -0.1241
     99  CA       -16.4140    1.8870  -28.9540 C.3   225  PHE225      0.1605
    100  C        -17.3490    2.9410  -29.5740 C.2   225  PHE225      0.2264
    101  O        -17.1130    3.3770  -30.6950 O.2   225  PHE225     -0.2867
    102  CB       -15.1100    2.5540  -28.4610 C.3   225  PHE225      0.0534
    103  CG       -15.3320    3.5260  -27.3370 C.ar  225  PHE225     -0.0203
    104  CD1      -15.2180    3.0960  -26.0180 C.ar  225  PHE225     -0.0042
    105  CD2      -15.6890    4.8560  -27.5890 C.ar  225  PHE225     -0.0042
    106  CE1      -15.4270    3.9680  -24.9670 C.ar  225  PHE225     -0.0003
    107  CE2      -15.9270    5.7430  -26.5210 C.ar  225  PHE225     -0.0003
    108  CZ       -15.8000    5.2790  -25.2150 C.ar  225  PHE225     -0.0000
    109  N        -19.7340    1.0300  -28.1010 N.3   227  HIS227     -0.1241
    110  CA       -20.2630   -0.3210  -27.8830 C.3   227  HIS227      0.1621
    111  C        -21.7470   -0.4560  -27.5390 C.2   227  HIS227      0.2264
    112  O        -22.2870   -1.5420  -27.7580 O.2   227  HIS227     -0.2867
    113  CB       -19.4780   -1.0750  -26.7990 C.3   227  HIS227      0.0745
    114  CG       -17.9970   -1.1670  -27.0590 C.ar  227  HIS227      0.0817
    115  ND1      -17.4660   -1.9260  -28.0810 N.ar  227  HIS227     -0.2268
    116  CD2      -16.9400   -0.6080  -26.4160 C.ar  227  HIS227      0.1154
    117  CE1      -16.1430   -1.8450  -28.0490 C.ar  227  HIS227      0.1986
    118  NE2      -15.8020   -1.0360  -27.0620 N.ar  227  HIS227     -0.2212
    119  N        -10.2370   10.8350  -36.3820 N.3   284  ASP284     -0.1239
    120  CA        -9.8760    9.4350  -36.1310 C.3   284  ASP284      0.1674
    121  C        -10.4560    8.4750  -37.1690 C.2   284  ASP284      0.2266
    122  O        -10.2390    7.2740  -37.0660 O.2   284  ASP284     -0.2867
    123  CB       -10.1620    8.9840  -34.6820 C.3   284  ASP284      0.1410
    124  CG       -11.5220    9.3840  -34.1820 C.2   284  ASP284      0.3668
    125  OD1      -12.3610    9.9040  -34.9420 O.co2 284  ASP284     -0.2456
    126  OD2      -11.7060    9.1520  -32.9610 O.co2 284  ASP284     -0.2456
    127  N         -6.5510    3.8840  -32.9960 N.3   291  ILE291     -0.1245
    128  CA        -7.6110    3.1740  -32.2850 C.3   291  ILE291      0.1561
    129  C         -8.8710    2.9360  -33.1410 C.2   291  ILE291      0.2260
    130  O         -9.9020    2.5330  -32.5920 O.2   291  ILE291     -0.2867
    131  CB        -7.9730    3.8920  -30.9520 C.3   291  ILE291      0.0252
    132  CG1       -8.5070    5.3070  -31.2170 C.3   291  ILE291      0.0019
    133  CG2       -6.7600    3.9250  -29.9960 C.3   291  ILE291      0.0019
    134  CD1       -9.2160    5.9280  -29.9900 C.3   291  ILE291      0.0001
    135  N        -13.3900   17.1980  -31.8410 N.3   320  GLU320     -0.1231
    136  CA       -13.5930   15.9870  -31.0540 C.3   320  GLU320      0.1699
    137  C        -12.2920   15.1850  -31.0650 C.2   320  GLU320      0.2592
    138  O        -11.2790   15.7060  -30.6050 O.2   320  GLU320     -0.2718
    139  CB       -14.7910   15.1720  -31.5830 C.3   320  GLU320      0.0402
    140  CG       -16.1590   15.9280  -31.6260 C.3   320  GLU320      0.1161
    141  CD       -16.8040   16.1620  -30.2570 C.2   320  GLU320      0.3649
    142  OE1      -16.2850   15.7170  -29.2040 O.co2 320  GLU320     -0.2457
    143  OE2      -17.9040   16.7730  -30.2690 O.co2 320  GLU320     -0.2457
    144  N        -12.2990   13.9500  -31.5760 N.am  321  GLY321     -0.1957
    145  CA       -11.1160   13.0760  -31.5450 C.3   321  GLY321      0.1869
    146  C        -10.2070   13.0910  -32.7690 C.2   321  GLY321      0.2309
    147  O        -10.2710   13.9670  -33.6110 O.2   321  GLY321     -0.2863
    148  N         -6.1280   10.9020  -33.1060 N.3   323  TYR323     -0.1241
    149  CA        -5.0790   10.5570  -32.1550 C.3   323  TYR323      0.1605
    150  C         -3.7680   10.1320  -32.8260 C.2   323  TYR323      0.2264
    151  O         -3.7180    9.8510  -34.0230 O.2   323  TYR323     -0.2867
    152  CB        -5.5840    9.4020  -31.2430 C.3   323  TYR323      0.0534
    153  CG        -6.8520    9.8400  -30.5680 C.ar  323  TYR323     -0.0201
    154  CD1       -6.8010   10.7340  -29.4960 C.ar  323  TYR323     -0.0009
    155  CD2       -8.1100    9.4500  -31.0490 C.ar  323  TYR323     -0.0009
    156  CE1       -7.9680   11.2120  -28.9090 C.ar  323  TYR323      0.0417
    157  CE2       -9.2990    9.9360  -30.4480 C.ar  323  TYR323      0.0417
    158  CZ        -9.2010   10.8040  -29.3910 C.ar  323  TYR323      0.1957
    159  OH       -10.3180   11.3070  -28.7800 O.3   323  TYR323     -0.2866
@<TRIPOS>BOND
     1   121   122    2
     2   121   120    1
     3   119   120    1
     4    80    81    1
     5   120   123    1
     6    83    82    2
     7    82    81    1
     8    81    84    1
     9   125   124   ar
    10   123   124    1
    11   124   126   ar
    12    84    85    1
    13   151   150    2
    14    88    89    1
    15   147   146    2
    16    85    86   ar
    17    85    87   ar
    18   129   130    2
    19   129   128    1
    20   148   149    1
    21    91    90    2
    22   127   128    1
    23   150   149    1
    24    89    90    1
    25    89    92    1
    26   146   145    1
    27   128   131    1
    28   149   152    1
    29   135   136    1
    30    94    96   ar
    31    94    93   ar
    32    96    97   ar
    33   140   139    1
    34   140   141    1
    35   139   136    1
    36   144   145    1
    37   144   137   am
    38    92    93    1
    39    93    95   ar
    40    97    95   ar
    41   152   153    1
    42   132   131    1
    43   132   134    1
    44   137   136    1
    45   137   138    2
    46   155   153   ar
    47   155   157   ar
    48    46    44   ar
    49    46    47   ar
    50   131   133    1
    51    44    43   ar
    52   101   100    2
    53   153   154   ar
    54   157   158   ar
    55   143   141   ar
    56   141   142   ar
    57    47    45   ar
    58    98    99    1
    59    43    42    1
    60    43    45   ar
    61   100    99    1
    62   154   156   ar
    63   158   156   ar
    64   158   159    1
    65    42    39    1
    66    99   102    1
    67   102   103    1
    68    56    57   ar
    69    56    54   ar
    70    21    20    1
    71    57    55   ar
    72   109   110    1
    73   115   117   ar
    74   115   114   ar
    75   117   118   ar
    76   110   111    1
    77   110   113    1
    78   112   111    2
    79    39    38    1
    80    39    40    1
    81   105   103   ar
    82   105   107   ar
    83    54    53   ar
    84   103   104   ar
    85    41    40    2
    86    35    32    1
    87    35    36    1
    88   118   116   ar
    89   114   113    1
    90   114   116   ar
    91    20    18   ar
    92    20    19   ar
    93    40    48   am
    94    55    53   ar
    95    18    16   ar
    96   107   108   ar
    97    53    52    1
    98    32    33    1
    99    32    31    1
   100    36    37    1
   101    19    17   ar
   102    48    49    1
   103    71    69   ar
   104    71    72   ar
   105   104   106   ar
   106    73    72    1
   107    69    67   ar
   108    33    34    2
   109    37    31    1
   110    49    52    1
   111    49    50    1
   112    16    15   ar
   113    72    70   ar
   114    79    78    1
   115   108   106   ar
   116    61    60    2
   117    17    15   ar
   118    15    14    1
   119    67    66    1
   120    67    68   ar
   121    50    51    2
   122    70    68   ar
   123    66    63    1
   124    60    59    1
   125    60    62   am
   126    59    58    1
   127     9     7   ar
   128    78    75    1
   129     8     7   ar
   130    14    11    1
   131     7     6    1
   132    62    63    1
   133    63    64    1
   134    65    64    2
   135    64    74   am
   136    75    74    1
   137    75    76    1
   138    12    11    1
   139    12    13    2
   140    11    10    1
   141    29    28   ar
   142    27    28    1
   143    27    26    1
   144    28    30   ar
   145     6     5    1
   146    76    77    2
   147    26    23    1
   148     5     2    1
   149    23    24    1
   150    23    22    1
   151     4     3    2
   152    24    25    2
   153     2     3    1
   154     2     1    1
