@<TRIPOS>MOLECULE
tmp/4zuoB00.pdb
 144 139 0 0 0
SMALL
GASTEIGER

@<TRIPOS>ATOM
      1  N         -5.6150   -5.0480   -9.9230 N.3    17  GLU17      -0.1245
      2  CA        -6.9370   -4.5670   -9.5400 C.3    17  GLU17       0.1567
      3  C         -6.8520   -3.0490   -9.6190 C.2    17  GLU17       0.2260
      4  O         -5.8600   -2.4480   -9.1760 O.2    17  GLU17      -0.2867
      5  CB        -7.2570   -4.9770   -8.0950 C.3    17  GLU17       0.0388
      6  CG        -8.5030   -4.2930   -7.5100 C.3    17  GLU17       0.1160
      7  CD        -8.8820   -4.7940   -6.1340 C.2    17  GLU17       0.3649
      8  OE1       -8.3900   -5.8700   -5.6880 O.co2  17  GLU17      -0.2457
      9  OE2       -9.7370   -4.1180   -5.5110 O.co2  17  GLU17      -0.2457
     10  N         -7.6250    0.2010   -8.1730 N.3    19  TYR19      -0.1241
     11  CA        -7.9670    0.6920   -6.8420 C.3    19  TYR19       0.1605
     12  C         -7.3490    2.0800   -6.6620 C.2    19  TYR19       0.2264
     13  O         -6.1390    2.2540   -6.8350 O.2    19  TYR19      -0.2867
     14  CB        -7.4270   -0.2660   -5.7690 C.3    19  TYR19       0.0534
     15  CG        -7.6100    0.2460   -4.3570 C.ar   19  TYR19      -0.0201
     16  CD1       -8.8410    0.1440   -3.7210 C.ar   19  TYR19      -0.0009
     17  CD2       -6.5630    0.8350   -3.6630 C.ar   19  TYR19      -0.0009
     18  CE1       -9.0260    0.6100   -2.4310 C.ar   19  TYR19       0.0417
     19  CE2       -6.7410    1.3110   -2.3730 C.ar   19  TYR19       0.0417
     20  CZ        -7.9770    1.1920   -1.7660 C.ar   19  TYR19       0.1957
     21  OH        -8.1710    1.6590   -0.4820 O.3    19  TYR19      -0.2866
     22  N        -13.0370   -2.7430  -11.2250 N.3   117  GLU117     -0.1245
     23  CA       -11.8740   -3.0780  -10.4240 C.3   117  GLU117      0.1567
     24  C        -11.4460   -4.5210  -10.6390 C.2   117  GLU117      0.2260
     25  O        -10.2910   -4.8570  -10.3430 O.2   117  GLU117     -0.2867
     26  CB       -12.0660   -2.7880   -8.9320 C.3   117  GLU117      0.0388
     27  CG       -12.8730   -3.8530   -8.1920 C.3   117  GLU117      0.1160
     28  CD       -14.3200   -3.8780   -8.6280 C.2   117  GLU117      0.3649
     29  OE1      -14.9480   -2.8090   -8.8030 O.co2 117  GLU117     -0.2457
     30  OE2      -14.8300   -4.9690   -8.9220 O.co2 117  GLU117     -0.2457
     31  N        -14.9580  -15.5840   -4.8780 N.3   156  PRO156     -0.2116
     32  CA       -16.2710  -15.4200   -4.2670 C.3   156  PRO156      0.1372
     33  C        -17.3200  -15.1750   -5.3480 C.2   156  PRO156      0.2244
     34  O        -17.0090  -15.1190   -6.5530 O.2   156  PRO156     -0.2868
     35  CB       -16.0740  -14.1880   -3.3810 C.3   156  PRO156      0.0268
     36  CG       -15.0280  -13.3860   -4.1040 C.3   156  PRO156      0.0207
     37  CD       -14.0830  -14.4130   -4.6600 C.3   156  PRO156      0.0892
     38  N        -20.9010  -13.3070   -4.6590 N.3   158  HIS158     -0.1226
     39  CA       -22.1700  -12.6160   -4.4340 C.3   158  HIS158      0.1752
     40  C        -22.4160  -11.3380   -5.2410 C.2   158  HIS158      0.2596
     41  O        -23.5470  -10.8550   -5.2770 O.2   158  HIS158     -0.2718
     42  CB       -22.4420  -12.3910   -2.9280 C.3   158  HIS158      0.0759
     43  CG       -21.5430  -11.3940   -2.2400 C.ar  158  HIS158      0.0818
     44  ND1      -21.9820  -10.6760   -1.1460 N.ar  158  HIS158     -0.2268
     45  CD2      -20.2610  -10.9940   -2.4580 C.ar  158  HIS158      0.1154
     46  CE1      -21.0280   -9.8720   -0.7260 C.ar  158  HIS158      0.1986
     47  NE2      -19.9540  -10.0570   -1.4840 N.ar  158  HIS158     -0.2212
     48  N        -21.3810  -10.7950   -5.8920 N.am  159  HIS159     -0.1975
     49  CA       -21.5500   -9.6590   -6.7820 C.3   159  HIS159      0.1656
     50  C        -21.8630  -10.0510   -8.2160 C.2   159  HIS159      0.2291
     51  O        -22.1580   -9.1800   -9.0330 O.2   159  HIS159     -0.2864
     52  CB       -20.3580   -8.7020   -6.7530 C.3   159  HIS159      0.0771
     53  CG       -20.1060   -8.1130   -5.4060 C.ar  159  HIS159      0.0820
     54  ND1      -21.0510   -7.3500   -4.7490 N.ar  159  HIS159     -0.2267
     55  CD2      -19.0560   -8.2370   -4.5570 C.ar  159  HIS159      0.1154
     56  CE1      -20.5740   -7.0060   -3.5600 C.ar  159  HIS159      0.1986
     57  NE2      -19.3610   -7.5170   -3.4250 N.ar  159  HIS159     -0.2212
     58  N        -16.8250   -6.9890   -8.5480 N.3   167  GLY167     -0.1210
     59  CA       -16.5840   -7.1930   -7.1290 C.3   167  GLY167      0.1956
     60  C        -15.8460   -8.4860   -6.7980 C.2   167  GLY167      0.2611
     61  O        -16.1130   -9.1230   -5.7710 O.2   167  GLY167     -0.2717
     62  N        -14.9360   -8.8900   -7.6970 N.am  168  TYR168     -0.1976
     63  CA       -14.0610  -10.0610   -7.5270 C.3   168  TYR168      0.1639
     64  C        -14.7950  -11.3800   -7.8180 C.2   168  TYR168      0.2290
     65  O        -14.2450  -12.4710   -7.5670 O.2   168  TYR168     -0.2864
     66  CB       -13.4490  -10.1270   -6.1180 C.3   168  TYR168      0.0560
     67  CG       -12.8840   -8.8450   -5.5320 C.ar  168  TYR168     -0.0198
     68  CD1      -12.4150   -7.7920   -6.3390 C.ar  168  TYR168     -0.0009
     69  CD2      -12.7790   -8.7020   -4.1430 C.ar  168  TYR168     -0.0009
     70  CE1      -11.8810   -6.6340   -5.7750 C.ar  168  TYR168      0.0417
     71  CE2      -12.2380   -7.5500   -3.5620 C.ar  168  TYR168      0.0417
     72  CZ       -11.7940   -6.5340   -4.3840 C.ar  168  TYR168      0.1957
     73  OH       -11.2430   -5.4140   -3.7970 O.3   168  TYR168     -0.2866
     74  N        -21.6360  -10.9710    4.5360 N.3   195  ASP195     -0.1239
     75  CA       -20.4840  -10.2190    4.0490 C.3   195  ASP195      0.1674
     76  C        -20.7610   -8.7220    4.2350 C.2   195  ASP195      0.2266
     77  O        -21.9250   -8.3000    4.1740 O.2   195  ASP195     -0.2867
     78  CB       -20.2720  -10.6040    2.5750 C.3   195  ASP195      0.1410
     79  CG       -19.0460   -9.9950    1.9450 C.2   195  ASP195      0.3668
     80  OD1      -19.0520   -8.7600    1.6980 O.co2 195  ASP195     -0.2456
     81  OD2      -18.0710  -10.7170    1.6390 O.co2 195  ASP195     -0.2456
     82  N        -20.3730   -6.3460    2.2280 N.3   197  HIS197     -0.1241
     83  CA       -20.9230   -5.7450    1.0230 C.3   197  HIS197      0.1621
     84  C        -22.2810   -6.3150    0.6640 C.2   197  HIS197      0.2264
     85  O        -22.5270   -7.5060    0.8530 O.2   197  HIS197     -0.2867
     86  CB       -19.9510   -5.9310   -0.1500 C.3   197  HIS197      0.0745
     87  CG       -18.5930   -5.3520    0.1160 C.ar  197  HIS197      0.0817
     88  ND1      -17.5420   -6.0830    0.6470 N.ar  197  HIS197     -0.2268
     89  CD2      -18.1380   -4.0810   -0.0260 C.ar  197  HIS197      0.1154
     90  CE1      -16.4900   -5.2840    0.7780 C.ar  197  HIS197      0.1986
     91  NE2      -16.8300   -4.0670    0.3850 N.ar  197  HIS197     -0.2212
     92  N        -19.3990    0.2070   -1.6610 N.3   225  PHE225     -0.1241
     93  CA       -19.5420   -0.7510   -2.7510 C.3   225  PHE225      0.1605
     94  C        -20.6100   -1.7740   -2.3520 C.2   225  PHE225      0.2264
     95  O        -20.6030   -2.2530   -1.2240 O.2   225  PHE225     -0.2867
     96  CB       -18.1860   -1.4550   -2.9900 C.3   225  PHE225      0.0534
     97  CG       -18.1850   -2.3650   -4.1800 C.ar  225  PHE225     -0.0203
     98  CD1      -17.7540   -1.8950   -5.4150 C.ar  225  PHE225     -0.0042
     99  CD2      -18.6170   -3.6780   -4.0740 C.ar  225  PHE225     -0.0042
    100  CE1      -17.7650   -2.7410   -6.5410 C.ar  225  PHE225     -0.0003
    101  CE2      -18.6490   -4.5030   -5.1940 C.ar  225  PHE225     -0.0003
    102  CZ       -18.2240   -4.0230   -6.4260 C.ar  225  PHE225     -0.0000
    103  N        -22.6530    0.1800   -4.2360 N.3   227  HIS227     -0.1241
    104  CA       -23.0870    1.5580   -4.5310 C.3   227  HIS227      0.1621
    105  C        -24.4640    1.7060   -5.1660 C.2   227  HIS227      0.2264
    106  O        -25.0750    2.7610   -5.0060 O.2   227  HIS227     -0.2867
    107  CB       -22.1080    2.3330   -5.4440 C.3   227  HIS227      0.0745
    108  CG       -20.6660    2.2180   -5.0650 C.ar  227  HIS227      0.0817
    109  ND1      -20.1220    2.8990   -3.9990 N.ar  227  HIS227     -0.2268
    110  CD2      -19.6450    1.5310   -5.6260 C.ar  227  HIS227      0.1154
    111  CE1      -18.8340    2.6290   -3.9060 C.ar  227  HIS227      0.1986
    112  NE2      -18.5190    1.8050   -4.8900 N.ar  227  HIS227     -0.2212
    113  N        -15.3320   -9.6390    6.0220 N.3   284  ASP284     -0.1239
    114  CA       -14.9160   -8.2440    5.8500 C.3   284  ASP284      0.1674
    115  C        -15.7220   -7.2980    6.7410 C.2   284  ASP284      0.2266
    116  O        -15.5030   -6.1000    6.6810 O.2   284  ASP284     -0.2867
    117  CB       -14.9060   -7.7960    4.3730 C.3   284  ASP284      0.1410
    118  CG       -16.0520   -8.3190    3.5620 C.2   284  ASP284      0.3668
    119  OD1      -17.0510   -8.8990    4.0780 O.co2 284  ASP284     -0.2456
    120  OD2      -15.9340   -8.1320    2.3230 O.co2 284  ASP284     -0.2456
    121  N        -10.8500   -2.7230    3.6870 N.3   291  ILE291     -0.1245
    122  CA       -11.6870   -2.0100    2.7220 C.3   291  ILE291      0.1561
    123  C        -13.1130   -1.7660    3.2280 C.2   291  ILE291      0.2260
    124  O        -13.9620   -1.3380    2.4600 O.2   291  ILE291     -0.2867
    125  CB       -11.7040   -2.7160    1.3220 C.3   291  ILE291      0.0252
    126  CG1      -12.3580   -4.0990    1.4000 C.3   291  ILE291      0.0019
    127  CG2      -10.2750   -2.7650    0.7310 C.3   291  ILE291      0.0019
    128  CD1      -12.5870   -4.7310    0.0090 C.3   291  ILE291      0.0001
    129  N        -16.1360  -12.6580    0.9630 N.3   321  GLY321     -0.1225
    130  CA       -14.9640  -11.7900    1.1840 C.3   321  GLY321      0.1811
    131  C        -14.3860  -11.8020    2.5880 C.2   321  GLY321      0.2280
    132  O        -14.6430  -12.6890    3.4050 O.2   321  GLY321     -0.2866
    133  N        -10.5030   -9.6390    4.0090 N.3   323  TYR323     -0.1241
    134  CA        -9.2140   -9.3290    3.3750 C.3   323  TYR323      0.1605
    135  C         -8.1070   -8.9810    4.3480 C.2   323  TYR323      0.2264
    136  O         -8.3330   -8.6930    5.5370 O.2   323  TYR323     -0.2867
    137  CB        -9.4130   -8.1420    2.3990 C.3   323  TYR323      0.0534
    138  CG       -10.5100   -8.4680    1.4300 C.ar  323  TYR323     -0.0201
    139  CD1      -10.2820   -9.3680    0.4000 C.ar  323  TYR323     -0.0009
    140  CD2      -11.7960   -8.0160    1.6360 C.ar  323  TYR323     -0.0009
    141  CE1      -11.2870   -9.7600   -0.4440 C.ar  323  TYR323      0.0417
    142  CE2      -12.8250   -8.3960    0.7860 C.ar  323  TYR323      0.0417
    143  CZ       -12.5730   -9.2680   -0.2500 C.ar  323  TYR323      0.1957
    144  OH       -13.5920   -9.6690   -1.0870 O.3   323  TYR323     -0.2866
@<TRIPOS>BOND
     1    22    23    1
     2    24    23    1
     3    24    25    2
     4    23    26    1
     5     1     2    1
     6     3     2    1
     7     3     4    2
     8     2     5    1
     9    51    50    2
    10    26    27    1
    11    30    28   ar
    12    29    28   ar
    13    28    27    1
    14    58    59    1
    15    50    49    1
    16    10    11    1
    17     5     6    1
    18    64    65    2
    19    64    63    1
    20    62    63    1
    21    62    60   am
    22    63    66    1
    23     6     7    1
    24    59    60    1
    25    11    12    1
    26    11    14    1
    27    13    12    2
    28    60    61    2
    29    49    52    1
    30    49    48    1
    31    52    53    1
    32    34    33    2
    33   100   102   ar
    34   100    98   ar
    35   102   101   ar
    36    68    70   ar
    37    68    67   ar
    38     7     8   ar
    39     7     9   ar
    40    66    67    1
    41    48    40   am
    42    70    72   ar
    43    14    15    1
    44   110   108   ar
    45   110   112   ar
    46    67    69   ar
    47   107   108    1
    48   107   104    1
    49    98    97   ar
    50    53    54   ar
    51    53    55   ar
    52    33    32    1
    53    41    40    2
    54    40    39    1
    55   101    99   ar
    56   105   106    2
    57   105   104    1
    58   108   109   ar
    59   112   111   ar
    60    31    37    1
    61    31    32    1
    62    54    56   ar
    63    37    36    1
    64    38    39    1
    65    55    57   ar
    66   104   103    1
    67    39    42    1
    68    72    73    1
    69    72    71   ar
    70    15    16   ar
    71    15    17   ar
    72    32    35    1
    73    97    99   ar
    74    97    96    1
    75    69    71   ar
    76    36    35    1
    77   109   111   ar
    78    16    18   ar
    79    17    19   ar
    80    56    57   ar
    81    96    93    1
    82    42    43    1
    83    93    94    1
    84    93    92    1
    85    45    43   ar
    86    45    47   ar
    87    18    20   ar
    88    19    20   ar
    89    94    95    2
    90    43    44   ar
    91    20    21    1
    92    47    46   ar
    93    44    46   ar
    94   144   143    1
    95   141   143   ar
    96   141   139   ar
    97   143   142   ar
    98    86    87    1
    99    86    83    1
   100    89    87   ar
   101    89    91   ar
   102   128   126    1
   103    87    88   ar
   104    91    90   ar
   105   139   138   ar
   106    88    90   ar
   107    84    85    2
   108    84    83    1
   109   127   125    1
   110   142   140   ar
   111   129   130    1
   112    83    82    1
   113   130   131    1
   114   125   126    1
   115   125   122    1
   116   138   140   ar
   117   138   137    1
   118    81    79   ar
   119    80    79   ar
   120    79    78    1
   121   120   118   ar
   122   137   134    1
   123   124   123    2
   124    78    75    1
   125   131   132    2
   126   122   123    1
   127   122   121    1
   128   134   133    1
   129   134   135    1
   130   118   119   ar
   131   118   117    1
   132    75    76    1
   133    75    74    1
   134    77    76    2
   135   135   136    2
   136   117   114    1
   137   114   113    1
   138   114   115    1
   139   116   115    2
