@<TRIPOS>MOLECULE
tmp/4zupA00.pdb
 140 135 0 0 0
SMALL
GASTEIGER

@<TRIPOS>ATOM
      1  N         13.0960   27.3480   21.8000 N.3    17  GLU17      -0.1245
      2  CA        11.7740   27.8230   22.2230 C.3    17  GLU17       0.1567
      3  C         11.8300   29.3380   22.1450 C.2    17  GLU17       0.2260
      4  O         12.8050   29.9400   22.6230 O.2    17  GLU17      -0.2867
      5  CB        11.4790   27.4250   23.6790 C.3    17  GLU17       0.0388
      6  CG        10.2300   28.0620   24.2500 C.3    17  GLU17       0.1160
      7  CD         9.8720   27.6000   25.6410 C.2    17  GLU17       0.3649
      8  OE1       10.3430   26.5180   26.0570 O.co2  17  GLU17      -0.2457
      9  OE2        9.0680   28.3080   26.2870 O.co2  17  GLU17      -0.2457
     10  N         10.9890   32.5460   23.6310 N.3    19  TYR19      -0.1241
     11  CA        10.6030   33.0220   24.9500 C.3    19  TYR19       0.1605
     12  C         11.2620   34.3760   25.1840 C.2    19  TYR19       0.2264
     13  O         12.4790   34.5230   25.0410 O.2    19  TYR19      -0.2867
     14  CB        11.0730   32.0350   26.0290 C.3    19  TYR19       0.0534
     15  CG        10.8050   32.5190   27.4340 C.ar   19  TYR19      -0.0201
     16  CD1        9.5310   32.4450   27.9720 C.ar   19  TYR19      -0.0009
     17  CD2       11.8160   33.0590   28.2180 C.ar   19  TYR19      -0.0009
     18  CE1        9.2630   32.8880   29.2500 C.ar   19  TYR19       0.0417
     19  CE2       11.5540   33.5060   29.5090 C.ar   19  TYR19       0.0417
     20  CZ        10.2710   33.4120   30.0120 C.ar   19  TYR19       0.1957
     21  OH         9.9730   33.8530   31.2860 O.3    19  TYR19      -0.2866
     22  N          5.6130   29.6060   20.5590 N.3   117  GLU117     -0.1245
     23  CA         6.6290   29.2350   21.5360 C.3   117  GLU117      0.1567
     24  C          6.8930   27.7260   21.5900 C.2   117  GLU117      0.2260
     25  O          7.5540   27.2380   22.5120 O.2   117  GLU117     -0.2867
     26  CB         6.2710   29.7870   22.9330 C.3   117  GLU117      0.0388
     27  CG         4.7860   29.6780   23.3540 C.3   117  GLU117      0.1160
     28  CD         4.3450   28.2370   23.6010 C.2   117  GLU117      0.3649
     29  OE1        4.3880   27.7980   24.7750 O.co2 117  GLU117     -0.2457
     30  OE2        3.9580   27.5480   22.6410 O.co2 117  GLU117     -0.2457
     31  N          3.8660   16.7970   26.9680 N.3   156  PRO156     -0.2116
     32  CA         2.5390   16.9540   27.5480 C.3   156  PRO156      0.1372
     33  C          1.4850   17.1990   26.4720 C.2   156  PRO156      0.2244
     34  O          1.8010   17.2820   25.2710 O.2   156  PRO156     -0.2868
     35  CB         2.7060   18.2010   28.4110 C.3   156  PRO156      0.0268
     36  CG         3.7560   18.9990   27.6880 C.3   156  PRO156      0.0207
     37  CD         4.7240   17.9700   27.2040 C.3   156  PRO156      0.0892
     38  N         -2.0950   19.0720   27.1430 N.3   158  HIS158     -0.1226
     39  CA        -3.3830   19.7470   27.3510 C.3   158  HIS158      0.1752
     40  C         -3.6070   21.0430   26.5610 C.2   158  HIS158      0.2596
     41  O         -4.7510   21.5230   26.5120 O.2   158  HIS158     -0.2718
     42  CB        -3.7110   19.9400   28.8480 C.3   158  HIS158      0.0759
     43  CG        -2.8680   20.9520   29.5570 C.ar  158  HIS158      0.0818
     44  ND1       -3.3240   21.6250   30.6790 N.ar  158  HIS158     -0.2268
     45  CD2       -1.6100   21.4070   29.3370 C.ar  158  HIS158      0.1154
     46  CE1       -2.3910   22.4470   31.1110 C.ar  158  HIS158      0.1986
     47  NE2       -1.3390   22.3390   30.3170 N.ar  158  HIS158     -0.2212
     48  N         -2.5660   21.5760   25.9140 N.am  159  HIS159     -0.1975
     49  CA        -2.7460   22.7220   25.0250 C.3   159  HIS159      0.1656
     50  C         -3.0520   22.3270   23.5840 C.2   159  HIS159      0.2291
     51  O         -3.3360   23.1960   22.7720 O.2   159  HIS159     -0.2864
     52  CB        -1.5320   23.6410   25.0700 C.3   159  HIS159      0.0771
     53  CG        -1.2930   24.2270   26.4060 C.ar  159  HIS159      0.0820
     54  ND1       -2.2510   24.9610   27.0760 N.ar  159  HIS159     -0.2267
     55  CD2       -0.2130   24.1660   27.2160 C.ar  159  HIS159      0.1154
     56  CE1       -1.7620   25.3340   28.2470 C.ar  159  HIS159      0.1986
     57  NE2       -0.5250   24.8790   28.3500 N.ar  159  HIS159     -0.2212
     58  N          2.0040   25.4040   23.2150 N.3   167  GLY167     -0.1210
     59  CA         2.2360   25.1990   24.6460 C.3   167  GLY167      0.1956
     60  C          2.9980   23.9250   24.9800 C.2   167  GLY167      0.2612
     61  O          2.7280   23.3130   25.9980 O.2   167  GLY167     -0.2717
     62  N          3.8960   23.5190   24.0800 N.am  168  TYR168     -0.1962
     63  CA         4.7690   22.3400   24.2420 C.3   168  TYR168      0.1771
     64  C          4.0300   21.0240   23.9840 C.2   168  TYR168      0.2619
     65  O          4.5870   19.9480   24.2440 O.2   168  TYR168     -0.2715
     66  CB         5.3940   22.2880   25.6430 C.3   168  TYR168      0.0574
     67  CG         5.9430   23.5870   26.2150 C.ar  168  TYR168     -0.0198
     68  CD1        6.3290   24.6720   25.4110 C.ar  168  TYR168     -0.0009
     69  CD2        6.0970   23.7020   27.5830 C.ar  168  TYR168     -0.0009
     70  CE1        6.8620   25.8260   25.9780 C.ar  168  TYR168      0.0417
     71  CE2        6.6190   24.8450   28.1640 C.ar  168  TYR168      0.0417
     72  CZ         7.0000   25.8970   27.3580 C.ar  168  TYR168      0.1957
     73  OH         7.5500   27.0260   27.9490 O.3   168  TYR168     -0.2866
     74  N          2.7930   21.1150   23.4740 N.am  169  CYS169     -0.1968
     75  CA         1.9030   19.9640   23.3200 C.3   169  CYS169      0.1712
     76  C          1.5300   19.6960   21.8650 C.2   169  CYS169      0.2296
     77  O          1.3280   20.6370   21.0770 O.2   169  CYS169     -0.2864
     78  CB         0.5950   20.2160   24.0530 C.3   169  CYS169      0.0983
     79  SG         0.7770   20.5780   25.8210 S.3   169  CYS169     -0.0798
     80  N         -2.9230   21.3650   36.3840 N.3   195  ASP195     -0.1239
     81  CA        -1.7610   22.1190   35.9300 C.3   195  ASP195      0.1674
     82  C         -2.0640   23.6140   36.0870 C.2   195  ASP195      0.2266
     83  O         -3.2240   24.0200   36.0190 O.2   195  ASP195     -0.2867
     84  CB        -1.5370   21.7170   34.4650 C.3   195  ASP195      0.1410
     85  CG        -0.3290   22.3670   33.8340 C.2   195  ASP195      0.3668
     86  OD1       -0.3410   23.6120   33.6030 O.co2 195  ASP195     -0.2456
     87  OD2        0.6570   21.6270   33.5560 O.co2 195  ASP195     -0.2456
     88  N         -1.6620   26.0000   34.0870 N.3   197  HIS197     -0.1241
     89  CA        -2.2170   26.6060   32.8810 C.3   197  HIS197      0.1621
     90  C         -3.5480   26.0080   32.5080 C.2   197  HIS197      0.2264
     91  O         -3.8000   24.8230   32.7360 O.2   197  HIS197     -0.2867
     92  CB        -1.2540   26.4340   31.7170 C.3   197  HIS197      0.0745
     93  CG         0.0970   27.0050   32.0030 C.ar  197  HIS197      0.0817
     94  ND1        1.1310   26.2600   32.5430 N.ar  197  HIS197     -0.2268
     95  CD2        0.5690   28.2700   31.8680 C.ar  197  HIS197      0.1154
     96  CE1        2.1920   27.0380   32.6990 C.ar  197  HIS197      0.1986
     97  NE2        1.8800   28.2570   32.2870 N.ar  197  HIS197     -0.2212
     98  N         -0.7230   32.5380   30.2910 N.3   225  PHE225     -0.1241
     99  CA        -0.8390   31.6120   29.1630 C.3   225  PHE225      0.1605
    100  C         -1.8800   30.5530   29.5300 C.2   225  PHE225      0.2264
    101  O         -1.8940   30.0650   30.6540 O.2   225  PHE225     -0.2867
    102  CB         0.5380   30.9450   28.9270 C.3   225  PHE225      0.0534
    103  CG         0.5700   30.0410   27.7190 C.ar  225  PHE225     -0.0203
    104  CD1        0.9810   30.5310   26.5020 C.ar  225  PHE225     -0.0042
    105  CD2        0.1590   28.7130   27.8030 C.ar  225  PHE225     -0.0042
    106  CE1        0.9930   29.7120   25.3800 C.ar  225  PHE225     -0.0003
    107  CE2        0.1480   27.8980   26.6810 C.ar  225  PHE225     -0.0003
    108  CZ         0.5700   28.4030   25.4680 C.ar  225  PHE225     -0.0000
    109  N          3.3900   22.7250   37.9490 N.3   284  ASP284     -0.1239
    110  CA         3.7590   24.1280   37.7820 C.3   284  ASP284      0.1674
    111  C          2.9740   25.0880   38.6620 C.2   284  ASP284      0.2266
    112  O          3.2500   26.2750   38.6350 O.2   284  ASP284     -0.2867
    113  CB         3.7610   24.5790   36.2980 C.3   284  ASP284      0.1410
    114  CG         2.6040   24.0540   35.4870 C.2   284  ASP284      0.3668
    115  OD1        1.6380   23.5080   36.0710 O.co2 284  ASP284     -0.2456
    116  OD2        2.6940   24.2570   34.2410 O.co2 284  ASP284     -0.2456
    117  N          7.7170   29.6800   35.5990 N.3   291  ILE291     -0.1245
    118  CA         6.8820   30.3770   34.6300 C.3   291  ILE291      0.1561
    119  C          5.4440   30.6000   35.1510 C.2   291  ILE291      0.2260
    120  O          4.5780   31.0410   34.3950 O.2   291  ILE291     -0.2867
    121  CB         6.9220   29.6820   33.2060 C.3   291  ILE291      0.0252
    122  CG1        6.3330   28.2690   33.2530 C.3   291  ILE291      0.0019
    123  CG2        8.3710   29.7120   32.6250 C.3   291  ILE291      0.0019
    124  CD1        6.0730   27.6610   31.8420 C.3   291  ILE291      0.0001
    125  N          2.5870   19.7020   32.8670 N.3   321  GLY321     -0.1225
    126  CA         3.7240   20.6100   33.0650 C.3   321  GLY321      0.1811
    127  C          4.3470   20.5980   34.4550 C.2   321  GLY321      0.2280
    128  O          4.0730   19.7290   35.2910 O.2   321  GLY321     -0.2866
    129  N          8.1720   22.8010   35.8830 N.3   323  TYR323     -0.1241
    130  CA         9.4480   23.1310   35.2750 C.3   323  TYR323      0.1605
    131  C         10.5400   23.4830   36.2540 C.2   323  TYR323      0.2264
    132  O         10.2790   23.7900   37.4210 O.2   323  TYR323     -0.2867
    133  CB         9.2410   24.2900   34.2890 C.3   323  TYR323      0.0534
    134  CG         8.1730   23.9120   33.3090 C.ar  323  TYR323     -0.0201
    135  CD1        8.4600   23.0370   32.2630 C.ar  323  TYR323     -0.0009
    136  CD2        6.8620   24.3260   33.4920 C.ar  323  TYR323     -0.0009
    137  CE1        7.4710   22.6280   31.4000 C.ar  323  TYR323      0.0417
    138  CE2        5.8590   23.9080   32.6300 C.ar  323  TYR323      0.0417
    139  CZ         6.1720   23.0750   31.5920 C.ar  323  TYR323      0.1957
    140  OH         5.1770   22.6520   30.7360 O.3   323  TYR323     -0.2866
@<TRIPOS>BOND
     1    22    23    1
     2    77    76    2
     3    23    24    1
     4    23    26    1
     5    24    25    2
     6     1     2    1
     7    76    75    1
     8     3     2    1
     9     3     4    2
    10     2     5    1
    11    30    28   ar
    12    51    50    2
    13    26    27    1
    14    58    59    1
    15    75    74    1
    16    75    78    1
    17    27    28    1
    18    74    64   am
    19    50    49    1
    20    28    29   ar
    21    10    11    1
    22     5     6    1
    23    64    63    1
    24    64    65    2
    25    78    79    1
    26    62    63    1
    27    62    60   am
    28    63    66    1
    29     6     7    1
    30    59    60    1
    31    11    12    1
    32    11    14    1
    33    60    61    2
    34    49    52    1
    35    49    48    1
    36    13    12    2
    37    52    53    1
    38    34    33    2
    39   106   108   ar
    40   106   104   ar
    41    68    70   ar
    42    68    67   ar
    43   108   107   ar
    44     7     8   ar
    45     7     9   ar
    46    66    67    1
    47    48    40   am
    48    70    72   ar
    49    14    15    1
    50    67    69   ar
    51    53    54   ar
    52    53    55   ar
    53    33    32    1
    54   104   103   ar
    55    41    40    2
    56    40    39    1
    57   107   105   ar
    58    31    37    1
    59    31    32    1
    60    54    56   ar
    61    38    39    1
    62    37    36    1
    63    55    57   ar
    64    39    42    1
    65    72    73    1
    66    72    71   ar
    67    15    16   ar
    68    15    17   ar
    69    32    35    1
    70    69    71   ar
    71    36    35    1
    72   103   105   ar
    73   103   102    1
    74    16    18   ar
    75    17    19   ar
    76    56    57   ar
    77    42    43    1
    78   102    99    1
    79    99   100    1
    80    99    98    1
    81    18    20   ar
    82    45    43   ar
    83    45    47   ar
    84    19    20   ar
    85   100   101    2
    86    43    44   ar
    87    20    21    1
    88    47    46   ar
    89    44    46   ar
    90   140   139    1
    91   137   139   ar
    92   137   135   ar
    93   139   138   ar
    94    92    93    1
    95    92    89    1
    96   124   122    1
    97    95    93   ar
    98    95    97   ar
    99    93    94   ar
   100   135   134   ar
   101    97    96   ar
   102    90    91    2
   103    90    89    1
   104    94    96   ar
   105   123   121    1
   106   138   136   ar
   107   125   126    1
   108    89    88    1
   109   126   127    1
   110   121   122    1
   111   121   118    1
   112   134   136   ar
   113   134   133    1
   114    87    85   ar
   115    86    85   ar
   116    85    84    1
   117   116   114   ar
   118   133   130    1
   119   120   119    2
   120   127   128    2
   121    84    81    1
   122   118   119    1
   123   118   117    1
   124   130   129    1
   125   130   131    1
   126   114   115   ar
   127   114   113    1
   128    81    82    1
   129    81    80    1
   130    83    82    2
   131   131   132    2
   132   113   110    1
   133   110   109    1
   134   110   111    1
   135   112   111    2
