@<TRIPOS>MOLECULE
tmp/4zuqB00.pdb
 148 144 0 0 0
SMALL
GASTEIGER

@<TRIPOS>ATOM
      1  N        -14.0860    6.0860  -13.5440 N.3    17  GLU17      -0.1231
      2  CA       -12.8810    5.6520  -12.8490 C.3    17  GLU17       0.1699
      3  C        -12.8940    4.1320  -12.9070 C.2    17  GLU17       0.2592
      4  O        -13.9280    3.5180  -12.6320 O.2    17  GLU17      -0.2718
      5  CB       -12.9300    6.0940  -11.3790 C.3    17  GLU17       0.0402
      6  CG       -11.8800    5.4100  -10.5170 C.3    17  GLU17       0.1161
      7  CD       -11.8190    5.9380   -9.0920 C.2    17  GLU17       0.3649
      8  OE1      -12.3680    7.0460   -8.7980 O.co2  17  GLU17      -0.2457
      9  OE2      -11.1780    5.2540   -8.2550 O.co2  17  GLU17      -0.2457
     10  N        -11.7680    3.5300  -13.2600 N.am   18  LEU18      -0.1966
     11  CA       -11.6600    2.0770  -13.2790 C.3    18  LEU18       0.1728
     12  C        -11.4170    1.5990  -11.8480 C.2    18  LEU18       0.2616
     13  O        -10.3730    1.9040  -11.2610 O.2    18  LEU18      -0.2715
     14  CB       -10.5170    1.6700  -14.2120 C.3    18  LEU18       0.0311
     15  CG       -10.2830    0.1740  -14.3560 C.3    18  LEU18       0.0022
     16  CD1      -11.5340   -0.5130  -14.8950 C.3    18  LEU18       0.0001
     17  CD2       -9.0850   -0.0450  -15.2780 C.3    18  LEU18       0.0001
     18  N        -12.3900    0.8870  -11.2870 N.am   19  TYR19      -0.1974
     19  CA       -12.3390    0.4310   -9.8920 C.3    19  TYR19       0.1639
     20  C        -12.9680   -0.9510   -9.8430 C.2    19  TYR19       0.2290
     21  O        -14.1140   -1.1060  -10.2600 O.2    19  TYR19      -0.2864
     22  CB       -13.1080    1.3990   -8.9790 C.3    19  TYR19       0.0560
     23  CG       -13.1210    0.9540   -7.5380 C.ar   19  TYR19      -0.0198
     24  CD1      -12.0570    1.2500   -6.6990 C.ar   19  TYR19      -0.0009
     25  CD2      -14.1810    0.2380   -7.0150 C.ar   19  TYR19      -0.0009
     26  CE1      -12.0430    0.8380   -5.3820 C.ar   19  TYR19       0.0417
     27  CE2      -14.1800   -0.1710   -5.6900 C.ar   19  TYR19       0.0417
     28  CZ       -13.1010    0.1320   -4.8870 C.ar   19  TYR19       0.1957
     29  OH       -13.0910   -0.2730   -3.5690 O.3    19  TYR19      -0.2866
     30  N         -6.3600    3.8840  -13.0710 N.3   117  GLU117     -0.1245
     31  CA        -7.5730    4.2030  -12.3400 C.3   117  GLU117      0.1567
     32  C         -7.8800    5.7100  -12.3660 C.2   117  GLU117      0.2260
     33  O         -8.7410    6.1820  -11.6250 O.2   117  GLU117     -0.2867
     34  CB        -7.5120    3.6310  -10.9110 C.3   117  GLU117      0.0388
     35  CG        -6.2050    3.8480  -10.1660 C.3   117  GLU117      0.1160
     36  CD        -5.8940    5.3210   -9.9420 C.2   117  GLU117      0.3649
     37  OE1       -6.3030    5.8650   -8.8900 O.co2 117  GLU117     -0.2457
     38  OE2       -5.2430    5.9370  -10.8260 O.co2 117  GLU117     -0.2457
     39  N         -6.1830   16.6990   -6.4820 N.3   156  PRO156     -0.2116
     40  CA        -5.0380   16.5390   -5.5920 C.3   156  PRO156      0.1372
     41  C         -3.7660   16.2990   -6.4030 C.2   156  PRO156      0.2244
     42  O         -3.7970   16.2290   -7.6360 O.2   156  PRO156     -0.2868
     43  CB        -5.4150   15.3120   -4.7550 C.3   156  PRO156      0.0268
     44  CG        -6.2670   14.4840   -5.7060 C.3   156  PRO156      0.0207
     45  CD        -7.0600   15.5160   -6.4770 C.3   156  PRO156      0.0892
     46  N         -0.4300   14.4260   -4.8830 N.3   158  HIS158     -0.1226
     47  CA         0.7660   13.7470   -4.3810 C.3   158  HIS158      0.1752
     48  C          1.1620   12.4540   -5.0820 C.2   158  HIS158      0.2596
     49  O          2.2850   11.9720   -4.8780 O.2   158  HIS158     -0.2718
     50  CB         0.7140   13.5450   -2.8650 C.3   158  HIS158      0.0759
     51  CG        -0.2920   12.5420   -2.3870 C.ar  158  HIS158      0.0818
     52  ND1       -0.1150   11.8580   -1.1990 N.ar  158  HIS158     -0.2268
     53  CD2       -1.4740   12.1110   -2.8910 C.ar  158  HIS158      0.1154
     54  CE1       -1.1390   11.0510   -0.9990 C.ar  158  HIS158      0.1986
     55  NE2       -1.9850   11.1790   -2.0040 N.ar  158  HIS158     -0.2212
     56  N          0.3000   11.9190   -5.9400 N.am  159  HIS159     -0.1975
     57  CA         0.6850   10.7760   -6.7890 C.3   159  HIS159      0.1656
     58  C          1.3200   11.1850   -8.1200 C.2   159  HIS159      0.2291
     59  O          1.7690   10.3090   -8.8650 O.2   159  HIS159     -0.2864
     60  CB        -0.5080    9.8490   -7.0450 C.3   159  HIS159      0.0771
     61  CG        -1.0440    9.2420   -5.7940 C.ar  159  HIS159      0.0820
     62  ND1       -0.2740    8.4830   -4.9440 N.ar  159  HIS159     -0.2267
     63  CD2       -2.2580    9.3450   -5.2020 C.ar  159  HIS159      0.1154
     64  CE1       -0.9960    8.1150   -3.9020 C.ar  159  HIS159      0.1986
     65  NE2       -2.2080    8.6200   -4.0340 N.ar  159  HIS159     -0.2212
     66  N         -3.5340    8.1220   -9.6560 N.3   167  GLY167     -0.1210
     67  CA        -4.0590    8.3030   -8.3180 C.3   167  GLY167      0.1956
     68  C         -4.8390    9.6030   -8.1640 C.2   167  GLY167      0.2612
     69  O         -4.8170   10.2260   -7.1060 O.2   167  GLY167     -0.2717
     70  N         -5.5110   10.0040   -9.2470 N.am  168  TYR168     -0.1962
     71  CA        -6.4080   11.1770   -9.2750 C.3   168  TYR168      0.1771
     72  C         -5.6430   12.4950   -9.3800 C.2   168  TYR168      0.2619
     73  O         -6.2560   13.5820   -9.2890 O.2   168  TYR168     -0.2715
     74  CB        -7.3630   11.2330   -8.0670 C.3   168  TYR168      0.0574
     75  CG        -8.0350    9.9480   -7.6430 C.ar  168  TYR168     -0.0198
     76  CD1       -8.2730    8.8860   -8.5230 C.ar  168  TYR168     -0.0009
     77  CD2       -8.4810    9.8150   -6.3290 C.ar  168  TYR168     -0.0009
     78  CE1       -8.9240    7.7290   -8.0850 C.ar  168  TYR168      0.0417
     79  CE2       -9.1320    8.6840   -5.8970 C.ar  168  TYR168      0.0417
     80  CZ        -9.3680    7.6470   -6.7790 C.ar  168  TYR168      0.1957
     81  OH       -10.0170    6.5250   -6.3220 O.3   168  TYR168     -0.2866
     82  N         -4.3250   12.4020   -9.6090 N.am  169  CYS169     -0.1968
     83  CA        -3.4150   13.5590   -9.5440 C.3   169  CYS169      0.1712
     84  C         -2.7170   13.8140  -10.8670 C.2   169  CYS169      0.2296
     85  O         -2.3380   12.8610  -11.5720 O.2   169  CYS169     -0.2864
     86  CB        -2.3160   13.2940   -8.5010 C.3   169  CYS169      0.0983
     87  SG        -2.9040   12.9550   -6.8230 S.3   169  CYS169     -0.0798
     88  N         -1.8970   12.1340    4.2570 N.3   195  ASP195     -0.1239
     89  CA        -2.9110   11.3880    3.5100 C.3   195  ASP195      0.1674
     90  C         -2.6850    9.8850    3.7410 C.2   195  ASP195      0.2266
     91  O         -1.5550    9.4550    3.9500 O.2   195  ASP195     -0.2867
     92  CB        -2.7490   11.7800    2.0360 C.3   195  ASP195      0.1410
     93  CG        -3.7820   11.1550    1.1060 C.2   195  ASP195      0.3668
     94  OD1       -3.7040    9.9360    0.8620 O.co2 195  ASP195     -0.2456
     95  OD2       -4.6620   11.8840    0.5750 O.co2 195  ASP195     -0.2456
     96  N         -2.5960    7.5090    1.7000 N.3   197  HIS197     -0.1241
     97  CA        -1.7900    6.8960    0.6680 C.3   197  HIS197      0.1621
     98  C         -0.3750    7.4690    0.6280 C.2   197  HIS197      0.2264
     99  O         -0.1740    8.6530    0.9000 O.2   197  HIS197     -0.2867
    100  CB        -2.4480    7.0860   -0.7000 C.3   197  HIS197      0.0745
    101  CG        -3.8310    6.5230   -0.7830 C.ar  197  HIS197      0.0817
    102  ND1       -4.9750    7.2690   -0.5280 N.ar  197  HIS197     -0.2268
    103  CD2       -4.2410    5.2580   -1.0330 C.ar  197  HIS197      0.1154
    104  CE1       -6.0260    6.4810   -0.6580 C.ar  197  HIS197      0.1986
    105  NE2       -5.6110    5.2580   -0.9620 N.ar  197  HIS197     -0.2212
    106  N         -2.6240    0.9750   -2.3250 N.3   225  PHE225     -0.1241
    107  CA        -2.2360    1.9040   -3.3670 C.3   225  PHE225      0.1605
    108  C         -1.2900    2.9430   -2.7400 C.2   225  PHE225      0.2264
    109  O         -1.5490    3.4290   -1.6350 O.2   225  PHE225     -0.2867
    110  CB        -3.4990    2.5960   -3.9090 C.3   225  PHE225      0.0534
    111  CG        -3.2210    3.4900   -5.0870 C.ar  225  PHE225     -0.0203
    112  CD1       -3.3680    3.0130   -6.3780 C.ar  225  PHE225     -0.0042
    113  CD2       -2.7650    4.7920   -4.9110 C.ar  225  PHE225     -0.0042
    114  CE1       -3.0690    3.8360   -7.4780 C.ar  225  PHE225     -0.0003
    115  CE2       -2.4640    5.6040   -6.0140 C.ar  225  PHE225     -0.0003
    116  CZ        -2.6250    5.1160   -7.2880 C.ar  225  PHE225     -0.0000
    117  N         -8.3940   10.8060    4.1880 N.3   284  ASP284     -0.1239
    118  CA        -8.7470    9.4220    3.9240 C.3   284  ASP284      0.1674
    119  C         -8.2040    8.4610    4.9790 C.2   284  ASP284      0.2266
    120  O         -8.4350    7.2680    4.8770 O.2   284  ASP284     -0.2867
    121  CB        -8.3940    8.9820    2.4930 C.3   284  ASP284      0.1410
    122  CG        -7.0630    9.5120    1.9870 C.2   284  ASP284      0.3668
    123  OD1       -6.2390   10.0590    2.7280 O.co2 284  ASP284     -0.2456
    124  OD2       -6.8480    9.3280    0.7650 O.co2 284  ASP284     -0.2456
    125  N        -12.1730    3.8870    0.8530 N.3   291  ILE291     -0.1245
    126  CA       -11.1230    3.1780    0.1170 C.3   291  ILE291      0.1561
    127  C         -9.8570    2.9360    0.9430 C.2   291  ILE291      0.2260
    128  O         -8.8410    2.4940    0.3970 O.2   291  ILE291     -0.2867
    129  CB       -10.7800    3.8670   -1.2310 C.3   291  ILE291      0.0252
    130  CG1      -10.1730    5.2590   -1.0210 C.3   291  ILE291      0.0019
    131  CG2      -12.0240    3.8930   -2.1460 C.3   291  ILE291      0.0019
    132  CD1       -9.6480    5.8750   -2.3290 C.3   291  ILE291      0.0001
    133  N         -6.4300   13.8290   -0.4890 N.3   321  GLY321     -0.1225
    134  CA        -7.5900   12.9370   -0.5550 C.3   321  GLY321      0.1811
    135  C         -8.5100   12.9540    0.6540 C.2   321  GLY321      0.2280
    136  O         -8.4380   13.8490    1.5080 O.2   321  GLY321     -0.2866
    137  N        -12.6050   10.7970    1.0920 N.3   323  TYR323     -0.1241
    138  CA       -13.7130   10.4740    0.1830 C.3   323  TYR323      0.1605
    139  C        -15.0290   10.1210    0.8610 C.2   323  TYR323      0.2264
    140  O        -15.0950    9.8340    2.0680 O.2   323  TYR323     -0.2867
    141  CB       -13.2930    9.3000   -0.7370 C.3   323  TYR323      0.0534
    142  CG       -12.0010    9.6350   -1.4120 C.ar  323  TYR323     -0.0201
    143  CD1      -11.9910   10.5340   -2.4680 C.ar  323  TYR323     -0.0009
    144  CD2      -10.7840    9.1850   -0.9210 C.ar  323  TYR323     -0.0009
    145  CE1      -10.8210   10.9340   -3.0640 C.ar  323  TYR323      0.0417
    146  CE2       -9.5890    9.5680   -1.5140 C.ar  323  TYR323      0.0417
    147  CZ        -9.6150   10.4470   -2.5800 C.ar  323  TYR323      0.1957
    148  OH        -8.4400   10.8630   -3.1480 O.3   323  TYR323     -0.2866
@<TRIPOS>BOND
     1    17    15    1
     2    16    15    1
     3    15    14    1
     4    14    11    1
     5     1     2    1
     6    11    10    1
     7    11    12    1
     8    10     3   am
     9    30    31    1
    10     3     2    1
    11     3     4    2
    12     2     5    1
    13    32    31    1
    14    32    33    2
    15    31    34    1
    16    12    18   am
    17    12    13    2
    18    85    84    2
    19     5     6    1
    20    18    19    1
    21    34    35    1
    22    84    83    1
    23    38    36   ar
    24     6     7    1
    25    21    20    2
    26    35    36    1
    27    36    37   ar
    28    19    20    1
    29    19    22    1
    30    66    67    1
    31    82    83    1
    32    82    72   am
    33    83    86    1
    34    72    73    2
    35    72    71    1
    36    71    70    1
    37    71    74    1
    38    70    68   am
    39     7     8   ar
    40     7     9   ar
    41    22    23    1
    42    59    58    2
    43    76    78   ar
    44    76    75   ar
    45    86    87    1
    46    67    68    1
    47    68    69    2
    48    58    57    1
    49    78    80   ar
    50    74    75    1
    51    75    77   ar
    52    42    41    2
    53    23    25   ar
    54    23    24   ar
    55   114   116   ar
    56   114   112   ar
    57   116   115   ar
    58    60    57    1
    59    60    61    1
    60    25    27   ar
    61    57    56    1
    62    80    81    1
    63    80    79   ar
    64    24    26   ar
    65    39    45    1
    66    39    40    1
    67    45    44    1
    68    41    40    1
    69   112   111   ar
    70    77    79   ar
    71   115   113   ar
    72    56    48   am
    73    61    63   ar
    74    61    62   ar
    75    44    43    1
    76    27    28   ar
    77    40    43    1
    78    26    28   ar
    79    63    65   ar
    80   111   113   ar
    81   111   110    1
    82    48    49    2
    83    48    47    1
    84    62    64   ar
    85    28    29    1
    86    46    47    1
    87    47    50    1
    88    65    64   ar
    89   110   107    1
    90   107   108    1
    91   107   106    1
    92   148   147    1
    93   145   147   ar
    94   145   143   ar
    95    53    51   ar
    96    53    55   ar
    97    50    51    1
    98   108   109    2
    99   147   146   ar
   100   143   142   ar
   101    51    52   ar
   102   132   130    1
   103   131   129    1
   104    55    54   ar
   105   146   144   ar
   106   142   144   ar
   107   142   141    1
   108   129   130    1
   109   129   126    1
   110    52    54   ar
   111   103   105   ar
   112   103   101   ar
   113   105   104   ar
   114   101   100    1
   115   101   102   ar
   116   141   138    1
   117   100    97    1
   118   104   102   ar
   119   134   133    1
   120   134   135    1
   121   126   125    1
   122   126   127    1
   123   138   139    1
   124   138   137    1
   125   128   127    2
   126    95    93   ar
   127    98    97    1
   128    98    99    2
   129   135   136    2
   130    97    96    1
   131   124   122   ar
   132   139   140    2
   133    94    93   ar
   134    93    92    1
   135   122   121    1
   136   122   123   ar
   137    92    89    1
   138   121   118    1
   139    89    90    1
   140    89    88    1
   141    90    91    2
   142   118   117    1
   143   118   119    1
   144   120   119    2
