@<TRIPOS>MOLECULE
tmp/4zurA00.pdb
 158 154 0 0 0
SMALL
GASTEIGER

@<TRIPOS>ATOM
      1  N        -12.9090   -6.8080  -22.1200 N.3    17  GLU17      -0.1231
      2  CA       -11.5970   -6.3070  -22.4860 C.3    17  GLU17       0.1699
      3  C        -11.6870   -4.7940  -22.3830 C.2    17  GLU17       0.2592
      4  O        -12.6760   -4.2000  -22.8020 O.2    17  GLU17      -0.2718
      5  CB       -11.2650   -6.6940  -23.9240 C.3    17  GLU17       0.0402
      6  CG       -10.0190   -6.0260  -24.4900 C.3    17  GLU17       0.1161
      7  CD        -9.6140   -6.4800  -25.8610 C.2    17  GLU17       0.3649
      8  OE1      -10.0890   -7.5340  -26.3560 O.co2  17  GLU17      -0.2457
      9  OE2       -8.7490   -5.7650  -26.4470 O.co2  17  GLU17      -0.2457
     10  N        -10.6600   -4.1560  -21.8390 N.am   18  LEU18      -0.1966
     11  CA       -10.6220   -2.7080  -21.7630 C.3    18  LEU18       0.1728
     12  C        -10.0330   -2.1990  -23.0600 C.2    18  LEU18       0.2616
     13  O         -8.8520   -2.3900  -23.3020 O.2    18  LEU18      -0.2715
     14  CB        -9.8010   -2.2710  -20.5410 C.3    18  LEU18       0.0311
     15  CG        -9.7930   -0.8180  -20.1560 C.3    18  LEU18       0.0022
     16  CD1      -11.1840   -0.2940  -19.9240 C.3    18  LEU18       0.0001
     17  CD2       -8.9360   -0.6650  -18.9080 C.3    18  LEU18       0.0001
     18  N        -10.8780   -1.5730  -23.8760 N.am   19  TYR19      -0.1974
     19  CA       -10.5110   -1.0930  -25.2040 C.3    19  TYR19       0.1639
     20  C        -11.1270    0.2890  -25.3830 C.2    19  TYR19       0.2290
     21  O        -12.3460    0.4680  -25.2230 O.2    19  TYR19      -0.2864
     22  CB       -11.0290   -2.0470  -26.2990 C.3    19  TYR19       0.0560
     23  CG       -10.6630   -1.5860  -27.6850 C.ar   19  TYR19      -0.0198
     24  CD1       -9.3830   -1.7810  -28.1900 C.ar   19  TYR19      -0.0009
     25  CD2      -11.5800   -0.9580  -28.4810 C.ar   19  TYR19      -0.0009
     26  CE1       -9.0330   -1.3490  -29.4560 C.ar   19  TYR19       0.0417
     27  CE2      -11.2320   -0.5020  -29.7520 C.ar   19  TYR19       0.0417
     28  CZ        -9.9500   -0.7150  -30.2370 C.ar   19  TYR19       0.1957
     29  OH        -9.5850   -0.2820  -31.5090 O.3    19  TYR19      -0.2866
     30  N         -5.4910   -4.5070  -20.6380 N.3   117  GLU117     -0.1245
     31  CA        -6.6830   -4.8000  -21.3880 C.3   117  GLU117      0.1567
     32  C         -7.1250   -6.2470  -21.2130 C.2   117  GLU117      0.2260
     33  O         -8.2650   -6.5590  -21.5160 O.2   117  GLU117     -0.2867
     34  CB        -6.4790   -4.5010  -22.8750 C.3   117  GLU117      0.0388
     35  CG        -5.6950   -5.5630  -23.6500 C.3   117  GLU117      0.1160
     36  CD        -4.2510   -5.6340  -23.2430 C.2   117  GLU117      0.3649
     37  OE1       -3.6250   -4.5660  -23.0150 O.co2 117  GLU117     -0.2457
     38  OE2       -3.7180   -6.7530  -23.1040 O.co2 117  GLU117     -0.2457
     39  N         -3.6460  -17.3090  -27.1680 N.3   156  PRO156     -0.2116
     40  CA        -2.3120  -17.1150  -27.7450 C.3   156  PRO156      0.1372
     41  C         -1.2640  -16.8880  -26.6600 C.2   156  PRO156      0.2244
     42  O         -1.5850  -16.8270  -25.4630 O.2   156  PRO156     -0.2868
     43  CB        -2.4890  -15.8900  -28.6370 C.3   156  PRO156      0.0268
     44  CG        -3.5200  -15.0840  -27.9260 C.3   156  PRO156      0.0207
     45  CD        -4.4920  -16.1210  -27.3610 C.3   156  PRO156      0.0892
     46  N          2.3180  -15.0320  -27.3550 N.3   158  HIS158     -0.1226
     47  CA         3.5830  -14.3390  -27.5790 C.3   158  HIS158      0.1752
     48  C          3.8200  -13.0680  -26.7810 C.2   158  HIS158      0.2596
     49  O          4.9640  -12.6070  -26.7350 O.2   158  HIS158     -0.2718
     50  CB         3.8820  -14.1320  -29.0620 C.3   158  HIS158      0.0759
     51  CG         3.0220  -13.1350  -29.7570 C.ar  158  HIS158      0.0818
     52  ND1        3.4810  -12.4490  -30.8600 N.ar  158  HIS158     -0.2268
     53  CD2        1.7320  -12.7500  -29.5870 C.ar  158  HIS158      0.1154
     54  CE1        2.5340  -11.6520  -31.3190 C.ar  158  HIS158      0.1986
     55  NE2        1.4560  -11.8200  -30.5650 N.ar  158  HIS158     -0.2212
     56  N          2.8050  -12.5420  -26.0930 N.am  159  HIS159     -0.1975
     57  CA         2.9990  -11.3950  -25.2090 C.3   159  HIS159      0.1656
     58  C          3.3070  -11.7980  -23.7640 C.2   159  HIS159      0.2291
     59  O          3.5910  -10.9380  -22.9460 O.2   159  HIS159     -0.2864
     60  CB         1.7930  -10.4530  -25.2480 C.3   159  HIS159      0.0771
     61  CG         1.5690   -9.8760  -26.5880 C.ar  159  HIS159      0.0820
     62  ND1        2.5010   -9.1020  -27.2220 N.ar  159  HIS159     -0.2267
     63  CD2        0.5340   -9.9970  -27.4600 C.ar  159  HIS159      0.1154
     64  CE1        2.0690   -8.7750  -28.4290 C.ar  159  HIS159      0.1986
     65  NE2        0.8760   -9.3040  -28.6070 N.ar  159  HIS159     -0.2212
     66  N         -1.7350   -8.7550  -23.4580 N.3   167  GLY167     -0.1210
     67  CA        -1.9670   -8.9380  -24.8710 C.3   167  GLY167      0.1956
     68  C         -2.7280  -10.2060  -25.2090 C.2   167  GLY167      0.2612
     69  O         -2.4500  -10.8350  -26.2280 O.2   167  GLY167     -0.2717
     70  N         -3.6240  -10.6120  -24.3150 N.am  168  TYR168     -0.1962
     71  CA        -4.4950  -11.7750  -24.5070 C.3   168  TYR168      0.1771
     72  C         -3.7810  -13.1080  -24.2190 C.2   168  TYR168      0.2619
     73  O         -4.3570  -14.1840  -24.4820 O.2   168  TYR168     -0.2715
     74  CB        -5.1380  -11.8080  -25.9090 C.3   168  TYR168      0.0574
     75  CG        -5.6630  -10.4990  -26.4740 C.ar  168  TYR168     -0.0198
     76  CD1       -6.0770   -9.4460  -25.6840 C.ar  168  TYR168     -0.0009
     77  CD2       -5.7410  -10.3530  -27.8390 C.ar  168  TYR168     -0.0009
     78  CE1       -6.5960   -8.2910  -26.2340 C.ar  168  TYR168      0.0417
     79  CE2       -6.2970   -9.2130  -28.4240 C.ar  168  TYR168      0.0417
     80  CZ        -6.6990   -8.1710  -27.6250 C.ar  168  TYR168      0.1957
     81  OH        -7.2300   -7.0540  -28.2240 O.3   168  TYR168     -0.2866
     82  N         -2.5630  -13.0270  -23.6800 N.am  169  CYS169     -0.1968
     83  CA        -1.6790  -14.1670  -23.5010 C.3   169  CYS169      0.1712
     84  C         -1.3030  -14.4070  -22.0560 C.2   169  CYS169      0.2296
     85  O         -1.1180  -13.4510  -21.2980 O.2   169  CYS169     -0.2864
     86  CB        -0.3810  -13.9000  -24.2650 C.3   169  CYS169      0.0983
     87  SG        -0.5280  -13.5710  -26.0230 S.3   169  CYS169     -0.0798
     88  N          3.1410  -12.7030  -36.5500 N.3   195  ASP195     -0.1239
     89  CA         1.9770  -11.9460  -36.0830 C.3   195  ASP195      0.1674
     90  C          2.2680  -10.4450  -36.2670 C.2   195  ASP195      0.2266
     91  O          3.4210  -10.0290  -36.1790 O.2   195  ASP195     -0.2867
     92  CB         1.7390  -12.3470  -34.6210 C.3   195  ASP195      0.1410
     93  CG         0.5370  -11.7080  -33.9810 C.2   195  ASP195      0.3668
     94  OD1        0.5770  -10.4860  -33.7150 O.co2 195  ASP195     -0.2456
     95  OD2       -0.4420  -12.4190  -33.6710 O.co2 195  ASP195     -0.2456
     96  N          1.8630   -8.0650  -34.2670 N.3   197  HIS197     -0.1241
     97  CA         2.4110   -7.4610  -33.0530 C.3   197  HIS197      0.1621
     98  C          3.7450   -8.0710  -32.6970 C.2   197  HIS197      0.2264
     99  O          3.9760   -9.2620  -32.8790 O.2   197  HIS197     -0.2867
    100  CB         1.4200   -7.6470  -31.8880 C.3   197  HIS197      0.0745
    101  CG         0.0710   -7.0890  -32.1580 C.ar  197  HIS197      0.0817
    102  ND1       -0.9650   -7.8500  -32.6590 N.ar  197  HIS197     -0.2268
    103  CD2       -0.3990   -5.8200  -32.0290 C.ar  197  HIS197      0.1154
    104  CE1       -2.0200   -7.0640  -32.8060 C.ar  197  HIS197      0.1986
    105  NE2       -1.7100   -5.8340  -32.4240 N.ar  197  HIS197     -0.2212
    106  N          0.8590   -1.5540  -30.3600 N.3   225  PHE225     -0.1241
    107  CA         0.9850   -2.5110  -29.2660 C.3   225  PHE225      0.1605
    108  C          2.0450   -3.5420  -29.6670 C.2   225  PHE225      0.2264
    109  O          2.0440   -3.9890  -30.8010 O.2   225  PHE225     -0.2867
    110  CB        -0.3660   -3.1900  -29.0340 C.3   225  PHE225      0.0534
    111  CG        -0.3730   -4.1130  -27.8690 C.ar  225  PHE225     -0.0203
    112  CD1       -0.7700   -3.6620  -26.6310 C.ar  225  PHE225     -0.0042
    113  CD2        0.0520   -5.4380  -27.9840 C.ar  225  PHE225     -0.0042
    114  CE1       -0.7610   -4.5190  -25.5060 C.ar  225  PHE225     -0.0003
    115  CE2        0.0770   -6.2740  -26.8830 C.ar  225  PHE225     -0.0003
    116  CZ        -0.3240   -5.8050  -25.6590 C.ar  225  PHE225     -0.0000
    117  N          4.0630   -1.5480  -27.7480 N.3   227  HIS227     -0.1241
    118  CA         4.5080   -0.1870  -27.4230 C.3   227  HIS227      0.1621
    119  C          5.8800   -0.0430  -26.7830 C.2   227  HIS227      0.2264
    120  O          6.4320    1.0470  -26.9090 O.2   227  HIS227     -0.2867
    121  CB         3.5140    0.5660  -26.5200 C.3   227  HIS227      0.0745
    122  CG         2.0910    0.4610  -26.9430 C.ar  227  HIS227      0.0817
    123  ND1        1.5850    1.1390  -28.0290 N.ar  227  HIS227     -0.2268
    124  CD2        1.0440   -0.1980  -26.3960 C.ar  227  HIS227      0.1154
    125  CE1        0.3030    0.8730  -28.1620 C.ar  227  HIS227      0.1986
    126  NE2       -0.0530    0.0770  -27.1710 N.ar  227  HIS227     -0.2212
    127  N         -3.1750  -11.3460  -38.0780 N.3   284  ASP284     -0.1239
    128  CA        -3.5630   -9.9650  -37.9100 C.3   284  ASP284      0.1674
    129  C         -2.7560   -8.9970  -38.7910 C.2   284  ASP284      0.2266
    130  O         -3.0230   -7.8110  -38.7660 O.2   284  ASP284     -0.2867
    131  CB        -3.5710   -9.5220  -36.4440 C.3   284  ASP284      0.1410
    132  CG        -2.4150  -10.0490  -35.6130 C.2   284  ASP284      0.3668
    133  OD1       -1.4470  -10.6300  -36.1360 O.co2 284  ASP284     -0.2456
    134  OD2       -2.5500   -9.8630  -34.3600 O.co2 284  ASP284     -0.2456
    135  N         -7.5790   -4.4220  -35.7970 N.3   291  ILE291     -0.1245
    136  CA        -6.7340   -3.7230  -34.8300 C.3   291  ILE291      0.1561
    137  C         -5.3300   -3.4700  -35.3430 C.2   291  ILE291      0.2260
    138  O         -4.4570   -3.0500  -34.5760 O.2   291  ILE291     -0.2867
    139  CB        -6.7130   -4.4240  -33.4460 C.3   291  ILE291      0.0252
    140  CG1       -6.1040   -5.8300  -33.4850 C.3   291  ILE291      0.0019
    141  CG2       -8.1420   -4.4620  -32.8760 C.3   291  ILE291      0.0019
    142  CD1       -5.8390   -6.4250  -32.1040 C.3   291  ILE291      0.0001
    143  N         -2.4070  -14.3690  -33.0100 N.3   321  GLY321     -0.1225
    144  CA        -3.5320  -13.4710  -33.2110 C.3   321  GLY321      0.1811
    145  C         -4.1400  -13.4990  -34.6140 C.2   321  GLY321      0.2280
    146  O         -3.8520  -14.3700  -35.4280 O.2   321  GLY321     -0.2866
    147  N         -7.9850  -11.3450  -36.0550 N.3   323  TYR323     -0.1241
    148  CA        -9.2710  -11.0280  -35.4320 C.3   323  TYR323      0.1605
    149  C        -10.3710  -10.6770  -36.4170 C.2   323  TYR323      0.2264
    150  O        -10.1210  -10.3550  -37.5890 O.2   323  TYR323     -0.2867
    151  CB        -9.0800   -9.8290  -34.4780 C.3   323  TYR323      0.0534
    152  CG        -7.9900  -10.1590  -33.4920 C.ar  323  TYR323     -0.0201
    153  CD1       -6.6920   -9.7040  -33.6440 C.ar  323  TYR323     -0.0009
    154  CD2       -8.2560  -11.0460  -32.4560 C.ar  323  TYR323     -0.0009
    155  CE1       -5.6930  -10.1100  -32.8050 C.ar  323  TYR323      0.0417
    156  CE2       -7.2700  -11.4540  -31.5960 C.ar  323  TYR323      0.0417
    157  CZ        -5.9700  -10.9740  -31.7600 C.ar  323  TYR323      0.1957
    158  OH        -4.9690  -11.3930  -30.9380 O.3   323  TYR323     -0.2866
@<TRIPOS>BOND
     1   129   130    2
     2   129   128    1
     3   127   128    1
     4   128   131    1
     5   150   149    2
     6    88    89    1
     7   131   132    1
     8   149   148    1
     9    90    91    2
    10    90    89    1
    11   133   132   ar
    12    89    92    1
    13   147   148    1
    14   135   136    1
    15   132   134   ar
    16   148   151    1
    17   146   145    2
    18   137   136    1
    19   137   138    2
    20   136   139    1
    21    92    93    1
    22   145   144    1
    23   151   152    1
    24    96    97    1
    25    93    94   ar
    26    93    95   ar
    27   153   152   ar
    28   153   155   ar
    29   152   154   ar
    30   140   139    1
    31   140   142    1
    32   139   141    1
    33   144   143    1
    34    97    98    1
    35    97   100    1
    36    99    98    2
    37   104   102   ar
    38   104   105   ar
    39   155   157   ar
    40   102   101   ar
    41   154   156   ar
    42   105   103   ar
    43   101   103   ar
    44   101   100    1
    45   157   156   ar
    46   157   158    1
    47    29    28    1
    48    54    52   ar
    49    54    55   ar
    50    52    51   ar
    51   109   108    2
    52    55    53   ar
    53   106   107    1
    54    28    27   ar
    55    28    26   ar
    56    51    53   ar
    57    51    50    1
    58    27    25   ar
    59   108   107    1
    60    26    24   ar
    61   107   110    1
    62    50    47    1
    63   110   111    1
    64    43    44    1
    65    43    40    1
    66    65    64   ar
    67    65    63   ar
    68    25    23   ar
    69    64    62   ar
    70    79    77   ar
    71    79    80   ar
    72    81    80    1
    73    24    23   ar
    74   125   123   ar
    75   125   126   ar
    76   123   122   ar
    77   113   111   ar
    78   113   115   ar
    79    44    45    1
    80   111   112   ar
    81    77    75   ar
    82   117   118    1
    83    40    39    1
    84    40    41    1
    85    23    22    1
    86    80    78   ar
    87    47    46    1
    88    47    48    1
    89    63    61   ar
    90   118   119    1
    91   118   121    1
    92    45    39    1
    93    62    61   ar
    94   126   124   ar
    95   122   121    1
    96   122   124   ar
    97   120   119    2
    98   115   116   ar
    99    48    49    2
   100    48    56   am
   101    41    42    2
   102   112   114   ar
   103    61    60    1
   104    75    74    1
   105    75    76   ar
   106     9     7   ar
   107     8     7   ar
   108    22    19    1
   109    78    76   ar
   110    69    68    2
   111    56    57    1
   112    87    86    1
   113    74    71    1
   114     7     6    1
   115   116   114   ar
   116    20    21    2
   117    20    19    1
   118    60    57    1
   119    57    58    1
   120    68    67    1
   121    68    70   am
   122    19    18    1
   123    67    66    1
   124    71    70    1
   125    71    72    1
   126     6     5    1
   127    73    72    2
   128    86    83    1
   129    72    82   am
   130     5     2    1
   131    18    12   am
   132    58    59    2
   133    82    83    1
   134    35    36    1
   135    35    34    1
   136    83    84    1
   137    13    12    2
   138    36    38   ar
   139    36    37   ar
   140    12    11    1
   141    34    31    1
   142     4     3    2
   143     2     3    1
   144     2     1    1
   145     3    10   am
   146    84    85    2
   147    10    11    1
   148    11    14    1
   149    33    32    2
   150    31    32    1
   151    31    30    1
   152    14    15    1
   153    15    16    1
   154    15    17    1
