@<TRIPOS>MOLECULE
tmp/4zv1A00.pdb
 115 109 0 0 0
SMALL
GASTEIGER

@<TRIPOS>ATOM
      1  N         -0.2290  -13.9180   14.4760 N.3    11  GLU11      -0.1245
      2  CA        -0.7840  -13.7080   13.1190 C.3    11  GLU11       0.1567
      3  C         -2.1900  -14.2860   13.1220 C.2    11  GLU11       0.2260
      4  O         -2.3980  -15.4490   13.5730 O.2    11  GLU11      -0.2867
      5  CB         0.1710  -14.3170   12.1000 C.3    11  GLU11       0.0388
      6  CG        -0.1500  -14.0130   10.6450 C.3    11  GLU11       0.1160
      7  CD        -1.2180  -14.8650   10.0040 C.2    11  GLU11       0.3649
      8  OE1       -1.6960  -15.8390   10.6260 O.co2  11  GLU11      -0.2457
      9  OE2       -1.7520  -14.2900    8.9420 O.co2  11  GLU11      -0.2457
     10  N         -5.1900  -17.8350   11.0580 N.3    14  PHE14      -0.1241
     11  CA        -4.7720  -19.1650   11.4150 C.3    14  PHE14       0.1605
     12  C         -5.8250  -19.7170   12.3890 C.2    14  PHE14       0.2264
     13  O         -5.5380  -20.1850   13.4850 O.2    14  PHE14      -0.2867
     14  CB        -3.3660  -19.0700   12.0950 C.3    14  PHE14       0.0534
     15  CG        -2.5630  -20.3720   12.0450 C.ar   14  PHE14      -0.0203
     16  CD1       -2.0970  -20.8510   10.8300 C.ar   14  PHE14      -0.0042
     17  CD2       -2.1580  -20.9880   13.1920 C.ar   14  PHE14      -0.0042
     18  CE1       -1.3600  -21.9870   10.7690 C.ar   14  PHE14      -0.0003
     19  CE2       -1.3750  -22.1470   13.1420 C.ar   14  PHE14      -0.0003
     20  CZ        -0.9740  -22.6390   11.9200 C.ar   14  PHE14      -0.0000
     21  N          3.3100  -13.4170    9.6760 N.3    52  PHE52      -0.1241
     22  CA         3.9810  -14.4320   10.4040 C.3    52  PHE52       0.1605
     23  C          5.5230  -14.3870   10.3250 C.2    52  PHE52       0.2264
     24  O          6.2820  -14.6010   11.2490 O.2    52  PHE52      -0.2867
     25  CB         3.4560  -15.8220   10.0000 C.3    52  PHE52       0.0534
     26  CG         4.0220  -16.9550   10.7500 C.ar   52  PHE52      -0.0203
     27  CD1        3.6300  -17.2400   12.0500 C.ar   52  PHE52      -0.0042
     28  CD2        4.9960  -17.7950   10.1890 C.ar   52  PHE52      -0.0042
     29  CE1        4.1830  -18.2740   12.7760 C.ar   52  PHE52      -0.0003
     30  CE2        5.5670  -18.8440   10.9110 C.ar   52  PHE52      -0.0003
     31  CZ         5.1580  -19.0660   12.2120 C.ar   52  PHE52      -0.0000
     32  N          1.5950  -17.8860   18.5120 N.3    69  ALA69      -0.1231
     33  CA         1.2550  -17.7760   17.0860 C.3    69  ALA69       0.1694
     34  C          1.2680  -19.1690   16.4350 C.2    69  ALA69       0.2593
     35  O          1.7370  -19.3430   15.3040 O.2    69  ALA69      -0.2718
     36  CB         2.2000  -16.8600   16.3360 C.3    69  ALA69       0.0304
     37  N          0.8870  -20.2160   17.1470 N.am   70  GLY70      -0.1942
     38  CA         1.0270  -21.5520   16.6430 C.3    70  GLY70       0.2014
     39  C          2.3680  -21.9370   16.1090 C.2    70  GLY70       0.2639
     40  O          2.5050  -22.6170   15.1280 O.2    70  GLY70      -0.2714
     41  N          3.3850  -21.5330   16.8240 N.am   71  MET71      -0.1963
     42  CA         4.7430  -21.5690   16.3100 C.3    71  MET71       0.1736
     43  C          5.3930  -22.8660   16.7180 C.2    71  MET71       0.2617
     44  O          5.6270  -23.1500   17.9370 O.2    71  MET71      -0.2715
     45  CB         5.5440  -20.3760   16.8380 C.3    71  MET71       0.0427
     46  CG         6.9330  -20.3930   16.2360 C.3    71  MET71       0.0599
     47  SD         7.9210  -18.9040   16.5570 S.3    71  MET71      -0.1393
     48  CE         7.1670  -17.8950   15.3300 C.3    71  MET71       0.0692
     49  N          5.7290  -23.6560   15.7180 N.am   72  THR72      -0.1951
     50  CA         6.4510  -24.9110   15.9090 C.3    72  THR72       0.1897
     51  C          7.8520  -24.6110   16.4630 C.2    72  THR72       0.2313
     52  O          8.6330  -23.7820   15.9550 O.2    72  THR72      -0.2863
     53  CB         6.5510  -25.6750   14.6140 C.3    72  THR72       0.1794
     54  OG1        5.2060  -25.9560   14.1340 O.3    72  THR72      -0.2208
     55  CG2        7.2210  -27.0190   14.8510 C.3    72  THR72       0.0378
     56  N         14.7920  -22.2730   14.8130 N.3    77  ARG77      -0.1245
     57  CA        14.3160  -21.1630   15.5670 C.3    77  ARG77       0.1563
     58  C         14.8400  -21.0520   16.9890 C.2    77  ARG77       0.2260
     59  O         14.8890  -19.9800   17.5080 O.2    77  ARG77      -0.2867
     60  CB        12.7550  -21.2190   15.5880 C.3    77  ARG77       0.0307
     61  CG        12.1070  -21.0860   14.2210 C.3    77  ARG77       0.0489
     62  CD        10.6090  -21.4640   14.3150 C.3    77  ARG77       0.2205
     63  NE        10.0000  -21.2930   13.0150 N.pl3  77  ARG77      -0.0865
     64  CZ         8.7960  -21.6370   12.6710 C.cat  77  ARG77       0.5346
     65  NH1        8.0930  -22.3100   13.5680 N.pl3  77  ARG77       0.1354
     66  NH2        8.2850  -21.3270   11.4790 N.pl3  77  ARG77       0.1354
     67  N          2.1890  -20.7890    3.4720 N.3   117  GLN117     -0.1245
     68  CA         2.4450  -19.5130    4.2090 C.3   117  GLN117      0.1566
     69  C          3.9530  -19.3210    4.3250 C.2   117  GLN117      0.2260
     70  O          4.7850  -20.1980    4.6580 O.2   117  GLN117     -0.2867
     71  CB         1.8100  -19.5760    5.6390 C.3   117  GLN117      0.0367
     72  CG         1.6760  -18.1790    6.4480 C.3   117  GLN117      0.0905
     73  CD         0.7500  -18.3000    7.6430 C.2   117  GLN117      0.2608
     74  OE1        0.6490  -19.3420    8.3220 O.2   117  GLN117     -0.2717
     75  NE2       -0.1250  -17.2890    7.7780 N.am  117  GLN117     -0.0878
     76  N          6.6100  -20.4560    7.2050 N.3   120  SER120     -0.1202
     77  CA         6.0580  -21.6000    7.9500 C.3   120  SER120      0.2020
     78  C          6.9300  -22.8380    7.8100 C.2   120  SER120      0.2619
     79  O          7.6460  -23.0540    6.8440 O.2   120  SER120     -0.2717
     80  CB         4.6500  -21.9380    7.4790 C.3   120  SER120      0.2103
     81  OG         4.6640  -22.4150    6.1690 O.3   120  SER120     -0.2182
     82  N          6.6940  -23.7810    8.7190 N.am  121  THR121     -0.1952
     83  CA         7.2510  -25.1090    8.5900 C.3   121  THR121      0.1897
     84  C          6.6670  -25.8110    7.3670 C.2   121  THR121      0.2313
     85  O          7.3720  -26.5860    6.7410 O.2   121  THR121     -0.2863
     86  CB         7.0100  -25.9060    9.8380 C.3   121  THR121      0.1794
     87  OG1        5.6190  -25.9950   10.1430 O.3   121  THR121     -0.2208
     88  CG2        7.7700  -25.3860   11.0320 C.3   121  THR121      0.0378
     89  N         -0.8190  -26.7690    5.1790 N.3   160  THR160     -0.1203
     90  CA        -0.7190  -26.0390    6.4500 C.3   160  THR160      0.1994
     91  C         -0.8430  -27.0200    7.6100 C.2   160  THR160      0.2617
     92  O         -0.8660  -28.2670    7.3960 O.2   160  THR160     -0.2717
     93  CB        -1.7540  -24.9230    6.5280 C.3   160  THR160      0.1784
     94  OG1       -1.5100  -24.0950    7.6860 O.3   160  THR160     -0.2211
     95  CG2       -3.2440  -25.4500    6.5880 C.3   160  THR160      0.0376
     96  N         -0.9100  -26.4920    8.8340 N.am  161  ASP161     -0.1973
     97  CA        -1.0440  -27.3110    9.9850 C.3   161  ASP161      0.1709
     98  C         -2.4360  -27.9730   10.0300 C.2   161  ASP161      0.2293
     99  O         -3.4030  -27.4370    9.4610 O.2   161  ASP161     -0.2864
    100  CB        -0.8170  -26.5260   11.2730 C.3   161  ASP161      0.1436
    101  CG         0.5380  -25.9680   11.4150 C.2   161  ASP161      0.3671
    102  OD1        1.3690  -25.9270   10.5040 O.co2 161  ASP161     -0.2456
    103  OD2        0.8250  -25.5770   12.5620 O.co2 161  ASP161     -0.2456
    104  N          3.9420  -26.8960   19.3320 N.3   189  TYR189     -0.1241
    105  CA         3.8570  -25.4450   19.4240 C.3   189  TYR189      0.1605
    106  C          4.4560  -24.9670   20.7330 C.2   189  TYR189      0.2264
    107  O          4.2600  -25.5510   21.7640 O.2   189  TYR189     -0.2867
    108  CB         2.4510  -24.9620   19.4240 C.3   189  TYR189      0.0534
    109  CG         1.6390  -25.1960   18.1370 C.ar  189  TYR189     -0.0201
    110  CD1        2.2050  -25.6300   16.9250 C.ar  189  TYR189     -0.0009
    111  CD2        0.2780  -24.8360   18.1170 C.ar  189  TYR189     -0.0009
    112  CE1        1.3810  -25.8390   15.7940 C.ar  189  TYR189      0.0417
    113  CE2       -0.4860  -24.9820   16.9890 C.ar  189  TYR189      0.0417
    114  CZ         0.0990  -25.4690   15.8530 C.ar  189  TYR189      0.1957
    115  OH        -0.6560  -25.5880   14.7030 O.3   189  TYR189     -0.2866
@<TRIPOS>BOND
     1    67    68    1
     2    68    69    1
     3    68    71    1
     4    69    70    2
     5    89    90    1
     6    71    72    1
     7    81    80    1
     8    72    73    1
     9    90    93    1
    10    90    91    1
    11    93    95    1
    12    93    94    1
    13    85    84    2
    14    79    78    2
    15    76    77    1
    16    84    83    1
    17    92    91    2
    18    80    77    1
    19    91    96   am
    20    73    75   am
    21    73    74    2
    22    78    77    1
    23    78    82   am
    24    83    82    1
    25    83    86    1
    26    96    97    1
    27     9     7   ar
    28    99    98    2
    29    21    22    1
    30    86    87    1
    31    86    88    1
    32    97    98    1
    33    97   100    1
    34    25    22    1
    35    25    26    1
    36     7     8   ar
    37     7     6    1
    38    28    26   ar
    39    28    30   ar
    40    23    22    1
    41    23    24    2
    42   102   101   ar
    43     6     5    1
    44    26    27   ar
    45    18    16   ar
    46    18    20   ar
    47    16    15   ar
    48    30    31   ar
    49    10    11    1
    50   100   101    1
    51    11    14    1
    52    11    12    1
    53   101   103   ar
    54    66    64    1
    55    20    19   ar
    56    15    14    1
    57    15    17   ar
    58    27    29   ar
    59     5     2    1
    60    31    29   ar
    61    12    13    2
    62    64    63    2
    63    64    65    1
    64    63    62    1
    65     2     3    1
    66     2     1    1
    67     3     4    2
    68    19    17   ar
    69    54    53    1
    70    61    62    1
    71    61    60    1
    72    53    55    1
    73    53    50    1
    74   115   114    1
    75    56    57    1
    76    40    39    2
    77    35    34    2
    78    48    47    1
    79    57    60    1
    80    57    58    1
    81    49    50    1
    82    49    43   am
    83   112   114   ar
    84   112   110   ar
    85   114   113   ar
    86    50    51    1
    87    52    51    2
    88    39    38    1
    89    39    41   am
    90    46    47    1
    91    46    45    1
    92    42    43    1
    93    42    41    1
    94    42    45    1
    95    36    33    1
    96    34    33    1
    97    34    37   am
    98    38    37    1
    99    43    44    2
   100   110   109   ar
   101   113   111   ar
   102    58    59    2
   103    33    32    1
   104   111   109   ar
   105   109   108    1
   106   104   105    1
   107   105   108    1
   108   105   106    1
   109   106   107    2
