@<TRIPOS>MOLECULE
tmp/4zv2A00.pdb
 132 126 0 0 0
SMALL
GASTEIGER

@<TRIPOS>ATOM
      1  N         -1.2860   14.8750   15.5170 N.3    11  GLU11      -0.1245
      2  CA        -1.9040   14.7820   14.1890 C.3    11  GLU11       0.1567
      3  C         -3.2640   15.3820   14.1180 C.2    11  GLU11       0.2260
      4  O         -4.0820   15.3550   15.0560 O.2    11  GLU11      -0.2867
      5  CB        -2.0710   13.2870   13.8940 C.3    11  GLU11       0.0388
      6  CG        -0.7440   12.7900   13.3130 C.3    11  GLU11       0.1160
      7  CD        -0.5790   13.1030   11.8010 C.2    11  GLU11       0.3649
      8  OE1       -1.5790   13.5850   11.1280 O.co2  11  GLU11      -0.2457
      9  OE2        0.5430   12.8970   11.2680 O.co2  11  GLU11      -0.2457
     10  N         -4.8890   11.6760   11.1720 N.3    14  PHE14      -0.1241
     11  CA        -4.3990   10.3790   11.5010 C.3    14  PHE14       0.1605
     12  C         -5.3790    9.6610   12.3920 C.2    14  PHE14       0.2264
     13  O         -5.0880    9.3070   13.5280 O.2    14  PHE14      -0.2867
     14  CB        -3.0010   10.5040   12.1810 C.3    14  PHE14       0.0534
     15  CG        -2.0480    9.2750   12.0720 C.ar   14  PHE14      -0.0203
     16  CD1       -1.5430    8.8860   10.8740 C.ar   14  PHE14      -0.0042
     17  CD2       -1.6890    8.5740   13.2100 C.ar   14  PHE14      -0.0042
     18  CE1       -0.6550    7.8100   10.8380 C.ar   14  PHE14      -0.0003
     19  CE2       -0.7970    7.5550   13.1610 C.ar   14  PHE14      -0.0003
     20  CZ        -0.3290    7.1320   11.9920 C.ar   14  PHE14      -0.0000
     21  N          3.3660   15.7110    9.9460 N.3    52  PHE52      -0.1241
     22  CA         4.2620   14.9020   10.6800 C.3    52  PHE52       0.1605
     23  C          5.7100   15.1410   10.5130 C.2    52  PHE52       0.2264
     24  O          6.4470   15.1440   11.4820 O.2    52  PHE52      -0.2867
     25  CB         3.9550   13.4430   10.4260 C.3    52  PHE52       0.0534
     26  CG         4.7010   12.4280   11.2930 C.ar   52  PHE52      -0.0203
     27  CD1        4.3950   12.3020   12.6220 C.ar   52  PHE52      -0.0042
     28  CD2        5.8110   11.7120   10.7940 C.ar   52  PHE52      -0.0042
     29  CE1        5.0730   11.3910   13.4310 C.ar   52  PHE52      -0.0003
     30  CE2        6.5360   10.8580   11.6280 C.ar   52  PHE52      -0.0003
     31  CZ         6.1670   10.6850   12.9060 C.ar   52  PHE52      -0.0000
     32  N          1.6720   11.9340   18.7150 N.3    69  ALA69      -0.1231
     33  CA         1.3340   11.9690   17.2810 C.3    69  ALA69       0.1694
     34  C          1.4950   10.6360   16.5530 C.2    69  ALA69       0.2593
     35  O          1.9140   10.5930   15.3960 O.2    69  ALA69      -0.2718
     36  CB         2.0940   13.0550   16.5940 C.3    69  ALA69       0.0304
     37  N          1.1410    9.6090   17.2200 N.am   70  GLY70      -0.1942
     38  CA         1.2560    8.2540   16.6860 C.3    70  GLY70       0.2014
     39  C          2.7390    7.9310   16.3330 C.2    70  GLY70       0.2639
     40  O          2.9840    7.3230   15.2550 O.2    70  GLY70      -0.2714
     41  N          3.6790    8.4320   17.1250 N.am   71  MET71      -0.1963
     42  CA         5.0970    8.4030   16.7250 C.3    71  MET71       0.1736
     43  C          5.7320    7.0920   17.1770 C.2    71  MET71       0.2617
     44  O          5.8660    6.8250   18.3970 O.2    71  MET71      -0.2715
     45  CB         5.8670    9.6390   17.2360 C.3    71  MET71       0.0427
     46  CG         7.3460    9.6160   16.8790 C.3    71  MET71       0.0599
     47  SD         8.2230   11.1220   17.3010 S.3    71  MET71      -0.1393
     48  CE         7.6440   12.2570   16.0720 C.3    71  MET71       0.0692
     49  N          6.1420    6.3190   16.2180 N.am   72  THR72      -0.1951
     50  CA         6.9360    5.1400   16.5040 C.3    72  THR72       0.1897
     51  C          8.2930    5.4030   17.1130 C.2    72  THR72       0.2313
     52  O          9.0240    6.2980   16.6750 O.2    72  THR72      -0.2863
     53  CB         7.1250    4.2950   15.2110 C.3    72  THR72       0.1794
     54  OG1        5.8530    3.9680   14.6880 O.3    72  THR72      -0.2208
     55  CG2        7.8690    2.9790   15.5130 C.3    72  THR72       0.0378
     56  N         15.4410    7.6300   15.9380 N.3    77  ARG77      -0.1245
     57  CA        14.7490    8.7340   16.5540 C.3    77  ARG77       0.1563
     58  C         15.2220    9.0340   17.9870 C.2    77  ARG77       0.2260
     59  O         15.1240   10.2350   18.4310 O.2    77  ARG77      -0.2867
     60  CB        13.2570    8.5670   16.4660 C.3    77  ARG77       0.0307
     61  CG        12.7330    8.6540   15.1030 C.3    77  ARG77       0.0489
     62  CD        11.2790    8.2410   14.9540 C.3    77  ARG77       0.2205
     63  NE        10.7920    8.3730   13.6130 N.pl3  77  ARG77      -0.0865
     64  CZ         9.5200    8.0960   13.2850 C.cat  77  ARG77       0.5346
     65  NH1        8.7140    7.6890   14.2290 N.pl3  77  ARG77       0.1354
     66  NH2        9.0970    8.2340   12.0630 N.pl3  77  ARG77       0.1354
     67  N          3.3860    8.8900    3.9190 N.3   117  GLN117     -0.1245
     68  CA         3.6080   10.1350    4.6730 C.3   117  GLN117      0.1566
     69  C          5.1010   10.4010    4.7160 C.2   117  GLN117      0.2260
     70  O          5.8680    9.5560    5.0730 O.2   117  GLN117     -0.2867
     71  CB         3.1860    9.8780    6.1010 C.3   117  GLN117      0.0367
     72  CG         3.6090   10.8520    7.1750 C.3   117  GLN117      0.0905
     73  CD         2.9370   12.1590    7.0290 C.2   117  GLN117      0.2608
     74  OE1        1.6940   12.2430    7.0480 O.2   117  GLN117     -0.2717
     75  NE2        3.7370   13.2030    6.8020 N.am  117  GLN117     -0.0878
     76  N          7.6570    9.2170    7.7390 N.3   120  SER120     -0.1202
     77  CA         7.1260    8.0260    8.4260 C.3   120  SER120      0.2020
     78  C          7.9560    6.8160    8.3340 C.2   120  SER120      0.2619
     79  O          8.8010    6.6630    7.4890 O.2   120  SER120     -0.2717
     80  CB         5.7430    7.7210    7.9380 C.3   120  SER120      0.2103
     81  OG         5.7770    7.2960    6.5740 O.3   120  SER120     -0.2182
     82  N          7.6980    5.9080    9.2320 N.am  121  THR121     -0.1938
     83  CA         8.2890    4.5550    9.1630 C.3   121  THR121      0.2028
     84  C          7.8320    3.8690    7.9290 C.2   121  THR121      0.2642
     85  O          8.6070    3.1680    7.2970 O.2   121  THR121     -0.2714
     86  CB         8.0200    3.7520   10.4290 C.3   121  THR121      0.1808
     87  OG1        6.5970    3.7040   10.6100 O.3   121  THR121     -0.2208
     88  CG2        8.6540    4.3600   11.6210 C.3   121  THR121      0.0379
     89  N          6.5830    4.1050    7.4950 N.am  122  SER122     -0.1949
     90  CA         6.0490    3.5780    6.2400 C.3   122  SER122      0.1924
     91  C          6.9060    3.9480    5.0500 C.2   122  SER122      0.2314
     92  O          7.2080    3.1360    4.2160 O.2   122  SER122     -0.2863
     93  CB         4.5930    3.8430    6.0000 C.3   122  SER122      0.2116
     94  OG         3.7100    3.2900    7.0200 O.3   122  SER122     -0.2180
     95  N         -1.4600   12.3570    5.6850 N.3   141  PHE141     -0.1241
     96  CA        -2.0150   11.1890    5.0790 C.3   141  PHE141      0.1605
     97  C         -3.3570   11.4650    4.3500 C.2   141  PHE141      0.2264
     98  O         -3.7150   10.6880    3.4040 O.2   141  PHE141     -0.2867
     99  CB        -2.1550   10.0440    6.0900 C.3   141  PHE141      0.0534
    100  CG        -2.2130    8.7000    5.3940 C.ar  141  PHE141     -0.0203
    101  CD1       -1.0910    8.1730    4.7610 C.ar  141  PHE141     -0.0042
    102  CD2       -3.4520    8.0270    5.2510 C.ar  141  PHE141     -0.0042
    103  CE1       -1.1020    6.9050    4.1210 C.ar  141  PHE141     -0.0003
    104  CE2       -3.4730    6.7820    4.5620 C.ar  141  PHE141     -0.0003
    105  CZ        -2.3010    6.2930    4.0090 C.ar  141  PHE141     -0.0000
    106  N          0.2920    2.7750    5.4980 N.3   158  THR158     -0.1203
    107  CA         0.2940    3.4630    6.7840 C.3   158  THR158      0.1994
    108  C          0.1450    2.5270    7.9190 C.2   158  THR158      0.2617
    109  O          0.1790    1.3410    7.7160 O.2   158  THR158     -0.2717
    110  CB        -0.7590    4.6000    6.8450 C.3   158  THR158      0.1784
    111  OG1       -0.5180    5.4420    8.0400 O.3   158  THR158     -0.2211
    112  CG2       -2.1450    4.1490    6.8050 C.3   158  THR158      0.0376
    113  N          0.0260    3.0130    9.1250 N.am  159  ASP159     -0.1973
    114  CA        -0.1410    2.2050   10.3290 C.3   159  ASP159      0.1709
    115  C         -1.5440    1.5340   10.2470 C.2   159  ASP159      0.2293
    116  O         -2.4200    2.0460    9.6300 O.2   159  ASP159     -0.2864
    117  CB        -0.0320    3.0290   11.5550 C.3   159  ASP159      0.1436
    118  CG         1.3630    3.6470   11.7830 C.2   159  ASP159      0.3671
    119  OD1        2.2260    3.5320   10.9300 O.co2 159  ASP159     -0.2456
    120  OD2        1.5750    4.1800   12.8740 O.co2 159  ASP159     -0.2456
    121  N          4.4320    2.9350   19.8280 N.3   187  TYR187     -0.1241
    122  CA         4.2880    4.4060   19.8790 C.3   187  TYR187      0.1605
    123  C          4.8260    4.9090   21.1800 C.2   187  TYR187      0.2264
    124  O          4.5930    4.3170   22.2420 O.2   187  TYR187     -0.2867
    125  CB         2.8190    4.8980   19.7620 C.3   187  TYR187      0.0534
    126  CG         2.1000    4.6470   18.4850 C.ar  187  TYR187     -0.0201
    127  CD1        2.7100    4.1530   17.3260 C.ar  187  TYR187     -0.0009
    128  CD2        0.7540    4.9630   18.3520 C.ar  187  TYR187     -0.0009
    129  CE1        2.0370    4.0320   16.1140 C.ar  187  TYR187      0.0417
    130  CE2        0.0670    4.7390   17.2020 C.ar  187  TYR187      0.0417
    131  CZ         0.6850    4.2740   16.0470 C.ar  187  TYR187      0.1957
    132  OH        -0.0470    4.0850   14.8600 O.3   187  TYR187     -0.2866
@<TRIPOS>BOND
     1    98    97    2
     2    67    68    1
     3   105   103   ar
     4   105   104   ar
     5   103   101   ar
     6    92    91    2
     7    97    96    1
     8   104   102   ar
     9    68    69    1
    10    68    71    1
    11    69    70    2
    12   101   100   ar
    13    91    90    1
    14    96    95    1
    15    96    99    1
    16   102   100   ar
    17   100    99    1
    18   106   107    1
    19    93    90    1
    20    93    94    1
    21    71    72    1
    22    90    89    1
    23    81    80    1
    24   107   110    1
    25   107   108    1
    26    75    73   am
    27   112   110    1
    28   110   111    1
    29    73    74    2
    30    73    72    1
    31    85    84    2
    32    79    78    2
    33    89    84   am
    34   109   108    2
    35    76    77    1
    36   108   113   am
    37    84    83    1
    38    80    77    1
    39    78    77    1
    40    78    82   am
    41   113   114    1
    42    83    82    1
    43    83    86    1
    44   116   115    2
    45    21    22    1
    46   115   114    1
    47   114   117    1
    48    25    22    1
    49    25    26    1
    50    86    87    1
    51    86    88    1
    52    23    22    1
    53    23    24    2
    54    28    26   ar
    55    28    30   ar
    56    18    16   ar
    57    18    20   ar
    58    16    15   ar
    59   119   118   ar
    60     8     7   ar
    61    10    11    1
    62     9     7   ar
    63    26    27   ar
    64    11    14    1
    65    11    12    1
    66   117   118    1
    67    30    31   ar
    68   118   120   ar
    69     7     6    1
    70    20    19   ar
    71    66    64    1
    72    15    14    1
    73    15    17   ar
    74    12    13    2
    75    27    29   ar
    76    31    29   ar
    77    19    17   ar
    78    64    63    2
    79    64    65    1
    80     6     5    1
    81    63    62    1
    82     5     2    1
    83     3     2    1
    84     3     4    2
    85     2     1    1
    86    54    53    1
    87   132   131    1
    88    62    61    1
    89    61    60    1
    90    53    55    1
    91    53    50    1
    92    40    39    2
    93    35    34    2
    94    56    57    1
    95   131   129   ar
    96   131   130   ar
    97    48    47    1
    98   129   127   ar
    99    49    50    1
   100    49    43   am
   101    39    38    1
   102    39    41   am
   103    60    57    1
   104    50    51    1
   105    34    37   am
   106    34    33    1
   107    57    58    1
   108    36    33    1
   109    52    51    2
   110    38    37    1
   111    42    41    1
   112    42    43    1
   113    42    45    1
   114    46    45    1
   115    46    47    1
   116    43    44    2
   117   130   128   ar
   118    33    32    1
   119   127   126   ar
   120    58    59    2
   121   128   126   ar
   122   126   125    1
   123   125   122    1
   124   121   122    1
   125   122   123    1
   126   123   124    2
