@<TRIPOS>MOLECULE
tmp/4zv5B00.pdb
 115 112 0 0 0
SMALL
GASTEIGER

@<TRIPOS>ATOM
      1  N         20.6800    4.3350   26.7600 N.3     6  LYS6       -0.1231
      2  CA        19.3000    4.7400   27.0650 C.3     6  LYS6        0.1693
      3  C         19.2360    6.0800   27.7930 C.2     6  LYS6        0.2592
      4  O         19.8000    6.2390   28.8800 O.2     6  LYS6       -0.2718
      5  CB        18.5720    3.6740   27.9080 C.3     6  LYS6        0.0285
      6  CG        18.3610    2.3520   27.2030 C.3     6  LYS6        0.0035
      7  CD        17.5930    1.3900   28.0850 C.3     6  LYS6        0.0206
      8  CE        17.5110    0.0290   27.4100 C.3     6  LYS6        0.1093
      9  NZ        17.1220   -1.0220   28.3860 N.3     6  LYS6       -0.1314
     10  N         18.5430    7.0470   27.1960 N.am    7  GLY7       -0.1957
     11  CA        18.3480    8.3400   27.8620 C.3     7  GLY7        0.1869
     12  C         19.3790    9.3750   27.4980 C.2     7  GLY7        0.2309
     13  O         19.2210   10.5610   27.7840 O.2     7  GLY7       -0.2863
     14  N         18.2540   12.3050   25.2130 N.3    10  LEU10      -0.1231
     15  CA        17.4170   13.2250   25.9510 C.3    10  LEU10       0.1693
     16  C         18.2740   14.0520   26.8980 C.2    10  LEU10       0.2592
     17  O         18.1450   15.2950   26.9580 O.2    10  LEU10      -0.2718
     18  CB        16.2690   12.5060   26.6610 C.3    10  LEU10       0.0284
     19  CG        15.2860   13.4380   27.3630 C.3    10  LEU10       0.0019
     20  CD1       14.8220   14.5560   26.4180 C.3    10  LEU10       0.0001
     21  CD2       14.0880   12.6320   27.8410 C.3    10  LEU10       0.0001
     22  N         19.1960   13.3910   27.6050 N.am   11  PHE11      -0.1976
     23  CA        20.0730   14.1470   28.4840 C.3    11  PHE11       0.1639
     24  C         20.9060   15.2070   27.7900 C.2    11  PHE11       0.2290
     25  O         20.9310   16.3540   28.2460 O.2    11  PHE11      -0.2864
     26  CB        21.0460   13.2060   29.2060 C.3    11  PHE11       0.0560
     27  CG        22.0400   13.9570   30.0430 C.ar   11  PHE11      -0.0200
     28  CD1       21.6600   14.4240   31.2920 C.ar   11  PHE11      -0.0042
     29  CD2       23.2910   14.2940   29.5270 C.ar   11  PHE11      -0.0042
     30  CE1       22.5440   15.1590   32.0650 C.ar   11  PHE11      -0.0003
     31  CE2       24.1790   15.0340   30.2910 C.ar   11  PHE11      -0.0003
     32  CZ        23.8010   15.4550   31.5630 C.ar   11  PHE11      -0.0000
     33  N         18.7040   18.1740   26.8290 N.3    14  VAL14      -0.1231
     34  CA        18.3090   19.0790   27.8910 C.3    14  VAL14       0.1692
     35  C         19.5370   19.8370   28.4420 C.2    14  VAL14       0.2591
     36  O         19.4590   21.0210   28.7220 O.2    14  VAL14      -0.2718
     37  CB        17.6300   18.3220   29.0400 C.3    14  VAL14       0.0266
     38  CG1       17.3130   19.2780   30.1810 C.3    14  VAL14       0.0020
     39  CG2       16.3480   17.6660   28.5030 C.3    14  VAL14       0.0020
     40  N         20.6520   19.1340   28.6320 N.am   15  LEU15      -0.1980
     41  CA        21.8610   19.8010   29.1080 C.3    15  LEU15       0.1596
     42  C         22.2530   20.9140   28.1370 C.2    15  LEU15       0.2287
     43  O         22.6200   22.0360   28.5480 O.2    15  LEU15      -0.2864
     44  CB        23.0070   18.7720   29.2010 C.3    15  LEU15       0.0297
     45  CG        24.3300   19.3870   29.6660 C.3    15  LEU15       0.0022
     46  CD1       24.1760   19.7400   31.1350 C.3    15  LEU15       0.0001
     47  CD2       25.4550   18.3780   29.5080 C.3    15  LEU15       0.0001
     48  N         20.0070   23.9760   28.5860 N.3    18  LEU18      -0.1245
     49  CA        20.2660   24.7410   29.7960 C.3    18  LEU18       0.1561
     50  C         21.5820   25.4860   29.7510 C.2    18  LEU18       0.2260
     51  O         21.6600   26.6130   30.2380 O.2    18  LEU18      -0.2867
     52  CB        20.2400   23.8100   31.0130 C.3    18  LEU18       0.0270
     53  CG        18.9070   23.1270   31.3070 C.3    18  LEU18       0.0019
     54  CD1       19.1800   22.0940   32.4020 C.3    18  LEU18       0.0001
     55  CD2       17.8190   24.1060   31.7330 C.3    18  LEU18       0.0001
     56  N         27.1360   12.3360   30.9180 N.3    35  TYR35      -0.1241
     57  CA        25.9660   11.5270   31.2410 C.3    35  TYR35       0.1605
     58  C         26.4060   10.1550   31.7760 C.2    35  TYR35       0.2264
     59  O         25.8760    9.6980   32.7950 O.2    35  TYR35      -0.2867
     60  CB        25.1230   11.3120   29.9910 C.3    35  TYR35       0.0534
     61  CG        23.8990   10.4590   30.2100 C.ar   35  TYR35      -0.0201
     62  CD1       22.9070   10.8580   31.0870 C.ar   35  TYR35      -0.0009
     63  CD2       23.7540    9.2460   29.5330 C.ar   35  TYR35      -0.0009
     64  CE1       21.7730   10.0750   31.2910 C.ar   35  TYR35       0.0417
     65  CE2       22.6170    8.4740   29.7230 C.ar   35  TYR35       0.0417
     66  CZ        21.6630    8.8780   30.6140 C.ar   35  TYR35       0.1957
     67  OH        20.5420    8.0660   30.7350 O.3    35  TYR35      -0.2866
     68  N         19.6720    9.0450   40.1800 N.3    45  PHE45      -0.1228
     69  CA        19.2750   10.4320   39.9020 C.3    45  PHE45       0.1721
     70  C         18.1710   10.5170   38.8010 C.2    45  PHE45       0.2437
     71  O         17.1350   11.1490   39.0260 O.2    45  PHE45      -0.2733
     72  CB        20.4800   11.3970   39.6400 C.3    45  PHE45       0.0547
     73  CG        20.0320   12.7700   39.2150 C.ar   45  PHE45      -0.0202
     74  CD1       19.6000   13.6790   40.1630 C.ar   45  PHE45      -0.0042
     75  CD2       19.9450   13.1160   37.8390 C.ar   45  PHE45      -0.0042
     76  CE1       19.1210   14.9170   39.8180 C.ar   45  PHE45      -0.0003
     77  CE2       19.4690   14.3700   37.4910 C.ar   45  PHE45      -0.0003
     78  CZ        19.0320   15.2580   38.4740 C.ar   45  PHE45      -0.0000
     79  N         18.3910    9.8850   37.6390 N.am   46  PRO46      -0.2729
     80  CA        17.3010    9.9750   36.6270 C.3    46  PRO46       0.1401
     81  C         16.0170    9.2910   37.0640 C.2    46  PRO46       0.2269
     82  O         14.9150    9.7890   36.7740 O.2    46  PRO46      -0.2865
     83  CB        17.8910    9.2650   35.4060 C.3    46  PRO46       0.0296
     84  CG        19.3750    9.1910   35.6410 C.3    46  PRO46       0.0237
     85  CD        19.5640    9.1610   37.1270 C.3    46  PRO46       0.0939
     86  N         15.3150   17.9780   39.2310 N.3    51  LEU51      -0.1245
     87  CA        16.2060   19.1010   39.0260 C.3    51  LEU51       0.1561
     88  C         15.9390   20.0880   40.1280 C.2    51  LEU51       0.2260
     89  O         15.2030   21.0600   39.9680 O.2    51  LEU51      -0.2867
     90  CB        16.0040   19.6740   37.6180 C.3    51  LEU51       0.0270
     91  CG        17.2350   20.2130   36.9100 C.3    51  LEU51       0.0019
     92  CD1       18.3100   19.1490   36.7430 C.3    51  LEU51       0.0001
     93  CD2       16.7820   20.7540   35.5670 C.3    51  LEU51       0.0001
     94  N         20.7090   17.6120   43.4640 N.3    56  TRP56      -0.1241
     95  CA        21.9260   17.9370   42.7010 C.3    56  TRP56       0.1605
     96  C         23.1280   18.0220   43.6260 C.2    56  TRP56       0.2264
     97  O         24.2240   17.5670   43.2470 O.2    56  TRP56      -0.2867
     98  CB        21.7440   19.2360   41.9110 C.3    56  TRP56       0.0550
     99  CG        22.7390   19.3470   40.7990 C.ar   56  TRP56       0.0003
    100  CD1       23.7690   20.2840   40.6400 C.ar   56  TRP56       0.0946
    101  CD2       22.8540   18.4470   39.6750 C.ar   56  TRP56       0.0152
    102  NE1       24.4880   20.0170   39.4840 N.ar   56  TRP56      -0.2442
    103  CE2       24.0010   18.9080   38.8720 C.ar   56  TRP56       0.0810
    104  CE3       22.1580   17.3160   39.2780 C.ar   56  TRP56       0.0012
    105  CZ2       24.3920   18.2450   37.7070 C.ar   56  TRP56       0.0191
    106  CZ3       22.5550   16.6470   38.1160 C.ar   56  TRP56       0.0001
    107  CH2       23.6480   17.1110   37.3300 C.ar   56  TRP56       0.0015
    108  N         25.3260   23.6850   36.4590 N.3    86  LEU86      -0.1245
    109  CA        23.9480   23.2660   36.7970 C.3    86  LEU86       0.1561
    110  C         23.5450   23.6070   38.2400 C.2    86  LEU86       0.2260
    111  O         22.4100   24.0070   38.4670 O.2    86  LEU86      -0.2867
    112  CB        23.6830   21.7790   36.4430 C.3    86  LEU86       0.0270
    113  CG        23.5640   21.4030   34.9450 C.3    86  LEU86       0.0019
    114  CD1       23.6460   19.8790   34.7400 C.3    86  LEU86       0.0001
    115  CD2       22.3260   21.9260   34.2320 C.3    86  LEU86       0.0001
@<TRIPOS>BOND
     1    14    15    1
     2    15    18    1
     3    15    16    1
     4    20    19    1
     5    18    19    1
     6     1     2    1
     7    33    34    1
     8    16    17    2
     9    16    22   am
    10     2     3    1
    11     2     5    1
    12    10     3   am
    13    10    11    1
    14     6     5    1
    15     6     7    1
    16    19    21    1
    17     8     7    1
    18     8     9    1
    19    12    13    2
    20    12    11    1
    21    22    23    1
    22    24    25    2
    23    24    23    1
    24     3     4    2
    25    34    35    1
    26    34    37    1
    27    42    43    2
    28    42    41    1
    29    35    40   am
    30    35    36    2
    31    23    26    1
    32    39    37    1
    33    48    49    1
    34    40    41    1
    35    37    38    1
    36    41    44    1
    37    44    45    1
    38    26    27    1
    39    47    45    1
    40    29    27   ar
    41    29    31   ar
    42    63    65   ar
    43    63    61   ar
    44    45    46    1
    45    65    66   ar
    46    50    49    1
    47    50    51    2
    48    49    52    1
    49    60    61    1
    50    60    57    1
    51    27    28   ar
    52    61    62   ar
    53    31    32   ar
    54    66    67    1
    55    66    64   ar
    56    56    57    1
    57    52    53    1
    58    62    64   ar
    59    57    58    1
    60    28    30   ar
    61    53    55    1
    62    53    54    1
    63    32    30   ar
    64    58    59    2
    65   115   113    1
    66   114   113    1
    67   113   112    1
    68    83    84    1
    69    83    80    1
    70    93    91    1
    71    84    85    1
    72   112   109    1
    73   108   109    1
    74    80    81    1
    75    80    79    1
    76    92    91    1
    77    82    81    2
    78   109   110    1
    79    91    90    1
    80    85    79    1
    81   107   105   ar
    82   107   106   ar
    83    77    75   ar
    84    77    78   ar
    85    90    87    1
    86    79    70   am
    87   105   103   ar
    88    75    73   ar
    89   106   104   ar
    90   110   111    2
    91    78    76   ar
    92    70    71    2
    93    70    69    1
    94   103   102   ar
    95   103   101   ar
    96    87    86    1
    97    87    88    1
    98    73    72    1
    99    73    74   ar
   100   104   101   ar
   101   102   100   ar
   102    72    69    1
   103   101    99   ar
   104    76    74   ar
   105    69    68    1
   106    89    88    2
   107   100    99   ar
   108    99    98    1
   109    98    95    1
   110    95    94    1
   111    95    96    1
   112    97    96    2
