@<TRIPOS>MOLECULE
tmp/4zv8A03.pdb
 83 80 0 0 0
SMALL
GASTEIGER

@<TRIPOS>ATOM
      1  N        -27.5960   39.6040  -26.6350 N.3    12  LEU12      -0.1231
      2  CA       -27.2570   38.5470  -27.5260 C.3    12  LEU12       0.1693
      3  C        -27.0170   37.2280  -26.8560 C.2    12  LEU12       0.2591
      4  O        -27.6880   36.2850  -27.1250 O.2    12  LEU12      -0.2718
      5  CB       -26.0040   38.9340  -28.2670 C.3    12  LEU12       0.0284
      6  CG       -26.2550   39.2310  -29.7160 C.3    12  LEU12       0.0019
      7  CD1      -27.2110   40.3610  -29.8130 C.3    12  LEU12       0.0001
      8  CD2      -24.9560   39.5300  -30.4210 C.3    12  LEU12       0.0001
      9  N        -26.0300   37.1640  -25.9920 N.am   13  LEU13      -0.1980
     10  CA       -25.6680   35.9080  -25.4040 C.3    13  LEU13       0.1596
     11  C        -26.4740   35.5220  -24.1740 C.2    13  LEU13       0.2287
     12  O        -26.2960   34.4900  -23.6570 O.2    13  LEU13      -0.2864
     13  CB       -24.1910   35.9020  -25.0750 C.3    13  LEU13       0.0297
     14  CG       -23.1500   36.0210  -26.1720 C.3    13  LEU13       0.0022
     15  CD1      -21.8470   36.3580  -25.5470 C.3    13  LEU13       0.0001
     16  CD2      -23.0230   34.7760  -26.9680 C.3    13  LEU13       0.0001
     17  N        -25.2200   33.2040  -21.0240 N.3    16  LEU16      -0.1245
     18  CA       -24.2860   32.2110  -21.4660 C.3    16  LEU16       0.1561
     19  C        -23.0280   32.1520  -20.6490 C.2    16  LEU16       0.2260
     20  O        -22.5690   31.0810  -20.3510 O.2    16  LEU16      -0.2867
     21  CB       -23.9180   32.4010  -22.9300 C.3    16  LEU16       0.0270
     22  CG       -22.9770   31.3230  -23.4600 C.3    16  LEU16       0.0019
     23  CD1      -23.5510   29.9270  -23.4230 C.3    16  LEU16       0.0001
     24  CD2      -22.4390   31.6260  -24.8290 C.3    16  LEU16       0.0001
     25  N        -31.8410   35.0090  -26.2240 N.3    45  PRO45      -0.2116
     26  CA       -32.6090   36.2160  -26.4220 C.3    45  PRO45       0.1372
     27  C        -33.8090   36.4220  -25.4970 C.2    45  PRO45       0.2244
     28  O        -34.3670   37.4650  -25.5810 O.2    45  PRO45      -0.2868
     29  CB       -33.0630   36.0630  -27.8540 C.3    45  PRO45       0.0268
     30  CG       -32.9750   34.6470  -28.1380 C.3    45  PRO45       0.0207
     31  CD       -31.9080   34.1050  -27.3650 C.3    45  PRO45       0.0892
     32  N        -27.8610   23.6010  -25.9760 N.3   189  LEU189     -0.1245
     33  CA       -27.3330   24.7910  -26.5770 C.3   189  LEU189      0.1561
     34  C        -28.3720   25.3430  -27.5450 C.2   189  LEU189      0.2260
     35  O        -28.5880   26.5530  -27.5580 O.2   189  LEU189     -0.2867
     36  CB       -26.0150   24.4550  -27.2700 C.3   189  LEU189      0.0270
     37  CG       -25.1430   25.6070  -27.7010 C.3   189  LEU189      0.0019
     38  CD1      -24.4230   26.2640  -26.4870 C.3   189  LEU189      0.0001
     39  CD2      -24.1450   25.0880  -28.7610 C.3   189  LEU189      0.0001
     40  N        -29.8350   29.0890  -28.4150 N.3   193  PHE193     -0.1241
     41  CA       -29.4610   29.8400  -29.6650 C.3   193  PHE193      0.1605
     42  C        -30.0330   29.2840  -30.9930 C.2   193  PHE193      0.2264
     43  O        -29.3870   29.3680  -32.0740 O.2   193  PHE193     -0.2867
     44  CB       -27.9340   29.9670  -29.7900 C.3   193  PHE193      0.0534
     45  CG       -27.2980   30.6300  -28.6180 C.ar  193  PHE193     -0.0203
     46  CD1      -27.5230   31.9910  -28.3650 C.ar  193  PHE193     -0.0042
     47  CD2      -26.5330   29.9040  -27.7240 C.ar  193  PHE193     -0.0042
     48  CE1      -26.9690   32.6210  -27.2350 C.ar  193  PHE193     -0.0003
     49  CE2      -25.9730   30.5300  -26.5740 C.ar  193  PHE193     -0.0003
     50  CZ       -26.1980   31.8860  -26.3460 C.ar  193  PHE193     -0.0000
     51  N        -32.2400   30.2740  -32.9540 N.3   195  GLY195     -0.1210
     52  CA       -32.3860   31.3190  -33.9720 C.3   195  GLY195      0.1956
     53  C        -31.1580   31.4700  -34.8490 C.2   195  GLY195      0.2612
     54  O        -31.2820   31.8090  -36.0120 O.2   195  GLY195     -0.2717
     55  N        -29.9740   31.2140  -34.2850 N.am  196  PHE196     -0.1962
     56  CA       -28.7090   31.2670  -34.9690 C.3   196  PHE196      0.1771
     57  C        -28.3120   29.8660  -35.4080 C.2   196  PHE196      0.2619
     58  O        -27.9320   29.6480  -36.5770 O.2   196  PHE196     -0.2715
     59  CB       -27.6280   31.8220  -34.0270 C.3   196  PHE196      0.0574
     60  CG       -26.2560   31.7600  -34.5920 C.ar  196  PHE196     -0.0200
     61  CD1      -25.8210   32.7310  -35.5000 C.ar  196  PHE196     -0.0042
     62  CD2      -25.3760   30.7370  -34.2360 C.ar  196  PHE196     -0.0042
     63  CE1      -24.5150   32.6720  -36.0550 C.ar  196  PHE196     -0.0003
     64  CE2      -24.0660   30.6610  -34.7850 C.ar  196  PHE196     -0.0003
     65  CZ       -23.6420   31.6340  -35.7010 C.ar  196  PHE196     -0.0000
     66  N        -28.3770   28.8810  -34.5050 N.am  197  LEU197     -0.1977
     67  CA       -27.9130   27.5320  -34.8930 C.3   197  LEU197      0.1596
     68  C        -28.7490   26.7670  -35.9610 C.2   197  LEU197      0.2287
     69  O        -28.2620   25.8010  -36.6060 O.2   197  LEU197     -0.2864
     70  CB       -27.7610   26.6730  -33.6230 C.3   197  LEU197      0.0297
     71  CG       -26.5530   27.0260  -32.7540 C.3   197  LEU197      0.0022
     72  CD1      -26.7040   26.3330  -31.4340 C.3   197  LEU197      0.0001
     73  CD2      -25.1990   26.6190  -33.3790 C.3   197  LEU197      0.0001
     74  N        -29.5810   27.6160  -38.8230 N.3   199  HIS199     -0.1241
     75  CA       -29.0340   27.8090  -40.1720 C.3   199  HIS199      0.1621
     76  C        -27.9210   26.8520  -40.5070 C.2   199  HIS199      0.2264
     77  O        -27.5580   26.7610  -41.6740 O.2   199  HIS199     -0.2867
     78  CB       -28.5810   29.2510  -40.3860 C.3   199  HIS199      0.0745
     79  CG       -29.6700   30.2330  -40.1270 C.ar  199  HIS199      0.0817
     80  ND1      -30.8560   30.2170  -40.8350 N.ar  199  HIS199     -0.2268
     81  CD2      -29.7790   31.2350  -39.2220 C.ar  199  HIS199      0.1154
     82  CE1      -31.6460   31.1770  -40.3830 C.ar  199  HIS199      0.1986
     83  NE2      -31.0170   31.8130  -39.4050 N.ar  199  HIS199     -0.2212
@<TRIPOS>BOND
     1    77    76    2
     2    80    82   ar
     3    80    79   ar
     4    76    75    1
     5    78    75    1
     6    78    79    1
     7    82    83   ar
     8    75    74    1
     9    79    81   ar
    10    83    81   ar
    11    69    68    2
    12    58    57    2
    13    63    65   ar
    14    63    61   ar
    15    54    53    2
    16    68    67    1
    17    65    64   ar
    18    61    60   ar
    19    57    56    1
    20    57    66   am
    21    56    55    1
    22    56    59    1
    23    67    66    1
    24    67    70    1
    25    53    55   am
    26    53    52    1
    27    64    62   ar
    28    60    62   ar
    29    60    59    1
    30    52    51    1
    31    70    71    1
    32    73    71    1
    33    71    72    1
    34    43    42    2
    35    42    41    1
    36     8     6    1
    37     7     6    1
    38    44    41    1
    39    44    45    1
    40     6     5    1
    41    41    40    1
    42    39    37    1
    43    45    46   ar
    44    45    47   ar
    45    46    48   ar
    46     5     2    1
    47    30    29    1
    48    30    31    1
    49    29    26    1
    50    47    49   ar
    51    37    36    1
    52    37    38    1
    53    35    34    2
    54    34    33    1
    55     2     3    1
    56     2     1    1
    57    31    25    1
    58    36    33    1
    59    48    50   ar
    60     4     3    2
    61    16    14    1
    62     3     9   am
    63    33    32    1
    64    49    50   ar
    65    26    25    1
    66    26    27    1
    67    14    15    1
    68    14    13    1
    69     9    10    1
    70    28    27    2
    71    10    13    1
    72    10    11    1
    73    24    22    1
    74    11    12    2
    75    22    23    1
    76    22    21    1
    77    21    18    1
    78    18    17    1
    79    18    19    1
    80    19    20    2
