@<TRIPOS>MOLECULE
tmp/4zv8A02.pdb
 87 81 0 0 0
SMALL
GASTEIGER

@<TRIPOS>ATOM
      1  N        -25.2200   33.2040  -21.0240 N.3    16  LEU16      -0.1231
      2  CA       -24.2860   32.2110  -21.4660 C.3    16  LEU16       0.1693
      3  C        -23.0280   32.1520  -20.6490 C.2    16  LEU16       0.2591
      4  O        -22.5690   31.0810  -20.3510 O.2    16  LEU16      -0.2718
      5  CB       -23.9180   32.4010  -22.9300 C.3    16  LEU16       0.0284
      6  CG       -22.9770   31.3230  -23.4600 C.3    16  LEU16       0.0019
      7  CD1      -23.5510   29.9270  -23.4230 C.3    16  LEU16       0.0001
      8  CD2      -22.4390   31.6260  -24.8290 C.3    16  LEU16       0.0001
      9  N        -22.4460   33.2950  -20.3130 N.am   17  LEU17      -0.1980
     10  CA       -21.0860   33.2080  -19.7500 C.3    17  LEU17       0.1596
     11  C        -21.0840   32.7670  -18.3060 C.2    17  LEU17       0.2287
     12  O        -20.0610   32.2850  -17.7850 O.2    17  LEU17      -0.2864
     13  CB       -20.2740   34.5160  -19.9530 C.3    17  LEU17       0.0297
     14  CG       -20.0110   34.9450  -21.4100 C.3    17  LEU17       0.0022
     15  CD1      -19.0800   36.1400  -21.4230 C.3    17  LEU17       0.0001
     16  CD2      -19.4320   33.8270  -22.2920 C.3    17  LEU17       0.0001
     17  N        -23.1840   30.2510  -17.4080 N.3    19  MET19      -0.1230
     18  CA       -23.6940   28.8520  -17.4070 C.3    19  MET19       0.1702
     19  C        -22.6140   27.8550  -17.0280 C.2    19  MET19       0.2592
     20  O        -21.4480   28.1480  -17.1550 O.2    19  MET19      -0.2718
     21  CB       -24.3140   28.4210  -18.7720 C.3    19  MET19       0.0401
     22  CG       -25.4250   29.3250  -19.3030 C.3    19  MET19       0.0596
     23  SD       -26.9610   29.2490  -18.3740 S.3    19  MET19      -0.1393
     24  CE       -27.5130   27.6270  -18.9280 C.3    19  MET19       0.0692
     25  N        -23.0220   26.6490  -16.6400 N.am   20  ASP20      -0.1960
     26  CA       -22.1150   25.5700  -16.3070 C.3    20  ASP20       0.1840
     27  C        -22.0690   24.6380  -17.4790 C.2    20  ASP20       0.2621
     28  O        -23.0940   24.3780  -18.1090 O.2    20  ASP20      -0.2715
     29  CB       -22.6290   24.8230  -15.0690 C.3    20  ASP20       0.1450
     30  CG       -21.6450   23.7770  -14.5400 C.2    20  ASP20       0.3671
     31  OD1      -21.4680   22.7060  -15.1620 O.co2  20  ASP20      -0.2456
     32  OD2      -21.0660   24.0030  -13.4400 O.co2  20  ASP20      -0.2456
     33  N        -20.8720   24.1090  -17.7260 N.am   21  ARG21      -0.1977
     34  CA       -20.5020   23.2980  -18.9100 C.3    21  ARG21       0.1597
     35  C        -21.2330   21.9720  -18.9210 C.2    21  ARG21       0.2287
     36  O        -21.4190   21.3850  -19.9830 O.2    21  ARG21      -0.2864
     37  CB       -18.9800   22.9940  -18.8770 C.3    21  ARG21       0.0334
     38  CG       -18.2650   24.0480  -19.7050 C.3    21  ARG21       0.0492
     39  CD       -18.3620   23.7170  -21.2030 C.3    21  ARG21       0.2205
     40  NE       -17.6130   22.4910  -21.5110 N.pl3  21  ARG21      -0.0865
     41  CZ       -18.1920   21.3290  -21.8370 C.cat  21  ARG21       0.5346
     42  NH1      -19.5190   21.2280  -21.8720 N.pl3  21  ARG21       0.1354
     43  NH2      -17.4360   20.2630  -22.1140 N.pl3  21  ARG21       0.1354
     44  N        -24.3900   21.3480  -18.3680 N.3    23  GLY23      -0.1210
     45  CA       -25.7910   21.3630  -18.7310 C.3    23  GLY23       0.1956
     46  C        -26.6560   22.4340  -18.0980 C.2    23  GLY23       0.2611
     47  O        -26.2490   23.1690  -17.1780 O.2    23  GLY23      -0.2717
     48  N        -27.8480   22.5550  -18.6350 N.am   24  LEU24      -0.1979
     49  CA       -28.7930   23.5230  -18.1540 C.3    24  LEU24       0.1596
     50  C        -29.1430   23.2820  -16.6910 C.2    24  LEU24       0.2287
     51  O        -29.1450   24.2250  -15.8790 O.2    24  LEU24      -0.2864
     52  CB       -30.0710   23.5100  -18.9970 C.3    24  LEU24       0.0297
     53  CG       -29.9920   23.9330  -20.4940 C.3    24  LEU24       0.0022
     54  CD1      -31.3540   23.8310  -21.2450 C.3    24  LEU24       0.0001
     55  CD2      -29.3670   25.2880  -20.7000 C.3    24  LEU24       0.0001
     56  N        -26.0550   17.6150  -25.1760 N.3   185  VAL185     -0.1245
     57  CA       -25.4330   18.9100  -24.9790 C.3   185  VAL185      0.1561
     58  C        -25.8000   19.8370  -26.1230 C.2   185  VAL185      0.2260
     59  O        -26.0960   20.9920  -25.8790 O.2   185  VAL185     -0.2867
     60  CB       -23.8890   18.8620  -24.8690 C.3   185  VAL185      0.0252
     61  CG1      -23.4060   20.2820  -24.6220 C.3   185  VAL185      0.0019
     62  CG2      -23.4510   17.9650  -23.6910 C.3   185  VAL185      0.0019
     63  N        -29.2840   21.1840  -25.6650 N.3   188  GLN188     -0.1231
     64  CA       -29.4050   22.2580  -24.6520 C.3   188  GLN188      0.1698
     65  C        -28.9520   23.6150  -25.2110 C.2   188  GLN188      0.2592
     66  O        -29.5760   24.6530  -24.9660 O.2   188  GLN188     -0.2718
     67  CB       -28.6370   21.8690  -23.3690 C.3   188  GLN188      0.0381
     68  CG       -29.2470   20.6040  -22.7030 C.3   188  GLN188      0.0905
     69  CD       -28.3290   19.9900  -21.6630 C.2   188  GLN188      0.2608
     70  OE1      -28.1640   20.5600  -20.5680 O.2   188  GLN188     -0.2717
     71  NE2      -27.7100   18.8460  -21.9950 N.am  188  GLN188     -0.0878
     72  N        -27.8610   23.6010  -25.9760 N.am  189  LEU189     -0.1980
     73  CA       -27.3330   24.7910  -26.5770 C.3   189  LEU189      0.1596
     74  C        -28.3720   25.3430  -27.5450 C.2   189  LEU189      0.2287
     75  O        -28.5880   26.5530  -27.5580 O.2   189  LEU189     -0.2864
     76  CB       -26.0150   24.4550  -27.2700 C.3   189  LEU189      0.0297
     77  CG       -25.1430   25.6070  -27.7010 C.3   189  LEU189      0.0022
     78  CD1      -24.4230   26.2640  -26.4870 C.3   189  LEU189      0.0001
     79  CD2      -24.1450   25.0880  -28.7610 C.3   189  LEU189      0.0001
     80  N        -30.9130   27.5690  -26.2130 N.3   192  LEU192     -0.1245
     81  CA       -30.4980   28.9520  -26.0210 C.3   192  LEU192      0.1561
     82  C        -30.4180   29.7140  -27.3780 C.2   192  LEU192      0.2260
     83  O        -30.8950   30.8590  -27.4520 O.2   192  LEU192     -0.2867
     84  CB       -29.1170   29.0100  -25.3020 C.3   192  LEU192      0.0270
     85  CG       -29.0070   28.8680  -23.7990 C.3   192  LEU192      0.0019
     86  CD1      -29.6780   27.6080  -23.2990 C.3   192  LEU192      0.0001
     87  CD2      -27.5180   28.8460  -23.3890 C.3   192  LEU192      0.0001
@<TRIPOS>BOND
     1    79    77    1
     2    77    76    1
     3    77    78    1
     4    75    74    2
     5    74    73    1
     6    83    82    2
     7    82    81    1
     8    76    73    1
     9    73    72    1
    10    80    81    1
    11    58    59    2
    12    58    57    1
    13    81    84    1
    14    72    65   am
    15    63    64    1
    16    84    85    1
    17    65    66    2
    18    65    64    1
    19    56    57    1
    20    57    60    1
    21    60    61    1
    22    60    62    1
    23     8     6    1
    24    64    67    1
    25    85    87    1
    26    85    86    1
    27     6     7    1
    28     6     5    1
    29    67    68    1
    30     5     2    1
    31    68    69    1
    32    16    14    1
    33    43    41    1
    34    71    69   am
    35    42    41    1
    36    41    40    2
    37    69    70    2
    38    40    39    1
    39     2     1    1
    40     2     3    1
    41    15    14    1
    42    14    13    1
    43    54    53    1
    44    39    38    1
    45    55    53    1
    46     3     4    2
    47     3     9   am
    48    53    52    1
    49     9    10    1
    50    36    35    2
    51    13    10    1
    52    10    11    1
    53    38    37    1
    54    22    21    1
    55    22    23    1
    56    52    49    1
    57    24    23    1
    58    35    34    1
    59    34    37    1
    60    34    33    1
    61    21    18    1
    62    45    44    1
    63    45    46    1
    64    48    49    1
    65    48    46   am
    66    11    12    2
    67    49    50    1
    68    28    27    2
    69    46    47    2
    70    33    27   am
    71    27    26    1
    72    17    18    1
    73    18    19    1
    74    20    19    2
    75    19    25   am
    76    50    51    2
    77    25    26    1
    78    26    29    1
    79    31    30   ar
    80    29    30    1
    81    30    32   ar
