@<TRIPOS>MOLECULE
tmp/4zvbC00.pdb
 202 191 0 0 0
SMALL
GASTEIGER

@<TRIPOS>ATOM
      1  N          8.4070   60.6830   22.3940 N.3    38  PHE38      -0.1241
      2  CA         7.5230   60.3240   23.4970 C.3    38  PHE38       0.1605
      3  C          7.5400   61.3950   24.5790 C.2    38  PHE38       0.2264
      4  O          6.4930   61.8010   25.0810 O.2    38  PHE38      -0.2867
      5  CB         7.9310   58.9720   24.0910 C.3    38  PHE38       0.0534
      6  CG         7.2260   58.6280   25.3740 C.ar   38  PHE38      -0.0203
      7  CD1        5.9760   58.0320   25.3560 C.ar   38  PHE38      -0.0042
      8  CD2        7.8190   58.8890   26.5990 C.ar   38  PHE38      -0.0042
      9  CE1        5.3300   57.7110   26.5340 C.ar   38  PHE38      -0.0003
     10  CE2        7.1750   58.5740   27.7800 C.ar   38  PHE38      -0.0003
     11  CZ         5.9310   57.9800   27.7470 C.ar   38  PHE38      -0.0000
     12  N          4.2880   63.7770   25.7790 N.3    42  VAL42      -0.1245
     13  CA         3.8290   63.5820   27.1480 C.3    42  VAL42       0.1561
     14  C          3.7950   64.8920   27.9370 C.2    42  VAL42       0.2260
     15  O          2.8090   65.1860   28.6150 O.2    42  VAL42      -0.2867
     16  CB         4.7260   62.5640   27.8870 C.3    42  VAL42       0.0252
     17  CG1        4.6170   62.7320   29.3960 C.3    42  VAL42       0.0019
     18  CG2        4.3730   61.1450   27.4690 C.3    42  VAL42       0.0019
     19  N          0.8400   65.7080   33.1390 N.3    48  ALA48      -0.1245
     20  CA         2.0580   64.9070   33.0400 C.3    48  ALA48       0.1562
     21  C          3.3350   65.7290   33.2150 C.2    48  ALA48       0.2260
     22  O          4.3480   65.2140   33.6910 O.2    48  ALA48      -0.2867
     23  CB         2.0890   64.1760   31.7060 C.3    48  ALA48       0.0290
     24  N          5.4270   66.0850   36.5630 N.3    51  PHE51      -0.1227
     25  CA         6.3410   65.0220   36.9710 C.3    51  PHE51       0.1736
     26  C          7.6740   65.1510   36.2420 C.2    51  PHE51       0.2595
     27  O          8.6810   64.5770   36.6560 O.2    51  PHE51      -0.2718
     28  CB         5.7240   63.6480   36.7050 C.3    51  PHE51       0.0547
     29  CG         4.4250   63.4190   37.4200 C.ar   51  PHE51      -0.0202
     30  CD1        4.4100   63.0260   38.7470 C.ar   51  PHE51      -0.0042
     31  CD2        3.2180   63.6010   36.7660 C.ar   51  PHE51      -0.0042
     32  CE1        3.2150   62.8160   39.4080 C.ar   51  PHE51      -0.0003
     33  CE2        2.0200   63.3930   37.4220 C.ar   51  PHE51      -0.0003
     34  CZ         2.0200   63.0020   38.7450 C.ar   51  PHE51      -0.0000
     35  N          7.6660   65.9090   35.1520 N.am   52  LEU52      -0.1980
     36  CA         8.8530   66.1070   34.3300 C.3    52  LEU52       0.1596
     37  C          9.3340   67.5520   34.4220 C.2    52  LEU52       0.2287
     38  O          9.2900   68.2930   33.4400 O.2    52  LEU52      -0.2864
     39  CB         8.5620   65.7400   32.8740 C.3    52  LEU52       0.0297
     40  CG         7.9060   64.3790   32.6350 C.3    52  LEU52       0.0022
     41  CD1        7.6960   64.1380   31.1480 C.3    52  LEU52       0.0001
     42  CD2        8.7360   63.2640   33.2520 C.3    52  LEU52       0.0001
     43  N         15.7670   64.4190   35.4540 N.3    57  VAL57      -0.1245
     44  CA        14.7450   63.4050   35.2060 C.3    57  VAL57       0.1561
     45  C         14.5470   63.1830   33.7080 C.2    57  VAL57       0.2260
     46  O         14.3520   62.0500   33.2610 O.2    57  VAL57      -0.2867
     47  CB        13.3990   63.7960   35.8600 C.3    57  VAL57       0.0252
     48  CG1       12.2650   62.9180   35.3470 C.3    57  VAL57       0.0019
     49  CG2       13.5020   63.7030   37.3730 C.3    57  VAL57       0.0019
     50  N         17.1850   60.9560   32.4390 N.3    60  GLN60      -0.1231
     51  CA        17.0060   59.6350   33.0270 C.3    60  GLN60       0.1698
     52  C         15.8660   58.8780   32.3540 C.2    60  GLN60       0.2592
     53  O         16.0060   57.7070   32.0080 O.2    60  GLN60      -0.2718
     54  CB        16.7310   59.7490   34.5280 C.3    60  GLN60       0.0381
     55  CG        17.8750   60.3390   35.3360 C.3    60  GLN60       0.0905
     56  CD        19.0990   59.4510   35.3560 C.2    60  GLN60       0.2608
     57  OE1       20.0340   59.6500   34.5820 O.2    60  GLN60      -0.2717
     58  NE2       19.1080   58.4720   36.2540 N.am   60  GLN60      -0.0878
     59  N         14.7390   59.5570   32.1660 N.am   61  LEU61      -0.1980
     60  CA        13.5690   58.9330   31.5620 C.3    61  LEU61       0.1596
     61  C         13.7890   58.5870   30.0900 C.2    61  LEU61       0.2287
     62  O         13.3950   57.5120   29.6390 O.2    61  LEU61      -0.2864
     63  CB        12.3440   59.8410   31.7110 C.3    61  LEU61       0.0297
     64  CG        11.0290   59.2900   31.1490 C.3    61  LEU61       0.0022
     65  CD1       10.6970   57.9440   31.7750 C.3    61  LEU61       0.0001
     66  CD2        9.8840   60.2720   31.3560 C.3    61  LEU61       0.0001
     67  N         16.0440   55.5270   29.7790 N.3    64  ALA64      -0.1231
     68  CA        15.3240   54.3490   30.2470 C.3    64  ALA64       0.1694
     69  C         14.2390   53.9360   29.2600 C.2    64  ALA64       0.2591
     70  O         13.9940   52.7460   29.0590 O.2    64  ALA64      -0.2718
     71  CB        14.7200   54.6100   31.6160 C.3    64  ALA64       0.0304
     72  N         13.5880   54.9240   28.6540 N.am   65  MET65      -0.1979
     73  CA        12.5530   54.6670   27.6590 C.3    65  MET65       0.1605
     74  C         13.1490   53.9680   26.4450 C.2    65  MET65       0.2287
     75  O         12.5600   53.0380   25.8950 O.2    65  MET65      -0.2864
     76  CB        11.8750   55.9690   27.2330 C.3    65  MET65       0.0413
     77  CG        10.6560   55.7730   26.3490 C.3    65  MET65       0.0598
     78  SD         9.3600   54.8500   27.1920 S.3    65  MET65      -0.1393
     79  CE         9.1640   55.8530   28.6620 C.3    65  MET65       0.0692
     80  N         13.9030   50.4650   27.3360 N.3    68  TRP68      -0.1241
     81  CA        12.6380   49.7500   27.4830 C.3    68  TRP68       0.1605
     82  C         12.1040   49.2680   26.1380 C.2    68  TRP68       0.2264
     83  O         11.7310   48.1030   25.9890 O.2    68  TRP68      -0.2867
     84  CB        11.5960   50.6420   28.1640 C.3    68  TRP68       0.0550
     85  CG        10.3400   49.9200   28.5550 C.ar   68  TRP68       0.0003
     86  CD1       10.0500   49.3830   29.7750 C.ar   68  TRP68       0.0946
     87  CD2        9.2010   49.6590   27.7210 C.ar   68  TRP68       0.0152
     88  NE1        8.8040   48.8030   29.7540 N.ar   68  TRP68      -0.2442
     89  CE2        8.2630   48.9580   28.5060 C.ar   68  TRP68       0.0810
     90  CE3        8.8860   49.9480   26.3900 C.ar   68  TRP68       0.0012
     91  CZ2        7.0320   48.5420   28.0020 C.ar   68  TRP68       0.0191
     92  CZ3        7.6640   49.5330   25.8920 C.ar   68  TRP68       0.0001
     93  CH2        6.7510   48.8380   26.6960 C.ar   68  TRP68       0.0015
     94  N         10.8470   43.5310   34.9930 N.3    86  ILE86      -0.1245
     95  CA        11.0940   44.9200   34.6210 C.3    86  ILE86       0.1561
     96  C          9.8360   45.7660   34.7800 C.2    86  ILE86       0.2260
     97  O          9.8780   46.8440   35.3730 O.2    86  ILE86      -0.2867
     98  CB        11.6070   45.0370   33.1720 C.3    86  ILE86       0.0252
     99  CG1       12.9610   44.3400   33.0320 C.3    86  ILE86       0.0019
    100  CG2       11.7280   46.4960   32.7630 C.3    86  ILE86       0.0019
    101  CD1       13.5200   44.3620   31.6270 C.3    86  ILE86       0.0001
    102  N          9.2180   46.4400   38.3020 N.3    89  THR89      -0.1203
    103  CA        10.1610   47.4390   38.7920 C.3    89  THR89       0.1994
    104  C          9.7310   48.8410   38.3700 C.2    89  THR89       0.2617
    105  O          9.7590   49.7740   39.1720 O.2    89  THR89      -0.2717
    106  CB        11.5890   47.1640   38.2830 C.3    89  THR89       0.1784
    107  OG1       12.0080   45.8640   38.7160 O.3    89  THR89      -0.2211
    108  CG2       12.5580   48.2060   38.8180 C.3    89  THR89       0.0376
    109  N          9.3300   48.9800   37.1100 N.am   90  VAL90      -0.1979
    110  CA         8.8520   50.2600   36.6010 C.3    90  VAL90       0.1595
    111  C          7.5780   50.6690   37.3320 C.2    90  VAL90       0.2287
    112  O          7.3950   51.8370   37.6780 O.2    90  VAL90      -0.2864
    113  CB         8.5840   50.2090   35.0830 C.3    90  VAL90       0.0276
    114  CG1        8.0380   51.5400   34.5930 C.3    90  VAL90       0.0022
    115  CG2        9.8540   49.8450   34.3330 C.3    90  VAL90       0.0022
    116  N          8.5590   51.9770   40.6470 N.3    93  VAL93      -0.1231
    117  CA         9.1230   53.3160   40.5160 C.3    93  VAL93       0.1692
    118  C          8.0180   54.3500   40.3320 C.2    93  VAL93       0.2592
    119  O          8.0090   55.3860   40.9970 O.2    93  VAL93      -0.2718
    120  CB        10.1120   53.4020   39.3350 C.3    93  VAL93       0.0266
    121  CG1       10.5070   54.8470   39.0690 C.3    93  VAL93       0.0020
    122  CG2       11.3410   52.5510   39.6120 C.3    93  VAL93       0.0020
    123  N          7.0860   54.0620   39.4290 N.am   94  HIS94      -0.1976
    124  CA         5.9470   54.9440   39.2040 C.3    94  HIS94       0.1656
    125  C          5.0970   55.0650   40.4680 C.2    94  HIS94       0.2291
    126  O          4.5260   56.1200   40.7420 O.2    94  HIS94      -0.2864
    127  CB         5.0950   54.4380   38.0370 C.3    94  HIS94       0.0771
    128  CG         5.7220   54.6470   36.6930 C.ar   94  HIS94       0.0820
    129  ND1        5.2350   54.0600   35.5450 N.ar   94  HIS94      -0.2267
    130  CD2        6.7960   55.3810   36.3130 C.ar   94  HIS94       0.1154
    131  CE1        5.9820   54.4210   34.5160 C.ar   94  HIS94       0.1986
    132  NE2        6.9350   55.2230   34.9550 N.ar   94  HIS94      -0.2212
    133  N          7.2340   57.0360   43.1870 N.3    97  ILE97      -0.1245
    134  CA         7.1160   58.4520   42.8860 C.3    97  ILE97       0.1561
    135  C          5.6770   58.9000   43.0890 C.2    97  ILE97       0.2260
    136  O          5.4280   59.9040   43.7410 O.2    97  ILE97      -0.2867
    137  CB         7.5630   58.7740   41.4500 C.3    97  ILE97       0.0252
    138  CG1        9.0350   58.4120   41.2620 C.3    97  ILE97       0.0019
    139  CG2        7.3510   60.2470   41.1420 C.3    97  ILE97       0.0019
    140  CD1        9.5380   58.6420   39.8620 C.3    97  ILE97       0.0001
    141  N          3.0170   58.3210   40.3130 N.3    99  ILE99      -0.1245
    142  CA         2.4560   58.7030   39.0230 C.3    99  ILE99       0.1561
    143  C          1.1630   57.9400   38.7460 C.2    99  ILE99       0.2260
    144  O          1.1560   56.7090   38.7350 O.2    99  ILE99      -0.2867
    145  CB         3.4580   58.4550   37.8860 C.3    99  ILE99       0.0252
    146  CG1        4.7860   59.1400   38.2050 C.3    99  ILE99       0.0019
    147  CG2        2.9000   58.9550   36.5620 C.3    99  ILE99       0.0019
    148  CD1        5.9060   58.7540   37.2820 C.3    99  ILE99       0.0001
    149  N         -2.3010   58.5060   33.6250 N.3   103  ILE103     -0.1231
    150  CA        -1.2500   59.3000   33.0020 C.3   103  ILE103      0.1692
    151  C         -0.2590   58.3940   32.2740 C.2   103  ILE103      0.2591
    152  O          0.1550   58.6840   31.1500 O.2   103  ILE103     -0.2718
    153  CB        -0.5030   60.1560   34.0460 C.3   103  ILE103      0.0266
    154  CG1       -1.4800   61.0890   34.7640 C.3   103  ILE103      0.0019
    155  CG2        0.6080   60.9570   33.3930 C.3   103  ILE103      0.0020
    156  CD1       -2.2300   62.0190   33.8340 C.3   103  ILE103      0.0001
    157  N          0.1090   57.2910   32.9200 N.am  104  VAL104     -0.1980
    158  CA         1.0330   56.3200   32.3400 C.3   104  VAL104      0.1595
    159  C          0.4370   55.6350   31.1100 C.2   104  VAL104      0.2287
    160  O          1.1150   55.4630   30.0950 O.2   104  VAL104     -0.2864
    161  CB         1.4380   55.2480   33.3730 C.3   104  VAL104      0.0276
    162  CG1        2.3200   54.1880   32.7290 C.3   104  VAL104      0.0022
    163  CG2        2.1540   55.8930   34.5490 C.3   104  VAL104      0.0022
    164  N         -1.7410   56.8270   29.1810 N.3   106  MET106     -0.1230
    165  CA        -1.7630   57.8270   28.1250 C.3   106  MET106      0.1702
    166  C         -0.4300   57.7960   27.3870 C.2   106  MET106      0.2593
    167  O         -0.3740   57.9950   26.1750 O.2   106  MET106     -0.2718
    168  CB        -2.0390   59.2190   28.7010 C.3   106  MET106      0.0401
    169  CG        -2.0110   60.3500   27.6830 C.3   106  MET106      0.0596
    170  SD        -0.3960   61.1430   27.5400 S.3   106  MET106     -0.1393
    171  CE        -0.1420   61.7060   29.2220 C.3   106  MET106      0.0692
    172  N          0.6400   57.5280   28.1310 N.am  107  GLY107     -0.1942
    173  CA         1.9660   57.4160   27.5540 C.3   107  GLY107      0.2014
    174  C          2.1130   56.1910   26.6720 C.2   107  GLY107      0.2638
    175  O          2.7600   56.2470   25.6260 O.2   107  GLY107     -0.2714
    176  N          1.5110   55.0830   27.0910 N.am  108  PHE108     -0.1973
    177  CA         1.5210   53.8630   26.2920 C.3   108  PHE108      0.1639
    178  C          0.8070   54.0860   24.9670 C.2   108  PHE108      0.2290
    179  O          1.2410   53.5910   23.9270 O.2   108  PHE108     -0.2864
    180  CB         0.8710   52.7050   27.0510 C.3   108  PHE108      0.0560
    181  CG         1.7990   51.9980   27.9950 C.ar  108  PHE108     -0.0200
    182  CD1        2.6600   51.0160   27.5310 C.ar  108  PHE108     -0.0042
    183  CD2        1.8080   52.3060   29.3450 C.ar  108  PHE108     -0.0042
    184  CE1        3.5150   50.3580   28.3940 C.ar  108  PHE108     -0.0003
    185  CE2        2.6630   51.6510   30.2130 C.ar  108  PHE108     -0.0003
    186  CZ         3.5160   50.6760   29.7350 C.ar  108  PHE108     -0.0000
    187  N          3.0460   56.1230   22.7780 N.3   111  LEU111     -0.1245
    188  CA         4.1120   55.2740   22.2570 C.3   111  LEU111      0.1561
    189  C          3.6360   54.4360   21.0720 C.2   111  LEU111      0.2260
    190  O          4.3260   54.3330   20.0580 O.2   111  LEU111     -0.2867
    191  CB         4.6570   54.3620   23.3590 C.3   111  LEU111      0.0270
    192  CG         5.7860   53.4110   22.9550 C.3   111  LEU111      0.0019
    193  CD1        6.9720   54.1850   22.3990 C.3   111  LEU111      0.0001
    194  CD2        6.2110   52.5490   24.1330 C.3   111  LEU111      0.0001
    195  N          2.3850   45.8700   34.0380 N.3   147  MET147     -0.1245
    196  CA         2.8020   47.0450   34.7960 C.3   147  MET147      0.1570
    197  C          1.6630   47.6350   35.6240 C.2   147  MET147      0.2261
    198  O          1.8450   47.9710   36.7940 O.2   147  MET147     -0.2867
    199  CB         3.3580   48.1120   33.8490 C.3   147  MET147      0.0387
    200  CG         3.8790   49.3570   34.5470 C.3   147  MET147      0.0595
    201  SD         4.3430   50.6550   33.3860 S.3   147  MET147     -0.1393
    202  CE         5.6230   49.8290   32.4460 C.3   147  MET147      0.0692
@<TRIPOS>BOND
     1   190   189    2
     2   189   188    1
     3   188   187    1
     4   188   191    1
     5     1     2    1
     6   193   192    1
     7   192   191    1
     8   192   194    1
     9     2     5    1
    10     2     3    1
    11   179   178    2
    12     5     6    1
    13     3     4    2
    14   178   177    1
    15     7     6   ar
    16     7     9   ar
    17     6     8   ar
    18   175   174    2
    19    12    13    1
    20    92    90   ar
    21    92    93   ar
    22    75    74    2
    23    83    82    2
    24    82    81    1
    25   167   166    2
    26   177   180    1
    27   177   176    1
    28    77    78    1
    29    77    76    1
    30    90    87   ar
    31    74    73    1
    32     9    11   ar
    33     8    10   ar
    34   174   176   am
    35   174   173    1
    36    93    91   ar
    37   180   181    1
    38    13    16    1
    39    13    14    1
    40    78    79    1
    41    76    73    1
    42    80    81    1
    43   166   165    1
    44   166   172   am
    45    18    16    1
    46    81    84    1
    47   182   181   ar
    48   182   184   ar
    49   170   169    1
    50   170   171    1
    51   173   172    1
    52    73    72    1
    53   169   168    1
    54    87    89   ar
    55    87    85   ar
    56    11    10   ar
    57    16    17    1
    58    14    15    2
    59   181   183   ar
    60    91    89   ar
    61   165   168    1
    62   165   164    1
    63    84    85    1
    64   184   186   ar
    65    89    88   ar
    66    85    86   ar
    67    72    69   am
    68    70    69    2
    69    69    68    1
    70   183   185   ar
    71    62    61    2
    72   186   185   ar
    73    88    86   ar
    74    67    68    1
    75    61    60    1
    76   160   159    2
    77    68    71    1
    78   159   158    1
    79    41    40    1
    80    64    66    1
    81    64    63    1
    82    64    65    1
    83   152   151    2
    84    60    63    1
    85    60    59    1
    86   101    99    1
    87    23    20    1
    88    53    52    2
    89    59    52   am
    90   151   157   am
    91   151   150    1
    92   158   157    1
    93   158   161    1
    94    52    51    1
    95    50    51    1
    96   202   201    1
    97    40    39    1
    98    40    42    1
    99   162   161    1
   100   100    98    1
   101    39    36    1
   102   150   149    1
   103   150   153    1
   104    51    54    1
   105    99    98    1
   106    20    19    1
   107    20    21    1
   108    98    95    1
   109    21    22    2
   110    46    45    2
   111   161   163    1
   112   201   200    1
   113   155   153    1
   114    38    37    2
   115    45    44    1
   116   156   154    1
   117   199   200    1
   118   199   196    1
   119   195   196    1
   120   153   154    1
   121    36    37    1
   122    36    35    1
   123   115   113    1
   124   131   132   ar
   125   131   129   ar
   126    54    55    1
   127    57    56    2
   128   114   113    1
   129    95    96    1
   130    95    94    1
   131    96    97    2
   132   196   197    1
   133   132   130   ar
   134   113   110    1
   135    35    26   am
   136    44    43    1
   137    44    47    1
   138    55    56    1
   139    48    47    1
   140    56    58   am
   141   129   128   ar
   142   197   198    2
   143    47    49    1
   144    26    27    2
   145    26    25    1
   146   130   128   ar
   147   147   145    1
   148    24    25    1
   149   110   109    1
   150   110   111    1
   151   128   127    1
   152    28    25    1
   153    28    29    1
   154    31    29   ar
   155    31    33   ar
   156   109   104   am
   157   148   146    1
   158   111   112    2
   159    29    30   ar
   160    33    34   ar
   161   145   146    1
   162   145   142    1
   163   127   124    1
   164   106   107    1
   165   106   103    1
   166   106   108    1
   167   102   103    1
   168   104   103    1
   169   104   105    2
   170   144   143    2
   171    34    32   ar
   172   143   142    1
   173    30    32   ar
   174   142   141    1
   175   121   120    1
   176   124   123    1
   177   124   125    1
   178   120   122    1
   179   120   117    1
   180   123   118   am
   181   140   138    1
   182   118   117    1
   183   118   119    2
   184   125   126    2
   185   117   116    1
   186   139   137    1
   187   138   137    1
   188   137   134    1
   189   134   135    1
   190   134   133    1
   191   135   136    2
