@<TRIPOS>MOLECULE
tmp/4zveA00.pdb
 89 86 0 0 0
SMALL
GASTEIGER

@<TRIPOS>ATOM
      1  N          5.6560   45.6270   14.5040 N.3    36  ASP36      -0.1225
      2  CA         4.5730   44.6550   14.6150 C.3    36  ASP36       0.1805
      3  C          4.9470   43.4050   13.8280 C.2    36  ASP36       0.2598
      4  O          5.4130   43.5060   12.6840 O.2    36  ASP36      -0.2718
      5  CB         3.2910   45.2790   14.0440 C.3    36  ASP36       0.1424
      6  CG         2.0590   44.4340   14.2610 C.2    36  ASP36       0.3668
      7  OD1        1.9110   43.8410   15.3340 O.co2  36  ASP36      -0.2456
      8  OD2        1.1990   44.3850   13.3680 O.co2  36  ASP36      -0.2456
      9  N          4.7130   42.2290   14.4140 N.am   37  VAL37      -0.1966
     10  CA         4.9120   40.9630   13.7160 C.3    37  VAL37       0.1727
     11  C          3.6480   40.6640   12.9170 C.2    37  VAL37       0.2616
     12  O          2.6070   40.3270   13.4890 O.2    37  VAL37      -0.2715
     13  CB         5.2440   39.8370   14.7100 C.3    37  VAL37       0.0290
     14  CG1        5.4450   38.5260   13.9500 C.3    37  VAL37       0.0023
     15  CG2        6.4810   40.1970   15.5210 C.3    37  VAL37       0.0023
     16  N          3.7250   40.8330   11.6000 N.am   38  ASP38      -0.1957
     17  CA         2.5540   40.7300   10.7480 C.3    38  ASP38       0.1840
     18  C          1.8610   39.3740   10.9250 C.2    38  ASP38       0.2622
     19  O          2.5180   38.3400   10.9510 O.2    38  ASP38      -0.2715
     20  CB         2.9550   40.9320    9.2830 C.3    38  ASP38       0.1450
     21  CG         3.4550   42.3330    8.9850 C.2    38  ASP38       0.3671
     22  OD1        2.9620   43.2960    9.6250 O.co2  38  ASP38      -0.2456
     23  OD2        4.3060   42.4720    8.0690 O.co2  38  ASP38      -0.2456
     24  N          0.5370   39.4000   11.0500 N.am   39  LYS39      -0.1963
     25  CA        -0.2850   38.1830   11.0870 C.3    39  LYS39       0.1728
     26  C         -0.0070   37.3170   12.3200 C.2    39  LYS39       0.2616
     27  O         -0.3970   36.1500   12.3510 O.2    39  LYS39      -0.2715
     28  CB        -0.1250   37.3400    9.8050 C.3    39  LYS39       0.0311
     29  CG        -0.7480   37.9780    8.5700 C.3    39  LYS39       0.0038
     30  CD        -2.2720   37.8690    8.6130 C.3    39  LYS39       0.0206
     31  CE        -2.9170   38.3400    7.3120 C.3    39  LYS39       0.1093
     32  NZ        -2.6430   39.7810    7.0420 N.3    39  LYS39      -0.1314
     33  N          0.6370   37.8620   13.3550 N.am   40  PHE40      -0.1960
     34  CA         1.0330   37.0260   14.4790 C.3    40  PHE40       0.1771
     35  C         -0.1500   36.2950   15.1120 C.2    40  PHE40       0.2619
     36  O         -0.0660   35.1000   15.3900 O.2    40  PHE40      -0.2715
     37  CB         1.7860   37.8230   15.5370 C.3    40  PHE40       0.0574
     38  CG         2.3700   36.9610   16.6130 C.ar   40  PHE40      -0.0200
     39  CD1        3.4560   36.1280   16.3610 C.ar   40  PHE40      -0.0042
     40  CD2        1.8140   36.9530   17.8750 C.ar   40  PHE40      -0.0042
     41  CE1        3.9720   35.3240   17.3540 C.ar   40  PHE40      -0.0003
     42  CE2        2.3390   36.1580   18.8790 C.ar   40  PHE40      -0.0003
     43  CZ         3.4190   35.3450   18.6140 C.ar   40  PHE40      -0.0000
     44  N         -1.2510   36.9970   15.3590 N.am   41  LYS41      -0.1963
     45  CA        -2.3870   36.3200   15.9760 C.3    41  LYS41       0.1728
     46  C         -2.9660   35.2350   15.0830 C.2    41  LYS41       0.2616
     47  O         -3.3220   34.1580   15.5710 O.2    41  LYS41      -0.2715
     48  CB        -3.4710   37.3030   16.3670 C.3    41  LYS41       0.0311
     49  CG        -3.1060   38.1180   17.5750 C.3    41  LYS41       0.0038
     50  CD        -4.2840   38.9420   18.0410 C.3    41  LYS41       0.0206
     51  CE        -3.9110   39.7770   19.2310 C.3    41  LYS41       0.1093
     52  NZ        -2.8060   40.7240   18.8860 N.3    41  LYS41      -0.1314
     53  N         -3.0880   35.5140   13.7850 N.am   42  GLU42      -0.1977
     54  CA        -3.5690   34.5030   12.8580 C.3    42  GLU42       0.1602
     55  C         -2.6370   33.2900   12.8160 C.2    42  GLU42       0.2287
     56  O         -3.0950   32.1480   12.7890 O.2    42  GLU42      -0.2864
     57  CB        -3.7520   35.0740   11.4600 C.3    42  GLU42       0.0415
     58  CG        -4.2320   34.0210   10.5010 C.3    42  GLU42       0.1163
     59  CD        -4.5250   34.5680    9.1340 C.2    42  GLU42       0.3649
     60  OE1       -5.4800   35.3620    8.9940 O.co2  42  GLU42      -0.2457
     61  OE2       -3.7940   34.1970    8.1970 O.co2  42  GLU42      -0.2457
     62  N          1.9800   41.5850   20.1600 N.3    79  ASP79      -0.1239
     63  CA         2.5490   41.3020   18.8440 C.3    79  ASP79       0.1674
     64  C          3.6530   42.2950   18.4890 C.2    79  ASP79       0.2266
     65  O          4.1680   42.2530   17.3640 O.2    79  ASP79      -0.2867
     66  CB         1.4830   41.4260   17.7270 C.3    79  ASP79       0.1410
     67  CG         0.2980   40.4910   17.8730 C.2    79  ASP79       0.3668
     68  OD1        0.0900   39.8490   18.9070 O.co2  79  ASP79      -0.2456
     69  OD2       -0.4700   40.4190   16.8910 O.co2  79  ASP79      -0.2456
     70  N          1.1080   49.5250    8.3550 N.3   149  LYS149     -0.1245
     71  CA         0.0950   48.4710    8.3600 C.3   149  LYS149      0.1561
     72  C         -0.9230   48.7020    7.2340 C.2   149  LYS149      0.2260
     73  O         -1.2430   47.7870    6.4810 O.2   149  LYS149     -0.2867
     74  CB        -0.6110   48.3970    9.7190 C.3   149  LYS149      0.0271
     75  CG         0.2910   48.0150   10.8780 C.3   149  LYS149      0.0035
     76  CD        -0.4720   48.0090   12.2130 C.3   149  LYS149      0.0206
     77  CE         0.4210   47.7000   13.4080 C.3   149  LYS149      0.1093
     78  NZ        -0.3830   47.4460   14.6630 N.3   149  LYS149     -0.1314
     79  N          1.7430   46.2960    4.9670 N.3   153  ARG153     -0.1245
     80  CA         2.6270   45.5320    5.8570 C.3   153  ARG153      0.1563
     81  C          3.9630   45.1960    5.1620 C.2   153  ARG153      0.2260
     82  O          4.2190   45.6250    4.0250 O.2   153  ARG153     -0.2867
     83  CB         1.9090   44.3140    6.4690 C.3   153  ARG153      0.0307
     84  CG         0.7230   44.7020    7.3310 C.3   153  ARG153      0.0489
     85  CD         0.0210   43.4870    7.9090 C.3   153  ARG153      0.2205
     86  NE        -1.0250   43.8690    8.8560 N.pl3 153  ARG153     -0.0865
     87  CZ        -0.8090   44.1680   10.1380 C.cat 153  ARG153      0.5346
     88  NH1        0.4170   44.1060   10.6610 N.pl3 153  ARG153      0.1354
     89  NH2       -1.8330   44.5360   10.8960 N.pl3 153  ARG153      0.1354
@<TRIPOS>BOND
     1    82    81    2
     2    79    80    1
     3    81    80    1
     4    80    83    1
     5    83    84    1
     6    73    72    2
     7    32    31    1
     8    72    71    1
     9    31    30    1
    10    84    85    1
    11    85    86    1
    12    23    21   ar
    13    61    59   ar
    14    70    71    1
    15    71    74    1
    16    29    30    1
    17    29    28    1
    18    86    87    2
    19    21    20    1
    20    21    22   ar
    21    60    59   ar
    22    59    58    1
    23    20    17    1
    24    74    75    1
    25    28    25    1
    26    87    88    1
    27    87    89    1
    28    58    57    1
    29    17    18    1
    30    17    16    1
    31    75    76    1
    32    18    19    2
    33    18    24   am
    34    24    25    1
    35    25    26    1
    36    57    54    1
    37    16    11   am
    38    76    77    1
    39    26    27    2
    40    26    33   am
    41     4     3    2
    42    56    55    2
    43    55    54    1
    44    54    53    1
    45    11    12    2
    46    11    10    1
    47    33    34    1
    48     8     6   ar
    49    77    78    1
    50    10     9    1
    51    10    13    1
    52    53    46   am
    53     3     9   am
    54     3     2    1
    55    14    13    1
    56     5     6    1
    57     5     2    1
    58     6     7   ar
    59    34    35    1
    60    34    37    1
    61     1     2    1
    62    13    15    1
    63    46    47    2
    64    46    45    1
    65    35    44   am
    66    35    36    2
    67    44    45    1
    68    37    38    1
    69    45    48    1
    70    39    38   ar
    71    39    41   ar
    72    48    49    1
    73    38    40   ar
    74    69    67   ar
    75    41    43   ar
    76    65    64    2
    77    49    50    1
    78    66    67    1
    79    66    63    1
    80    67    68   ar
    81    40    42   ar
    82    50    51    1
    83    64    63    1
    84    43    42   ar
    85    63    62    1
    86    52    51    1
