@<TRIPOS>MOLECULE
tmp/4zvfA00.pdb
 143 135 0 0 0
SMALL
GASTEIGER

@<TRIPOS>ATOM
      1  N          0.2820   -9.9880   11.5870 N.3    37  ASP37      -0.1225
      2  CA        -0.5010  -11.0570   12.1810 C.3    37  ASP37       0.1805
      3  C          0.2110  -12.3850   11.9120 C.2    37  ASP37       0.2597
      4  O          0.4800  -12.7410   10.7570 O.2    37  ASP37      -0.2718
      5  CB        -1.9030  -11.0060   11.5620 C.3    37  ASP37       0.1424
      6  CG        -2.8450  -12.0400   12.1140 C.2    37  ASP37       0.3668
      7  OD1       -2.4720  -13.2210   12.1510 O.co2  37  ASP37      -0.2456
      8  OD2       -3.9930  -11.6760   12.4450 O.co2  37  ASP37      -0.2456
      9  N          0.5440  -13.1090   12.9770 N.am   38  VAL38      -0.1980
     10  CA         1.2830  -14.3640   12.8440 C.3    38  VAL38       0.1595
     11  C          0.4470  -15.3940   12.0940 C.2    38  VAL38       0.2287
     12  O         -0.7540  -15.5470   12.3510 O.2    38  VAL38      -0.2864
     13  CB         1.7150  -14.9260   14.2110 C.3    38  VAL38       0.0276
     14  CG1        2.5070  -16.2360   14.0420 C.3    38  VAL38       0.0022
     15  CG2        2.5410  -13.8850   14.9680 C.3    38  VAL38       0.0022
     16  N         -1.0840  -18.8650   11.0380 N.3    40  LYS40      -0.1231
     17  CA        -1.4160  -20.2150   11.5330 C.3    40  LYS40       0.1693
     18  C         -0.8840  -20.4390   12.9470 C.2    40  LYS40       0.2592
     19  O         -0.3190  -21.4880   13.2780 O.2    40  LYS40      -0.2718
     20  CB        -0.9200  -21.3020   10.5630 C.3    40  LYS40       0.0285
     21  CG        -1.5360  -21.1680    9.1670 C.3    40  LYS40       0.0035
     22  CD        -1.2260  -22.3570    8.2590 C.3    40  LYS40       0.0206
     23  CE        -1.8760  -22.2070    6.8850 C.3    40  LYS40       0.1093
     24  NZ        -1.6620  -23.4160    6.0280 N.3    40  LYS40      -0.1314
     25  N         -1.0610  -19.4220   13.7840 N.am   41  PHE41      -0.1962
     26  CA        -0.5700  -19.4600   15.1520 C.3    41  PHE41       0.1771
     27  C         -1.2970  -20.5210   15.9880 C.2    41  PHE41       0.2619
     28  O         -0.7170  -21.0870   16.9220 O.2    41  PHE41      -0.2715
     29  CB        -0.6860  -18.0670   15.7810 C.3    41  PHE41       0.0574
     30  CG         0.1370  -17.8800   17.0220 C.ar   41  PHE41      -0.0200
     31  CD1        1.4750  -18.2410   17.0540 C.ar   41  PHE41      -0.0042
     32  CD2       -0.4200  -17.2970   18.1420 C.ar   41  PHE41      -0.0042
     33  CE1        2.2350  -18.0420   18.2030 C.ar   41  PHE41      -0.0003
     34  CE2        0.3350  -17.0850   19.2860 C.ar   41  PHE41      -0.0003
     35  CZ         1.6580  -17.4560   19.3100 C.ar   41  PHE41      -0.0000
     36  N         -2.5600  -20.7950   15.6680 N.am   42  LYS42      -0.1963
     37  CA        -3.2670  -21.8810   16.3480 C.3    42  LYS42       0.1728
     38  C         -2.5550  -23.2120   16.1110 C.2    42  LYS42       0.2616
     39  O         -2.3590  -24.0000   17.0400 O.2    42  LYS42      -0.2715
     40  CB        -4.7340  -21.9570   15.9210 C.3    42  LYS42       0.0311
     41  CG        -5.4950  -23.1000   16.5720 C.3    42  LYS42       0.0038
     42  CD        -6.9400  -23.1660   16.1040 C.3    42  LYS42       0.0206
     43  CE        -7.7690  -22.0410   16.7090 C.3    42  LYS42       0.1093
     44  NZ        -9.2320  -22.3470   16.6830 N.3    42  LYS42      -0.1314
     45  N         -2.1490  -23.4470   14.8700 N.am   43  GLU43      -0.1977
     46  CA        -1.4080  -24.6580   14.5390 C.3    43  GLU43       0.1602
     47  C         -0.0560  -24.7110   15.2450 C.2    43  GLU43       0.2287
     48  O          0.3660  -25.7800   15.6930 O.2    43  GLU43      -0.2864
     49  CB        -1.2220  -24.7860   13.0230 C.3    43  GLU43       0.0415
     50  CG        -2.5030  -25.0940   12.2520 C.3    43  GLU43       0.1163
     51  CD        -2.2580  -25.3830   10.7770 C.2    43  GLU43       0.3649
     52  OE1       -3.2480  -25.5020   10.0220 O.co2  43  GLU43      -0.2457
     53  OE2       -1.0800  -25.4890   10.3700 O.co2  43  GLU43      -0.2457
     54  N          0.6800  -23.3710   18.1850 N.3    45  ASN45      -0.1240
     55  CA         0.4050  -23.7170   19.5730 C.3    45  ASN45       0.1653
     56  C         -0.0370  -25.1710   19.7380 C.2    45  ASN45       0.2266
     57  O          0.3420  -25.8220   20.7040 O.2    45  ASN45      -0.2867
     58  CB        -0.6390  -22.7770   20.1690 C.3    45  ASN45       0.1155
     59  CG        -0.0680  -21.4130   20.5030 C.2    45  ASN45       0.2627
     60  OD1        0.6630  -21.2650   21.4700 O.2    45  ASN45      -0.2716
     61  ND2       -0.3970  -20.4150   19.6990 N.am   45  ASN45      -0.0877
     62  N          1.8450  -24.1020   23.9790 N.3    50  HIS50      -0.1241
     63  CA         1.5840  -22.7020   24.3020 C.3    50  HIS50       0.1621
     64  C          2.8690  -21.9540   24.6760 C.2    50  HIS50       0.2264
     65  O          3.0440  -20.7860   24.3080 O.2    50  HIS50      -0.2867
     66  CB         0.5560  -22.6270   25.4440 C.3    50  HIS50       0.0745
     67  CG        -0.0210  -21.2600   25.6770 C.ar   50  HIS50       0.0817
     68  ND1        0.5950  -20.3140   26.4690 N.ar   50  HIS50      -0.2268
     69  CD2       -1.1740  -20.6950   25.2470 C.ar   50  HIS50       0.1154
     70  CE1       -0.1440  -19.2180   26.5020 C.ar   50  HIS50       0.1986
     71  NE2       -1.2230  -19.4220   25.7680 N.ar   50  HIS50      -0.2212
     72  N          4.6840  -21.0900   21.6100 N.3    53  GLY53      -0.1210
     73  CA         3.9680  -19.9650   21.0250 C.3    53  GLY53       0.1956
     74  C          4.3830  -18.6400   21.6550 C.2    53  GLY53       0.2611
     75  O          4.6170  -17.6460   20.9600 O.2    53  GLY53      -0.2717
     76  N          4.5060  -18.6280   22.9810 N.am   54  ASP54      -0.1973
     77  CA         4.9210  -17.4270   23.6970 C.3    54  ASP54       0.1709
     78  C          6.3590  -17.0270   23.3440 C.2    54  ASP54       0.2293
     79  O          6.6620  -15.8410   23.2330 O.2    54  ASP54      -0.2864
     80  CB         4.7780  -17.6180   25.2120 C.3    54  ASP54       0.1436
     81  CG         3.3340  -17.4930   25.7000 C.2    54  ASP54       0.3671
     82  OD1        2.4100  -17.3520   24.8760 O.co2  54  ASP54      -0.2456
     83  OD2        3.1230  -17.5490   26.9360 O.co2  54  ASP54      -0.2456
     84  N          6.2600  -15.3270   19.9900 N.3    57  LEU57      -0.1245
     85  CA         5.8340  -13.9270   20.0930 C.3    57  LEU57       0.1561
     86  C          7.0040  -13.0020   20.4360 C.2    57  LEU57       0.2260
     87  O          7.0710  -11.8860   19.9240 O.2    57  LEU57      -0.2867
     88  CB         4.6810  -13.7680   21.0880 C.3    57  LEU57       0.0270
     89  CG         3.3590  -14.4140   20.6590 C.3    57  LEU57       0.0019
     90  CD1        2.3200  -14.3920   21.7810 C.3    57  LEU57       0.0001
     91  CD2        2.7970  -13.7890   19.3750 C.3    57  LEU57       0.0001
     92  N          1.5160   -3.8480   20.7550 N.3    76  ARG76      -0.1245
     93  CA         0.7950   -5.1040   20.8490 C.3    76  ARG76       0.1563
     94  C         -0.6770   -4.8080   20.6070 C.2    76  ARG76       0.2260
     95  O         -1.2860   -4.0500   21.3590 O.2    76  ARG76      -0.2867
     96  CB         0.9590   -5.6860   22.2520 C.3    76  ARG76       0.0307
     97  CG         0.3140   -7.0500   22.4470 C.3    76  ARG76       0.0489
     98  CD         1.1420   -8.1570   21.8100 C.3    76  ARG76       0.2205
     99  NE         0.5630   -9.4910   22.0130 N.pl3  76  ARG76      -0.0865
    100  CZ         0.8610  -10.3030   23.0220 C.cat  76  ARG76       0.5346
    101  NH1        1.7360   -9.9230   23.9450 N.pl3  76  ARG76       0.1354
    102  NH2        0.2840  -11.5040   23.1080 N.pl3  76  ARG76       0.1354
    103  N         -3.7280  -10.8500   20.5100 N.3    79  GLY79      -0.1210
    104  CA        -2.9830  -12.0350   20.9090 C.3    79  GLY79       0.1956
    105  C         -1.7510  -12.3010   20.0550 C.2    79  GLY79       0.2612
    106  O         -0.6610  -12.5350   20.5770 O.2    79  GLY79      -0.2717
    107  N         -1.9240  -12.2490   18.7380 N.am   80  ASP80      -0.1959
    108  CA        -0.8100  -12.4830   17.8170 C.3    80  ASP80       0.1840
    109  C         -0.8020  -11.4340   16.7200 C.2    80  ASP80       0.2621
    110  O         -0.3930  -11.6980   15.5890 O.2    80  ASP80      -0.2715
    111  CB        -0.8480  -13.9000   17.2190 C.3    80  ASP80       0.1450
    112  CG        -1.9950  -14.1060   16.2470 C.2    80  ASP80       0.3671
    113  OD1       -3.0790  -13.5170   16.4470 O.co2  80  ASP80      -0.2456
    114  OD2       -1.8110  -14.8860   15.2910 O.co2  80  ASP80      -0.2456
    115  N         -1.2410  -10.2340   17.0970 N.am   81  GLU81      -0.1977
    116  CA        -1.3500   -9.1070   16.1840 C.3    81  GLU81       0.1602
    117  C         -0.6150   -7.9000   16.7290 C.2    81  GLU81       0.2287
    118  O         -0.6230   -7.6460   17.9390 O.2    81  GLU81      -0.2864
    119  CB        -2.8130   -8.7420   15.9480 C.3    81  GLU81       0.0415
    120  CG        -3.5660   -9.7490   15.1020 C.3    81  GLU81       0.1163
    121  CD        -4.5590  -10.5600   15.8990 C.2    81  GLU81       0.3649
    122  OE1       -4.6220  -10.3880   17.1360 O.co2  81  GLU81      -0.2457
    123  OE2       -5.2850  -11.3700   15.2850 O.co2  81  GLU81      -0.2457
    124  N         -3.5130  -12.5600    3.7390 N.3   150  LYS150     -0.1245
    125  CA        -3.8870  -13.8690    4.2730 C.3   150  LYS150      0.1561
    126  C         -4.5820  -14.7040    3.1960 C.2   150  LYS150      0.2260
    127  O         -4.2390  -15.8720    2.9660 O.2   150  LYS150     -0.2867
    128  CB        -4.8170  -13.7200    5.4850 C.3   150  LYS150      0.0271
    129  CG        -4.1880  -13.1310    6.7410 C.3   150  LYS150      0.0035
    130  CD        -3.2470  -14.1020    7.4650 C.3   150  LYS150      0.0206
    131  CE        -2.9190  -13.5930    8.8590 C.3   150  LYS150      0.1093
    132  NZ        -1.9610  -14.4660    9.5860 N.3   150  LYS150     -0.1314
    133  N         -0.8600  -16.1770    2.7270 N.3   154  ARG154     -0.1245
    134  CA        -0.0390  -15.8810    3.9170 C.3   154  ARG154      0.1563
    135  C          1.4440  -15.7590    3.5590 C.2   154  ARG154      0.2260
    136  O          1.8200  -15.8360    2.3900 O.2   154  ARG154     -0.2867
    137  CB        -0.2730  -16.8960    5.0450 C.3   154  ARG154      0.0307
    138  CG        -1.7100  -17.0030    5.4820 C.3   154  ARG154      0.0489
    139  CD        -1.8450  -18.0210    6.5970 C.3   154  ARG154      0.2205
    140  NE        -3.1770  -18.0630    7.1990 N.pl3 154  ARG154     -0.0865
    141  CZ        -4.1820  -18.8130    6.7610 C.cat 154  ARG154      0.5346
    142  NH1       -5.3490  -18.7860    7.4020 N.pl3 154  ARG154      0.1354
    143  NH2       -4.0390  -19.5750    5.6750 N.pl3 154  ARG154      0.1354
@<TRIPOS>BOND
     1   136   135    2
     2   133   134    1
     3   127   126    2
     4   126   125    1
     5   135   134    1
     6   124   125    1
     7   134   137    1
     8   125   128    1
     9   137   138    1
    10   138   139    1
    11   128   129    1
    12   143   141    1
    13    24    23    1
    14   139   140    1
    15   129   130    1
    16   141   140    2
    17   141   142    1
    18    23    22    1
    19   130   131    1
    20    22    21    1
    21   131   132    1
    22    21    20    1
    23    52    51   ar
    24    53    51   ar
    25    20    17    1
    26     4     3    2
    27    51    50    1
    28    16    17    1
    29    17    18    1
    30     5     6    1
    31     5     2    1
    32     1     2    1
    33     3     2    1
    34     3     9   am
    35    11    12    2
    36    11    10    1
    37     6     7   ar
    38     6     8   ar
    39    50    49    1
    40    10     9    1
    41    10    13    1
    42    18    19    2
    43    18    25   am
    44    49    46    1
    45    25    26    1
    46    14    13    1
    47    13    15    1
    48    46    45    1
    49    46    47    1
    50    45    38   am
    51   120   121    1
    52   120   119    1
    53    26    29    1
    54    26    27    1
    55    47    48    2
    56   123   121   ar
    57   114   112   ar
    58   110   109    2
    59    36    27   am
    60    36    37    1
    61    29    30    1
    62   121   122   ar
    63    40    37    1
    64    40    41    1
    65   119   116    1
    66    27    28    2
    67    42    41    1
    68    42    43    1
    69    38    37    1
    70    38    39    2
    71   116   117    1
    72   116   115    1
    73   112   113   ar
    74   112   111    1
    75    44    43    1
    76   109   115   am
    77   109   108    1
    78   117   118    2
    79    30    31   ar
    80    30    32   ar
    81    31    33   ar
    82   111   108    1
    83   108   107    1
    84    32    34   ar
    85    54    55    1
    86    33    35   ar
    87   107   105   am
    88    34    35   ar
    89    91    89    1
    90    55    56    1
    91    55    58    1
    92    61    59   am
    93    56    57    2
    94    87    86    2
    95    84    85    1
    96   105   106    2
    97   105   104    1
    98    85    86    1
    99    85    88    1
   100    58    59    1
   101    59    60    2
   102   103   104    1
   103    94    93    1
   104    94    95    2
   105    89    88    1
   106    89    90    1
   107    92    93    1
   108    93    96    1
   109    75    74    2
   110    73    72    1
   111    73    74    1
   112    74    76   am
   113    98    99    1
   114    98    97    1
   115    99   100    2
   116    96    97    1
   117    76    77    1
   118   100   102    1
   119   100   101    1
   120    79    78    2
   121    78    77    1
   122    77    80    1
   123    62    63    1
   124    63    64    1
   125    63    66    1
   126    65    64    2
   127    82    81   ar
   128    80    81    1
   129    69    67   ar
   130    69    71   ar
   131    66    67    1
   132    67    68   ar
   133    81    83   ar
   134    71    70   ar
   135    68    70   ar
