@<TRIPOS>MOLECULE
tmp/4zviA00.pdb
 122 112 0 0 0
SMALL
GASTEIGER

@<TRIPOS>ATOM
      1  N        -12.5310   11.1400   14.1520 N.3    28  VAL28      -0.1245
      2  CA       -13.4620   11.7770   15.0990 C.3    28  VAL28       0.1561
      3  C        -13.2100   11.2420   16.5120 C.2    28  VAL28       0.2260
      4  O        -13.1980   12.0090   17.4670 O.2    28  VAL28      -0.2867
      5  CB       -14.9550   11.5840   14.7040 C.3    28  VAL28       0.0252
      6  CG1      -15.8730   12.2620   15.7140 C.3    28  VAL28       0.0019
      7  CG2      -15.2350   12.1500   13.3190 C.3    28  VAL28       0.0019
      8  N        -10.1420   12.7690   18.3290 N.3    31  ASN31      -0.1225
      9  CA       -10.4160   14.0670   18.9640 C.3    31  ASN31       0.1785
     10  C        -10.9770   13.9020   20.3780 C.2    31  ASN31       0.2597
     11  O        -10.5990   14.6390   21.2970 O.2    31  ASN31      -0.2718
     12  CB       -11.3900   14.9010   18.1290 C.3    31  ASN31       0.1169
     13  CG       -10.7430   15.5040   16.9030 C.2    31  ASN31       0.2627
     14  OD1      -10.4490   16.6990   16.8780 O.2    31  ASN31      -0.2716
     15  ND2      -10.5210   14.6890   15.8790 N.am   31  ASN31      -0.0877
     16  N        -11.8760   12.9320   20.5380 N.am   32  ALA32      -0.1979
     17  CA       -12.4330   12.5850   21.8460 C.3    32  ALA32       0.1597
     18  C        -11.3860   11.9810   22.7930 C.2    32  ALA32       0.2287
     19  O        -11.4440   12.2180   24.0030 O.2    32  ALA32      -0.2864
     20  CB       -13.6160   11.6370   21.6860 C.3    32  ALA32       0.0319
     21  N         -9.1640   14.7090   24.3450 N.3    35  GLU35      -0.1245
     22  CA        -9.8720   15.2910   25.4950 C.3    35  GLU35       0.1567
     23  C         -9.7530   14.4070   26.7450 C.2    35  GLU35       0.2260
     24  O         -9.6260   14.9250   27.8530 O.2    35  GLU35      -0.2867
     25  CB       -11.3470   15.5360   25.1460 C.3    35  GLU35       0.0388
     26  CG       -12.1370   16.3700   26.1540 C.3    35  GLU35       0.1160
     27  CD       -11.8450   17.8650   26.1130 C.2    35  GLU35       0.3649
     28  OE1      -10.8860   18.2990   25.4380 O.co2  35  GLU35      -0.2457
     29  OE2      -12.5900   18.6210   26.7720 O.co2  35  GLU35      -0.2457
     30  N        -20.2260    9.7540   17.2390 N.3    56  VAL56      -0.1245
     31  CA       -19.3330    9.6460   18.3810 C.3    56  VAL56       0.1561
     32  C        -19.7860   10.6800   19.4030 C.2    56  VAL56       0.2260
     33  O        -19.9210   11.8560   19.0720 O.2    56  VAL56      -0.2867
     34  CB       -17.8650    9.9050   17.9990 C.3    56  VAL56       0.0252
     35  CG1      -16.9630    9.7830   19.2190 C.3    56  VAL56       0.0019
     36  CG2      -17.4230    8.9320   16.9150 C.3    56  VAL56       0.0019
     37  N        -18.8040   12.0980   23.2520 N.3    58  ASP58      -0.1239
     38  CA       -17.9620   12.1600   24.4620 C.3    58  ASP58       0.1674
     39  C        -18.6600   12.9450   25.5690 C.2    58  ASP58       0.2266
     40  O        -19.6750   13.6030   25.3230 O.2    58  ASP58      -0.2867
     41  CB       -16.5600   12.7290   24.1650 C.3    58  ASP58       0.1410
     42  CG       -16.5720   14.1920   23.7330 C.2    58  ASP58       0.3668
     43  OD1      -17.1780   15.0390   24.4200 O.co2  58  ASP58      -0.2456
     44  OD2      -15.9360   14.5020   22.7090 O.co2  58  ASP58      -0.2456
     45  N        -15.4610   18.6340   27.8570 N.3    61  ARG61      -0.1231
     46  CA       -15.8540   20.0390   28.0590 C.3    61  ARG61       0.1694
     47  C        -16.7600   20.6320   26.9710 C.2    61  ARG61       0.2593
     48  O        -17.4110   21.6510   27.2090 O.2    61  ARG61      -0.2718
     49  CB       -14.6130   20.9260   28.2000 C.3    61  ARG61       0.0321
     50  CG       -13.8160   20.6850   29.4680 C.3    61  ARG61       0.0489
     51  CD       -12.4940   21.4360   29.4270 C.3    61  ARG61       0.2205
     52  NE       -11.4930   20.7560   28.6010 N.pl3  61  ARG61      -0.0865
     53  CZ       -10.2820   21.2350   28.3100 C.cat  61  ARG61       0.5346
     54  NH1       -9.8790   22.4260   28.7580 N.pl3  61  ARG61       0.1354
     55  NH2       -9.4610   20.5150   27.5490 N.pl3  61  ARG61       0.1354
     56  N        -16.7900   20.0170   25.7880 N.am   62  GLY62      -0.1942
     57  CA       -17.5110   20.5700   24.6400 C.3    62  GLY62       0.2014
     58  C        -16.6060   21.4980   23.8480 C.2    62  GLY62       0.2639
     59  O        -15.7590   22.1860   24.4280 O.2    62  GLY62      -0.2714
     60  N        -16.7830   21.5250   22.5250 N.am   63  ILE63      -0.1963
     61  CA       -15.9650   22.3770   21.6520 C.3    63  ILE63       0.1712
     62  C        -16.3670   23.8350   21.9150 C.2    63  ILE63       0.2458
     63  O        -17.5610   24.1260   21.9750 O.2    63  ILE63      -0.2730
     64  CB       -16.1500   22.0650   20.1420 C.3    63  ILE63       0.0289
     65  CG1      -15.7840   20.6100   19.8160 C.3    63  ILE63       0.0022
     66  CG2      -15.2710   22.9900   19.3000 C.3    63  ILE63       0.0023
     67  CD1      -16.2460   20.1320   18.4530 C.3    63  ILE63       0.0001
     68  N        -15.3810   24.7470   22.0820 N.am   64  PRO64      -0.2727
     69  CA       -15.6660   26.1750   22.2620 C.3    64  PRO64       0.1402
     70  C        -16.6750   26.7670   21.2670 C.2    64  PRO64       0.2269
     71  O        -16.5270   26.5980   20.0540 O.2    64  PRO64      -0.2865
     72  CB       -14.2930   26.8200   22.0750 C.3    64  PRO64       0.0296
     73  CG       -13.3460   25.8080   22.6050 C.3    64  PRO64       0.0237
     74  CD       -13.9490   24.4610   22.3090 C.3    64  PRO64       0.0939
     75  N        -12.6240   24.7800   13.7750 N.3    79  ILE79      -0.1231
     76  CA       -12.1030   23.4060   13.8730 C.3    79  ILE79       0.1692
     77  C        -12.6970   22.5220   12.7620 C.2    79  ILE79       0.2591
     78  O        -11.9880   21.7090   12.1630 O.2    79  ILE79      -0.2718
     79  CB       -12.3860   22.7740   15.2660 C.3    79  ILE79       0.0266
     80  CG1      -11.6670   23.5440   16.3900 C.3    79  ILE79       0.0019
     81  CG2      -11.9710   21.3020   15.3120 C.3    79  ILE79       0.0020
     82  CD1      -10.1560   23.4510   16.4180 C.3    79  ILE79       0.0001
     83  N        -13.9910   22.6960   12.4980 N.am   80  MET80      -0.1979
     84  CA       -14.7150   21.8960   11.5040 C.3    80  MET80       0.1605
     85  C        -14.4950   22.2870   10.0360 C.2    80  MET80       0.2287
     86  O        -14.8250   21.4930    9.1560 O.2    80  MET80      -0.2864
     87  CB       -16.2230   21.9270   11.8080 C.3    80  MET80       0.0413
     88  CG       -16.6160   21.1760   13.0710 C.3    80  MET80       0.0598
     89  SD       -16.7230   19.3970   12.8150 S.3    80  MET80      -0.1393
     90  CE       -16.7670   18.8230   14.5090 C.3    80  MET80       0.0692
     91  N        -10.5620   17.2480   11.8470 N.3    86  VAL86      -0.1245
     92  CA       -11.9930   16.8980   11.7590 C.3    86  VAL86       0.1561
     93  C        -12.6210   17.4920   10.4980 C.2    86  VAL86       0.2260
     94  O        -13.6050   16.9600    9.9850 O.2    86  VAL86      -0.2867
     95  CB       -12.8100   17.3750   12.9970 C.3    86  VAL86       0.0252
     96  CG1      -14.2250   16.7980   12.9830 C.3    86  VAL86       0.0019
     97  CG2      -12.1400   16.9640   14.2940 C.3    86  VAL86       0.0019
     98  N        -22.2880   22.5620   26.5600 N.3   102  ARG102     -0.1245
     99  CA       -21.1980   23.3310   27.1690 C.3   102  ARG102      0.1563
    100  C        -21.7440   24.3660   28.1470 C.2   102  ARG102      0.2260
    101  O        -22.4570   25.2880   27.7560 O.2   102  ARG102     -0.2867
    102  CB       -20.3660   24.0130   26.0730 C.3   102  ARG102      0.0307
    103  CG       -19.0950   24.6980   26.5580 C.3   102  ARG102      0.0489
    104  CD       -18.2820   25.2500   25.3950 C.3   102  ARG102      0.2205
    105  NE       -17.1380   26.0470   25.8500 N.pl3 102  ARG102     -0.0865
    106  CZ       -15.9460   25.5680   26.2250 C.cat 102  ARG102      0.5346
    107  NH1      -15.6780   24.2590   26.2190 N.pl3 102  ARG102      0.1354
    108  NH2      -14.9980   26.4180   26.6190 N.pl3 102  ARG102      0.1354
    109  N        -19.3880   16.7020   23.5510 N.3   130  THR130     -0.1218
    110  CA       -19.5490   16.8990   22.1080 C.3   130  THR130      0.1862
    111  C        -20.1100   15.6290   21.4780 C.2   130  THR130      0.2287
    112  O        -19.7340   14.5150   21.8610 O.2   130  THR130     -0.2866
    113  CB       -18.2030   17.2250   21.4170 C.3   130  THR130      0.1770
    114  OG1      -17.5630   18.3170   22.0840 O.3   130  THR130     -0.2211
    115  CG2      -18.4060   17.6030   19.9480 C.3   130  THR130      0.0375
    116  N        -20.7300   14.2370   17.4250 N.3   132  VAL132     -0.1245
    117  CA       -20.5540   14.4110   15.9810 C.3   132  VAL132      0.1561
    118  C        -21.1180   13.1730   15.2920 C.2   132  VAL132      0.2260
    119  O        -20.7200   12.0580   15.6120 O.2   132  VAL132     -0.2867
    120  CB       -19.0670   14.5890   15.6000 C.3   132  VAL132      0.0252
    121  CG1      -18.8900   14.6820   14.0840 C.3   132  VAL132      0.0019
    122  CG2      -18.4980   15.8310   16.2710 C.3   132  VAL132      0.0019
@<TRIPOS>BOND
     1    86    85    2
     2    94    93    2
     3    85    84    1
     4    93    92    1
     5    84    87    1
     6    84    83    1
     7    92    91    1
     8    92    95    1
     9    87    88    1
    10    78    77    2
    11    83    77   am
    12    77    76    1
    13    89    88    1
    14    89    90    1
    15    96    95    1
    16    95    97    1
    17     7     5    1
    18    75    76    1
    19    76    79    1
    20   121   120    1
    21     1     2    1
    22     5     2    1
    23     5     6    1
    24     2     3    1
    25    79    81    1
    26    79    80    1
    27   118   119    2
    28   118   117    1
    29   120   117    1
    30   120   122    1
    31    15    13   am
    32   117   116    1
    33    80    82    1
    34     3     4    2
    35    14    13    2
    36    13    12    1
    37    36    34    1
    38    30    31    1
    39    34    31    1
    40    34    35    1
    41    12     9    1
    42     8     9    1
    43    31    32    1
    44    67    65    1
    45     9    10    1
    46    33    32    2
    47    66    64    1
    48    65    64    1
    49   115   113    1
    50    71    70    2
    51    64    61    1
    52    10    16   am
    53    10    11    2
    54    16    17    1
    55    70    69    1
    56   113   114    1
    57   113   110    1
    58   111   112    2
    59   111   110    1
    60    61    62    1
    61    61    60    1
    62    20    17    1
    63    17    18    1
    64    62    63    2
    65    62    68   am
    66    72    69    1
    67    72    73    1
    68    68    69    1
    69    68    74    1
    70   110   109    1
    71    74    73    1
    72    60    58   am
    73    44    42   ar
    74    18    19    2
    75    37    38    1
    76    42    41    1
    77    42    43   ar
    78    58    59    2
    79    58    57    1
    80    41    38    1
    81    21    22    1
    82    38    39    1
    83    57    56    1
    84    25    22    1
    85    25    26    1
    86    40    39    2
    87   104   105    1
    88   104   103    1
    89    28    27   ar
    90    22    23    1
    91    56    47   am
    92   105   106    2
    93   102   103    1
    94   102    99    1
    95    27    26    1
    96    27    29   ar
    97   107   106    1
    98   106   108    1
    99    98    99    1
   100    23    24    2
   101    47    48    2
   102    47    46    1
   103    99   100    1
   104    55    53    1
   105   101   100    2
   106    45    46    1
   107    46    49    1
   108    49    50    1
   109    53    52    2
   110    53    54    1
   111    52    51    1
   112    51    50    1
