@<TRIPOS>MOLECULE
tmp/4zvmB03.pdb
 92 91 0 0 0
SMALL
GASTEIGER

@<TRIPOS>ATOM
      1  N         74.2590   12.2280   15.0620 N.3   105  TRP105     -0.1227
      2  CA        73.4530   12.8420   14.0260 C.3   105  TRP105      0.1737
      3  C         72.1750   13.4810   14.5710 C.2   105  TRP105      0.2595
      4  O         71.0540   13.1950   14.1240 O.2   105  TRP105     -0.2718
      5  CB        73.1370   11.8010   12.9510 C.3   105  TRP105      0.0564
      6  CG        74.3710   11.4000   12.2330 C.ar  105  TRP105      0.0003
      7  CD1       74.9430   10.1540   12.1890 C.ar  105  TRP105      0.0946
      8  CD2       75.2090   12.2540   11.4450 C.ar  105  TRP105      0.0152
      9  NE1       76.0910   10.1840   11.4190 N.ar  105  TRP105     -0.2442
     10  CE2       76.2640   11.4620   10.9440 C.ar  105  TRP105      0.0810
     11  CE3       75.1640   13.6120   11.1130 C.ar  105  TRP105      0.0012
     12  CZ2       77.2810   11.9960   10.1430 C.ar  105  TRP105      0.0191
     13  CZ3       76.1560   14.1330   10.3080 C.ar  105  TRP105      0.0001
     14  CH2       77.2010   13.3250    9.8270 C.ar  105  TRP105      0.0015
     15  N         72.3660   14.3690   15.5420 N.am  106  PHE106     -0.1976
     16  CA        71.2580   15.1420   16.0850 C.3   106  PHE106      0.1639
     17  C         70.2110   14.2170   16.6970 C.2   106  PHE106      0.2290
     18  O         69.0320   14.5330   16.7250 O.2   106  PHE106     -0.2864
     19  CB        70.6000   16.0120   15.0050 C.3   106  PHE106      0.0560
     20  CG        71.3250   17.3010   14.7080 C.ar  106  PHE106     -0.0200
     21  CD1       72.7010   17.3480   14.6580 C.ar  106  PHE106     -0.0042
     22  CD2       70.5990   18.4700   14.4510 C.ar  106  PHE106     -0.0042
     23  CE1       73.3690   18.5290   14.3530 C.ar  106  PHE106     -0.0003
     24  CE2       71.2590   19.6710   14.1520 C.ar  106  PHE106     -0.0003
     25  CZ        72.6500   19.6920   14.1090 C.ar  106  PHE106     -0.0000
     26  N         79.6220   16.6810   20.5630 N.3   149  GLY149     -0.1210
     27  CA        80.9020   17.1150   20.0470 C.3   149  GLY149      0.1956
     28  C         80.9190   18.6360   19.9880 C.2   149  GLY149      0.2612
     29  O         81.8890   19.2700   20.4160 O.2   149  GLY149     -0.2717
     30  N         79.8210   19.2120   19.5000 N.am  150  GLY150     -0.1942
     31  CA        79.6980   20.6540   19.3090 C.3   150  GLY150      0.2014
     32  C         79.4970   21.4760   20.5760 C.2   150  GLY150      0.2639
     33  O         79.1310   20.9520   21.6280 O.2   150  GLY150     -0.2714
     34  N         79.7300   22.7830   20.4620 N.am  151  THR151     -0.1950
     35  CA        79.6500   23.6930   21.6010 C.3   151  THR151      0.1897
     36  C         78.2450   24.2170   21.8170 C.2   151  THR151      0.2313
     37  O         77.3930   24.1680   20.9150 O.2   151  THR151     -0.2863
     38  CB        80.5590   24.9190   21.4060 C.3   151  THR151      0.1794
     39  OG1       80.1690   25.5830   20.2020 O.3   151  THR151     -0.2208
     40  CG2       81.9990   24.5110   21.3230 C.3   151  THR151      0.0378
     41  N         77.5470   26.7930   19.2340 N.3   154  MET154     -0.1230
     42  CA        77.1250   26.1660   17.9780 C.3   154  MET154      0.1702
     43  C         75.6560   25.7740   18.0430 C.2   154  MET154      0.2592
     44  O         74.9350   25.8770   17.0450 O.2   154  MET154     -0.2718
     45  CB        77.9540   24.9370   17.6650 C.3   154  MET154      0.0401
     46  CG        79.2620   25.2360   16.9760 C.3   154  MET154      0.0596
     47  SD        80.5080   23.9610   17.3260 S.3   154  MET154     -0.1393
     48  CE        81.9410   24.7360   16.5760 C.3   154  MET154      0.0692
     49  N         75.2080   25.3360   19.2210 N.am  155  TYR155     -0.1976
     50  CA        73.8140   24.9160   19.3810 C.3   155  TYR155      0.1639
     51  C         72.9230   26.0480   19.8990 C.2   155  TYR155      0.2290
     52  O         72.1860   25.8780   20.8770 O.2   155  TYR155     -0.2864
     53  CB        73.7350   23.6710   20.2990 C.3   155  TYR155      0.0560
     54  CG        74.1150   22.4010   19.5530 C.ar  155  TYR155     -0.0198
     55  CD1       73.2800   21.8690   18.5770 C.ar  155  TYR155     -0.0009
     56  CD2       75.3140   21.7550   19.8070 C.ar  155  TYR155     -0.0009
     57  CE1       73.6250   20.7210   17.8930 C.ar  155  TYR155      0.0417
     58  CE2       75.6680   20.6160   19.1170 C.ar  155  TYR155      0.0417
     59  CZ        74.8130   20.1010   18.1670 C.ar  155  TYR155      0.1957
     60  OH        75.1620   18.9510   17.4740 O.3   155  TYR155     -0.2866
     61  N         75.6570   27.6390   13.9350 N.3   160  VAL160     -0.1231
     62  CA        75.5780   26.7210   12.7960 C.3   160  VAL160      0.1692
     63  C         74.5600   25.5910   12.9500 C.2   160  VAL160      0.2592
     64  O         73.8330   25.2800   11.9990 O.2   160  VAL160     -0.2718
     65  CB        76.9500   26.0590   12.5110 C.3   160  VAL160      0.0266
     66  CG1       77.8550   27.0040   11.7290 C.3   160  VAL160      0.0020
     67  CG2       77.6190   25.5750   13.8140 C.3   160  VAL160      0.0020
     68  N         74.5060   24.9790   14.1370 N.am  161  ASN161     -0.1974
     69  CA        73.6590   23.8020   14.3610 C.3   161  ASN161      0.1688
     70  C         72.1950   24.0900   14.7120 C.2   161  ASN161      0.2292
     71  O         71.3980   23.1610   14.8880 O.2   161  ASN161     -0.2864
     72  CB        74.2640   22.9440   15.4760 C.3   161  ASN161      0.1181
     73  CG        75.5330   22.2910   15.0620 C.2   161  ASN161      0.2629
     74  OD1       75.7220   21.9970   13.8850 O.2   161  ASN161     -0.2716
     75  ND2       76.4220   22.0500   16.0160 N.am  161  ASN161     -0.0877
     76  N         84.9590   16.8670   24.8200 N.3   193  GLU193     -0.1231
     77  CA        86.1940   16.4500   24.1670 C.3   193  GLU193      0.1699
     78  C         87.1550   17.6380   24.0990 C.2   193  GLU193      0.2592
     79  O         88.3610   17.4830   24.2360 O.2   193  GLU193     -0.2718
     80  CB        85.8990   15.8850   22.7580 C.3   193  GLU193      0.0402
     81  CG        85.4410   14.4250   22.7780 C.3   193  GLU193      0.1161
     82  CD        84.9250   13.9280   21.4400 C.2   193  GLU193      0.3649
     83  OE1       83.8820   14.4260   20.9820 O.co2 193  GLU193     -0.2457
     84  OE2       85.5610   13.0260   20.8550 O.co2 193  GLU193     -0.2457
     85  N         86.5740   18.8190   23.9160 N.am  194  ILE194     -0.1980
     86  CA        87.2710   20.0990   23.8210 C.3   194  ILE194      0.1595
     87  C         87.5830   20.7330   25.1780 C.2   194  ILE194      0.2287
     88  O         88.5850   21.4350   25.3440 O.2   194  ILE194     -0.2864
     89  CB        86.4010   21.0960   22.9940 C.3   194  ILE194      0.0276
     90  CG1       86.4460   20.7380   21.5110 C.3   194  ILE194      0.0022
     91  CG2       86.8130   22.5510   23.1960 C.3   194  ILE194      0.0022
     92  CD1       87.8150   20.8940   20.8490 C.3   194  ILE194      0.0001
@<TRIPOS>BOND
     1    14    12   ar
     2    14    13   ar
     3    12    10   ar
     4    13    11   ar
     5    10     9   ar
     6    10     8   ar
     7    11     8   ar
     8     9     7   ar
     9     8     6   ar
    10    66    65    1
    11    64    63    2
    12     7     6   ar
    13     6     5    1
    14    65    62    1
    15    65    67    1
    16    62    63    1
    17    62    61    1
    18    63    68   am
    19     5     2    1
    20    74    73    2
    21     2     3    1
    22     2     1    1
    23    25    24   ar
    24    25    23   ar
    25     4     3    2
    26    68    69    1
    27    24    22   ar
    28    23    21   ar
    29    69    70    1
    30    69    72    1
    31    22    20   ar
    32     3    15   am
    33    21    20   ar
    34    20    19    1
    35    70    71    2
    36    19    16    1
    37    73    72    1
    38    73    75   am
    39    15    16    1
    40    16    17    1
    41    48    47    1
    42    17    18    2
    43    46    47    1
    44    46    45    1
    45    44    43    2
    46    60    59    1
    47    45    42    1
    48    57    59   ar
    49    57    55   ar
    50    42    43    1
    51    42    41    1
    52    43    49   am
    53    59    58   ar
    54    55    54   ar
    55    58    56   ar
    56    49    50    1
    57    31    30    1
    58    31    32    1
    59    50    51    1
    60    50    53    1
    61    30    28   am
    62    54    56   ar
    63    54    53    1
    64    51    52    2
    65    28    27    1
    66    28    29    2
    67    27    26    1
    68    39    38    1
    69    34    32   am
    70    34    35    1
    71    32    33    2
    72    92    90    1
    73    84    82   ar
    74    37    36    2
    75    83    82   ar
    76    40    38    1
    77    38    35    1
    78    82    81    1
    79    90    89    1
    80    35    36    1
    81    80    81    1
    82    80    77    1
    83    89    91    1
    84    89    86    1
    85    86    85    1
    86    86    87    1
    87    85    78   am
    88    78    77    1
    89    78    79    2
    90    77    76    1
    91    87    88    2
