@<TRIPOS>MOLECULE
tmp/4zvmB01.pdb
 95 91 0 0 0
SMALL
GASTEIGER

@<TRIPOS>ATOM
      1  N         54.2680   -3.2760   13.1080 N.3    68  GLY68      -0.1210
      2  CA        53.4690   -2.5960   14.1130 C.3    68  GLY68       0.1956
      3  C         52.2800   -3.4630   14.5340 C.2    68  GLY68       0.2611
      4  O         51.9850   -3.5930   15.7170 O.2    68  GLY68      -0.2717
      5  N         51.6350   -4.0930   13.5630 N.am   69  VAL69      -0.1979
      6  CA        50.5030   -4.9680   13.8620 C.3    69  VAL69       0.1595
      7  C         50.9580   -6.2060   14.6250 C.2    69  VAL69       0.2287
      8  O         50.3500   -6.5800   15.6310 O.2    69  VAL69      -0.2864
      9  CB        49.7730   -5.3980   12.5730 C.3    69  VAL69       0.0276
     10  CG1       48.7900   -6.5640   12.8470 C.3    69  VAL69       0.0022
     11  CG2       49.0630   -4.2010   11.9600 C.3    69  VAL69       0.0022
     12  N         52.0610   -5.4420   18.2880 N.3    72  HIS72      -0.1241
     13  CA        50.9250   -5.0490   19.1070 C.3    72  HIS72       0.1621
     14  C         50.1710   -6.3050   19.5590 C.2    72  HIS72       0.2264
     15  O         49.8870   -6.5030   20.7400 O.2    72  HIS72      -0.2867
     16  CB        49.9910   -4.1270   18.3150 C.3    72  HIS72       0.0745
     17  CG        48.7900   -3.6720   19.0820 C.ar   72  HIS72       0.0817
     18  ND1       47.7050   -3.0700   18.4830 N.ar   72  HIS72      -0.2268
     19  CD2       48.4990   -3.7420   20.4050 C.ar   72  HIS72       0.1154
     20  CE1       46.8090   -2.7630   19.4060 C.ar   72  HIS72       0.1986
     21  NE2       47.2640   -3.1620   20.5780 N.ar   72  HIS72      -0.2212
     22  N         59.0740    0.1960   23.0300 N.3   120  LEU120     -0.1245
     23  CA        57.9070    1.0450   23.2070 C.3   120  LEU120      0.1561
     24  C         56.8220    0.6790   22.2040 C.2   120  LEU120      0.2260
     25  O         56.4530    1.4870   21.3470 O.2   120  LEU120     -0.2867
     26  CB        58.3100    2.5210   23.0610 C.3   120  LEU120      0.0270
     27  CG        59.3850    2.9260   24.0310 C.3   120  LEU120      0.0019
     28  CD1       59.8920    4.3780   23.7490 C.3   120  LEU120      0.0001
     29  CD2       58.9020    2.8030   25.4710 C.3   120  LEU120      0.0001
     30  N         53.0590   -0.7190   20.6600 N.3   122  GLN122     -0.1245
     31  CA        51.6700   -0.4370   20.9090 C.3   122  GLN122      0.1566
     32  C         51.1180   -1.4560   21.9060 C.2   122  GLN122      0.2260
     33  O         51.4070   -2.6570   21.8220 O.2   122  GLN122     -0.2867
     34  CB        50.8510   -0.4440   19.6130 C.3   122  GLN122      0.0367
     35  CG        49.4560    0.1570   19.8190 C.3   122  GLN122      0.0905
     36  CD        48.5760    0.2110   18.5580 C.2   122  GLN122      0.2608
     37  OE1       49.0530    0.0420   17.4350 O.2   122  GLN122     -0.2717
     38  NE2       47.2790    0.4650   18.7550 N.am  122  GLN122     -0.0878
     39  N         51.8730    2.9540   24.4500 N.3   126  PHE126     -0.1241
     40  CA        50.8250    3.8210   23.9340 C.3   126  PHE126      0.1605
     41  C         49.7120    2.9530   23.3690 C.2   126  PHE126      0.2264
     42  O         49.8800    1.7470   23.1840 O.2   126  PHE126     -0.2867
     43  CB        51.3760    4.7700   22.8570 C.3   126  PHE126      0.0534
     44  CG        51.6740    4.0890   21.5450 C.ar  126  PHE126     -0.0203
     45  CD1       52.9050    3.5100   21.3190 C.ar  126  PHE126     -0.0042
     46  CD2       50.7180    4.0320   20.5450 C.ar  126  PHE126     -0.0042
     47  CE1       53.1930    2.8910   20.1110 C.ar  126  PHE126     -0.0003
     48  CE2       50.9830    3.3960   19.3400 C.ar  126  PHE126     -0.0003
     49  CZ        52.2130    2.8090   19.1280 C.ar  126  PHE126     -0.0000
     50  N         45.9680    3.5420   20.6180 N.3   128  ILE128     -0.1245
     51  CA        45.1330    4.4060   19.7880 C.3   128  ILE128      0.1561
     52  C         43.6640    4.1640   20.0940 C.2   128  ILE128      0.2260
     53  O         43.1190    3.1490   19.6690 O.2   128  ILE128     -0.2867
     54  CB        45.3250    4.1550   18.3020 C.3   128  ILE128      0.0252
     55  CG1       46.7890    3.8320   17.9560 C.3   128  ILE128      0.0019
     56  CG2       44.7860    5.3480   17.5280 C.3   128  ILE128      0.0019
     57  CD1       47.6910    5.0010   17.8880 C.3   128  ILE128      0.0001
     58  N         47.5770    8.2040   23.8040 N.3   131  PHE131     -0.1227
     59  CA        48.8970    8.7420   23.5670 C.3   131  PHE131      0.1736
     60  C         48.9470   10.2080   23.9680 C.2   131  PHE131      0.2595
     61  O         47.9510   10.7670   24.4330 O.2   131  PHE131     -0.2718
     62  CB        49.3010    8.5550   22.1120 C.3   131  PHE131      0.0547
     63  CG        48.3370    9.1550   21.1150 C.ar  131  PHE131     -0.0202
     64  CD1       48.4420   10.4780   20.7430 C.ar  131  PHE131     -0.0042
     65  CD2       47.3510    8.3870   20.5360 C.ar  131  PHE131     -0.0042
     66  CE1       47.5740   11.0290   19.8120 C.ar  131  PHE131     -0.0003
     67  CE2       46.4870    8.9290   19.6010 C.ar  131  PHE131     -0.0003
     68  CZ        46.6020   10.2540   19.2400 C.ar  131  PHE131     -0.0000
     69  N         50.1180   10.8070   23.7750 N.am  132  TYR132     -0.1976
     70  CA        50.4920   12.0680   24.4010 C.3   132  TYR132      0.1639
     71  C         49.9860   12.0700   25.8400 C.2   132  TYR132      0.2290
     72  O         50.3420   11.1620   26.5990 O.2   132  TYR132     -0.2864
     73  CB        49.9980   13.2610   23.5780 C.3   132  TYR132      0.0560
     74  CG        50.8310   13.4350   22.3360 C.ar  132  TYR132     -0.0198
     75  CD1       52.1980   13.5980   22.4310 C.ar  132  TYR132     -0.0009
     76  CD2       50.2570   13.4070   21.0690 C.ar  132  TYR132     -0.0009
     77  CE1       52.9870   13.7450   21.2980 C.ar  132  TYR132      0.0417
     78  CE2       51.0470   13.5390   19.9200 C.ar  132  TYR132      0.0417
     79  CZ        52.4070   13.7070   20.0560 C.ar  132  TYR132      0.1957
     80  OH        53.2240   13.8500   18.9590 O.3   132  TYR132     -0.2866
     81  N         58.0490   13.5810   20.2090 N.3   174  GLY174     -0.1225
     82  CA        57.5170   12.5570   19.3190 C.3   174  GLY174      0.1811
     83  C         57.5890   11.1690   19.9310 C.2   174  GLY174      0.2280
     84  O         56.8700   10.2830   19.4800 O.2   174  GLY174     -0.2866
     85  N         54.7470   11.2820   23.6810 N.3   178  PHE178     -0.1241
     86  CA        53.7390   10.5060   22.9590 C.3   178  PHE178      0.1605
     87  C         53.3310    9.3090   23.8000 C.2   178  PHE178      0.2264
     88  O         52.1990    8.8630   23.7650 O.2   178  PHE178     -0.2867
     89  CB        54.2630   10.0300   21.6090 C.3   178  PHE178      0.0534
     90  CG        53.2290    9.3430   20.7760 C.ar  178  PHE178     -0.0203
     91  CD1       52.3510   10.0840   20.0270 C.ar  178  PHE178     -0.0042
     92  CD2       53.1540    7.9670   20.7080 C.ar  178  PHE178     -0.0042
     93  CE1       51.3970    9.4640   19.2440 C.ar  178  PHE178     -0.0003
     94  CE2       52.1940    7.3470   19.9280 C.ar  178  PHE178     -0.0003
     95  CZ        51.3260    8.0880   19.2050 C.ar  178  PHE178     -0.0000
@<TRIPOS>BOND
     1    11     9    1
     2     9    10    1
     3     9     6    1
     4     1     2    1
     5     5     6    1
     6     5     3   am
     7     6     7    1
     8     2     3    1
     9     3     4    2
    10     7     8    2
    11    37    36    2
    12    56    54    1
    13    57    55    1
    14    55    54    1
    15    12    13    1
    16    54    51    1
    17    16    17    1
    18    16    13    1
    19    18    17   ar
    20    18    20   ar
    21    36    38   am
    22    36    35    1
    23    80    79    1
    24    17    19   ar
    25    13    14    1
    26    49    48   ar
    27    49    47   ar
    28    95    93   ar
    29    95    94   ar
    30    68    67   ar
    31    68    66   ar
    32    93    91   ar
    33    82    83    1
    34    82    81    1
    35    48    46   ar
    36    20    21   ar
    37    84    83    2
    38    14    15    2
    39    67    65   ar
    40    34    35    1
    41    34    31    1
    42    53    52    2
    43    51    52    1
    44    51    50    1
    45    66    64   ar
    46    78    79   ar
    47    78    76   ar
    48    94    92   ar
    49    91    90   ar
    50    79    77   ar
    51    47    45   ar
    52    19    21   ar
    53    65    63   ar
    54    46    44   ar
    55    30    31    1
    56    92    90   ar
    57    64    63   ar
    58    90    89    1
    59    31    32    1
    60    76    74   ar
    61    63    62    1
    62    77    75   ar
    63    45    44   ar
    64    25    24    2
    65    44    43    1
    66    89    86    1
    67    33    32    2
    68    62    59    1
    69    24    23    1
    70    74    75   ar
    71    74    73    1
    72    43    40    1
    73    86    85    1
    74    86    87    1
    75    22    23    1
    76    26    23    1
    77    26    27    1
    78    42    41    2
    79    41    40    1
    80    59    58    1
    81    59    60    1
    82    73    70    1
    83    28    27    1
    84    88    87    2
    85    69    60   am
    86    69    70    1
    87    40    39    1
    88    60    61    2
    89    27    29    1
    90    70    71    1
    91    71    72    2
