@<TRIPOS>MOLECULE
tmp/4zvnB01.pdb
 99 95 0 0 0
SMALL
GASTEIGER

@<TRIPOS>ATOM
      1  N         28.7730   -5.9950  -19.1900 N.3    67  TYR67      -0.1227
      2  CA        28.2410   -5.6050  -17.8820 C.3    67  TYR67       0.1736
      3  C         28.5650   -6.6230  -16.7860 C.2    67  TYR67       0.2596
      4  O         29.0470   -6.2540  -15.7130 O.2    67  TYR67      -0.2718
      5  CB        26.7170   -5.3700  -17.9520 C.3    67  TYR67       0.0548
      6  CG        26.1980   -4.7450  -16.6720 C.ar   67  TYR67      -0.0200
      7  CD1       26.3310   -3.3720  -16.4420 C.ar   67  TYR67      -0.0009
      8  CD2       25.6240   -5.5280  -15.6770 C.ar   67  TYR67      -0.0009
      9  CE1       25.8900   -2.7970  -15.2490 C.ar   67  TYR67       0.0417
     10  CE2       25.1760   -4.9590  -14.4790 C.ar   67  TYR67       0.0417
     11  CZ        25.3060   -3.5980  -14.2810 C.ar   67  TYR67       0.1957
     12  OH        24.8770   -3.0270  -13.1080 O.3    67  TYR67      -0.2866
     13  N         28.3170   -7.9010  -17.0490 N.am   68  GLY68      -0.1957
     14  CA        28.5350   -8.9270  -16.0420 C.3    68  GLY68       0.1869
     15  C         29.9840   -9.0010  -15.5840 C.2    68  GLY68       0.2309
     16  O         30.2840   -9.0290  -14.3910 O.2    68  GLY68      -0.2863
     17  N         31.1820   -5.7050  -13.7190 N.3    71  THR71      -0.1218
     18  CA        30.6600   -5.4960  -12.3740 C.3    71  THR71       0.1862
     19  C         31.2270   -6.5500  -11.4290 C.2    71  THR71       0.2287
     20  O         31.4170   -6.2800  -10.2400 O.2    71  THR71      -0.2866
     21  CB        29.1070   -5.5080  -12.3450 C.3    71  THR71       0.1770
     22  OG1       28.5980   -6.6970  -12.9700 O.3    71  THR71      -0.2211
     23  CG2       28.5620   -4.2980  -13.0680 C.3    71  THR71       0.0375
     24  N         17.2730   -5.5780   -8.6830 N.3   116  MET116     -0.1230
     25  CA        17.7360   -6.9550   -8.7790 C.3   116  MET116      0.1702
     26  C         18.9010   -7.0930   -9.7670 C.2   116  MET116      0.2592
     27  O         19.9010   -7.7500   -9.4540 O.2   116  MET116     -0.2718
     28  CB        16.5770   -7.8720   -9.1690 C.3   116  MET116      0.0401
     29  CG        15.5600   -8.0000   -8.0580 C.3   116  MET116      0.0596
     30  SD        13.9860   -8.7000   -8.5560 S.3   116  MET116     -0.1393
     31  CE        13.2960   -9.0950   -6.9360 C.3   116  MET116      0.0692
     32  N         18.7890   -6.4560  -10.9310 N.am  117  ASP117     -0.1974
     33  CA        19.8280   -6.5490  -11.9650 C.3   117  ASP117      0.1709
     34  C         21.1710   -5.9940  -11.5080 C.2   117  ASP117      0.2293
     35  O         22.2290   -6.5360  -11.8550 O.2   117  ASP117     -0.2864
     36  CB        19.4450   -5.7730  -13.2360 C.3   117  ASP117      0.1436
     37  CG        18.2400   -6.3360  -13.9540 C.2   117  ASP117      0.3671
     38  OD1       17.8230   -7.4800  -13.6660 O.co2 117  ASP117     -0.2456
     39  OD2       17.7230   -5.6060  -14.8310 O.co2 117  ASP117     -0.2456
     40  N         22.4250   -7.3920   -7.2150 N.3   120  LEU120     -0.1231
     41  CA        22.7780   -8.7950   -7.0330 C.3   120  LEU120      0.1693
     42  C         23.8530   -9.2460   -8.0160 C.2   120  LEU120      0.2592
     43  O         23.6300  -10.1390   -8.8240 O.2   120  LEU120     -0.2718
     44  CB        21.5250   -9.6610   -7.1710 C.3   120  LEU120      0.0284
     45  CG        20.3770   -9.3310   -6.2150 C.3   120  LEU120      0.0019
     46  CD1       19.1550  -10.1870   -6.5400 C.3   120  LEU120      0.0001
     47  CD2       20.7890   -9.5090   -4.7450 C.3   120  LEU120      0.0001
     48  N         25.0190   -8.6060   -7.9530 N.am  121  CYS121     -0.1956
     49  CA        26.0680   -8.8410   -8.9330 C.3   121  CYS121      0.1843
     50  C         26.9100  -10.0720   -8.5860 C.2   121  CYS121      0.2625
     51  O         26.8690  -10.5750   -7.4540 O.2   121  CYS121     -0.2714
     52  CB        26.9650   -7.6080   -9.0670 C.3   121  CYS121      0.0997
     53  SG        28.1370   -7.3590   -7.6910 S.3   121  CYS121     -0.0797
     54  N         27.6450  -10.5830   -9.5760 N.am  122  GLN122     -0.1977
     55  CA        28.5570  -11.6900   -9.3240 C.3   122  GLN122      0.1601
     56  C         29.6350  -11.2420   -8.3330 C.2   122  GLN122      0.2287
     57  O         30.1630  -10.1340   -8.4380 O.2   122  GLN122     -0.2864
     58  CB        29.2060  -12.1970  -10.6130 C.3   122  GLN122      0.0394
     59  CG        30.0580  -13.4400  -10.3780 C.3   122  GLN122      0.0908
     60  CD        30.6130  -14.0380  -11.6570 C.2   122  GLN122      0.2608
     61  OE1       30.3020  -13.5800  -12.7630 O.2   122  GLN122     -0.2717
     62  NE2       31.4500  -15.0680  -11.5120 N.am  122  GLN122     -0.0878
     63  N         26.3410  -14.2250   -5.8330 N.3   126  PHE126     -0.1241
     64  CA        26.5910  -15.5510   -6.3840 C.3   126  PHE126      0.1605
     65  C         27.9600  -15.5700   -7.0440 C.2   126  PHE126      0.2264
     66  O         28.5620  -14.5220   -7.2890 O.2   126  PHE126     -0.2867
     67  CB        25.5320  -15.9180   -7.4240 C.3   126  PHE126      0.0534
     68  CG        25.6420  -15.0960   -8.6630 C.ar  126  PHE126     -0.0203
     69  CD1       26.4140  -15.5290   -9.7320 C.ar  126  PHE126     -0.0042
     70  CD2       25.0400  -13.8500   -8.7370 C.ar  126  PHE126     -0.0042
     71  CE1       26.5500  -14.7500  -10.8650 C.ar  126  PHE126     -0.0003
     72  CE2       25.1740  -13.0670   -9.8730 C.ar  126  PHE126     -0.0003
     73  CZ        25.9290  -13.5140  -10.9320 C.ar  126  PHE126     -0.0000
     74  N         25.9120  -20.8990   -6.0710 N.3   131  PHE131     -0.1241
     75  CA        24.6150  -20.5010   -6.5930 C.3   131  PHE131      0.1605
     76  C         23.6060  -21.5990   -6.2830 C.2   131  PHE131      0.2264
     77  O         23.9730  -22.7270   -5.9060 O.2   131  PHE131     -0.2867
     78  CB        24.6860  -20.1830   -8.1000 C.3   131  PHE131      0.0534
     79  CG        25.1370  -21.3430   -8.9560 C.ar  131  PHE131     -0.0203
     80  CD1       24.2120  -22.2160   -9.5050 C.ar  131  PHE131     -0.0042
     81  CD2       26.4850  -21.5570   -9.2090 C.ar  131  PHE131     -0.0042
     82  CE1       24.6250  -23.2930  -10.2920 C.ar  131  PHE131     -0.0003
     83  CE2       26.9040  -22.6310  -10.0000 C.ar  131  PHE131     -0.0003
     84  CZ        25.9680  -23.4970  -10.5370 C.ar  131  PHE131     -0.0000
     85  N         14.7470  -18.2570  -10.1740 N.3   174  GLY174     -0.1225
     86  CA        15.8080  -17.7760  -11.0340 C.3   174  GLY174      0.1811
     87  C         16.6360  -16.6710  -10.4070 C.2   174  GLY174      0.2280
     88  O         17.7870  -16.4640  -10.7810 O.2   174  GLY174     -0.2866
     89  N         18.6140  -18.6060   -6.5970 N.3   178  PHE178     -0.1241
     90  CA        19.8840  -18.6380   -7.2910 C.3   178  PHE178      0.1605
     91  C         20.9790  -17.9630   -6.4710 C.2   178  PHE178      0.2264
     92  O         22.1410  -18.3830   -6.4940 O.2   178  PHE178     -0.2867
     93  CB        19.7700  -17.9730   -8.6610 C.3   178  PHE178      0.0534
     94  CG        21.0010  -18.1020   -9.4840 C.ar  178  PHE178     -0.0203
     95  CD1       21.2010  -19.2220  -10.2780 C.ar  178  PHE178     -0.0042
     96  CD2       21.9660  -17.1100   -9.4700 C.ar  178  PHE178     -0.0042
     97  CE1       22.3380  -19.3440  -11.0460 C.ar  178  PHE178     -0.0003
     98  CE2       23.1010  -17.2240  -10.2370 C.ar  178  PHE178     -0.0003
     99  CZ        23.2920  -18.3490  -11.0260 C.ar  178  PHE178     -0.0000
@<TRIPOS>BOND
     1     1     2    1
     2     5     2    1
     3     5     6    1
     4     2     3    1
     5    13     3   am
     6    13    14    1
     7     3     4    2
     8     6     7   ar
     9     6     8   ar
    10     7     9   ar
    11    14    15    1
    12     8    10   ar
    13    15    16    2
    14     9    11   ar
    15    39    37   ar
    16    10    11   ar
    17    11    12    1
    18    37    38   ar
    19    37    36    1
    20    17    18    1
    21    36    33    1
    22    23    21    1
    23    22    21    1
    24    61    60    2
    25    18    21    1
    26    18    19    1
    27    33    34    1
    28    33    32    1
    29    35    34    2
    30    60    62   am
    31    60    59    1
    32    19    20    2
    33    97    99   ar
    34    97    95   ar
    35    86    87    1
    36    86    85    1
    37    99    98   ar
    38    73    71   ar
    39    73    72   ar
    40    32    26   am
    41    71    69   ar
    42    88    87    2
    43    58    59    1
    44    58    55    1
    45    84    82   ar
    46    84    83   ar
    47    82    80   ar
    48    95    94   ar
    49    98    96   ar
    50    83    81   ar
    51    72    70   ar
    52    26    27    2
    53    26    25    1
    54    69    68   ar
    55    54    55    1
    56    54    50   am
    57    80    79   ar
    58    94    96   ar
    59    94    93    1
    60    55    56    1
    61    81    79   ar
    62    28    25    1
    63    28    29    1
    64    52    49    1
    65    52    53    1
    66    79    78    1
    67    49    50    1
    68    49    48    1
    69    43    42    2
    70    25    24    1
    71    70    68   ar
    72    68    67    1
    73    93    90    1
    74    50    51    2
    75    30    29    1
    76    30    31    1
    77    57    56    2
    78    78    75    1
    79    42    48   am
    80    42    41    1
    81    67    64    1
    82    90    89    1
    83    90    91    1
    84    66    65    2
    85    40    41    1
    86    44    41    1
    87    44    45    1
    88    65    64    1
    89    75    76    1
    90    75    74    1
    91    46    45    1
    92    92    91    2
    93    64    63    1
    94    76    77    2
    95    45    47    1
