@<TRIPOS>MOLECULE
tmp/4zvuD00.pdb
 108 111 0 0 0
SMALL
GASTEIGER

@<TRIPOS>ATOM
      1  N        -72.0010   19.5880  -26.2800 N.3    20  TYR20      -0.1227
      2  CA       -72.8740   19.6810  -25.1170 C.3    20  TYR20       0.1736
      3  C        -72.2500   18.9860  -23.9170 C.2    20  TYR20       0.2596
      4  O        -71.2320   18.3050  -24.0340 O.2    20  TYR20      -0.2718
      5  CB       -74.2460   19.0550  -25.3920 C.3    20  TYR20       0.0548
      6  CG       -75.1980   19.8760  -26.2330 C.ar   20  TYR20      -0.0200
      7  CD1      -75.5080   21.1860  -25.8910 C.ar   20  TYR20      -0.0009
      8  CD2      -75.8320   19.3200  -27.3380 C.ar   20  TYR20      -0.0009
      9  CE1      -76.3920   21.9340  -26.6490 C.ar   20  TYR20       0.0417
     10  CE2      -76.7210   20.0570  -28.0990 C.ar   20  TYR20       0.0417
     11  CZ       -76.9990   21.3630  -27.7490 C.ar   20  TYR20       0.1957
     12  OH       -77.8820   22.1000  -28.5030 O.3    20  TYR20      -0.2866
     13  N        -72.8740   19.1720  -22.7600 N.am   21  SER21      -0.1938
     14  CA       -72.4920   18.4670  -21.5470 C.3    21  SER21       0.2055
     15  C        -73.7750   17.9860  -20.8870 C.2    21  SER21       0.2643
     16  O        -74.7810   18.6940  -20.8980 O.2    21  SER21      -0.2714
     17  CB       -71.6880   19.3680  -20.6070 C.3    21  SER21       0.2130
     18  OG       -71.2680   18.6580  -19.4550 O.3    21  SER21      -0.2179
     19  N        -73.7480   16.7900  -20.3100 N.am   22  TRP22      -0.1959
     20  CA       -74.9850   16.1570  -19.8720 C.3    22  TRP22       0.1771
     21  C        -75.1900   16.2500  -18.3650 C.2    22  TRP22       0.2620
     22  O        -74.2340   16.2550  -17.5890 O.2    22  TRP22      -0.2715
     23  CB       -75.0180   14.6930  -20.3170 C.3    22  TRP22       0.0590
     24  CG       -75.1850   14.5290  -21.8000 C.ar   22  TRP22       0.0006
     25  CD1      -74.1940   14.4010  -22.7280 C.ar   22  TRP22       0.0946
     26  CD2      -76.4220   14.4950  -22.5260 C.ar   22  TRP22       0.0152
     27  NE1      -74.7360   14.2800  -23.9860 N.ar   22  TRP22      -0.2442
     28  CE2      -76.1000   14.3350  -23.8880 C.ar   22  TRP22       0.0810
     29  CE3      -77.7660   14.5790  -22.1540 C.ar   22  TRP22       0.0012
     30  CZ2      -77.0770   14.2570  -24.8800 C.ar   22  TRP22       0.0191
     31  CZ3      -78.7340   14.5020  -23.1410 C.ar   22  TRP22       0.0001
     32  CH2      -78.3840   14.3430  -24.4870 C.ar   22  TRP22       0.0015
     33  N        -76.4570   16.3220  -17.9700 N.am   23  ARG23      -0.1963
     34  CA       -76.8340   16.5160  -16.5760 C.3    23  ARG23       0.1729
     35  C        -78.1170   15.7690  -16.2280 C.2    23  ARG23       0.2617
     36  O        -79.1670   16.0080  -16.8230 O.2    23  ARG23      -0.2715
     37  CB       -77.0070   18.0060  -16.2820 C.3    23  ARG23       0.0348
     38  CG       -77.4750   18.3130  -14.8700 C.3    23  ARG23       0.0492
     39  CD       -77.4540   19.8090  -14.6020 C.3    23  ARG23       0.2205
     40  NE       -77.8000   20.5910  -15.7880 N.pl3  23  ARG23      -0.0865
     41  CZ       -79.0300   20.7200  -16.2760 C.cat  23  ARG23       0.5346
     42  NH1      -80.0520   20.1190  -15.6810 N.pl3  23  ARG23       0.1354
     43  NH2      -79.2370   21.4520  -17.3620 N.pl3  23  ARG23       0.1354
     44  N        -78.0260   14.8620  -15.2630 N.am   24  SER24      -0.1936
     45  CA       -79.2090   14.1930  -14.7390 C.3    24  SER24       0.2040
     46  C        -79.8380   14.9970  -13.6070 C.2    24  SER24       0.2485
     47  O        -79.1880   15.2710  -12.6010 O.2    24  SER24      -0.2729
     48  CB       -78.8580   12.7860  -14.2510 C.3    24  SER24       0.2129
     49  OG       -79.8250   12.3100  -13.3320 O.3    24  SER24      -0.2179
     50  N        -81.1140   15.3790  -13.7710 N.am   25  PRO25      -0.2726
     51  CA       -81.8640   16.1000  -12.7370 C.3    25  PRO25       0.1402
     52  C        -81.9220   15.3180  -11.4280 C.2    25  PRO25       0.2269
     53  O        -81.9580   15.9120  -10.3510 O.2    25  PRO25      -0.2865
     54  CB       -83.2590   16.2490  -13.3520 C.3    25  PRO25       0.0296
     55  CG       -83.0340   16.1810  -14.8170 C.3    25  PRO25       0.0237
     56  CD       -81.8900   15.2260  -15.0120 C.3    25  PRO25       0.0939
     57  N        -74.9120   16.1630  -12.7640 N.3    29  SER29      -0.1202
     58  CA       -74.1690   16.0230  -14.0120 C.3    29  SER29       0.2020
     59  C        -73.1880   14.8540  -13.9710 C.2    29  SER29       0.2618
     60  O        -72.6550   14.5130  -12.9150 O.2    29  SER29      -0.2717
     61  CB       -73.4200   17.3150  -14.3350 C.3    29  SER29       0.2103
     62  OG       -72.2370   17.4210  -13.5650 O.3    29  SER29      -0.2182
     63  N        -72.9620   14.2490  -15.1340 N.am   30  TRP30      -0.1975
     64  CA       -72.0680   13.1020  -15.2740 C.3    30  TRP30       0.1640
     65  C        -70.6660   13.4040  -14.7550 C.2    30  TRP30       0.2290
     66  O        -70.1110   12.6550  -13.9500 O.2    30  TRP30      -0.2864
     67  CB       -71.9850   12.6690  -16.7400 C.3    30  TRP30       0.0576
     68  CG       -73.2860   12.2080  -17.3260 C.ar   30  TRP30       0.0006
     69  CD1      -74.4760   12.0570  -16.6740 C.ar   30  TRP30       0.0946
     70  CD2      -73.5280   11.8430  -18.6910 C.ar   30  TRP30       0.0152
     71  NE1      -75.4410   11.6180  -17.5470 N.ar   30  TRP30      -0.2442
     72  CE2      -74.8850   11.4790  -18.7920 C.ar   30  TRP30       0.0810
     73  CE3      -72.7280   11.7890  -19.8370 C.ar   30  TRP30       0.0012
     74  CZ2      -75.4600   11.0670  -19.9930 C.ar   30  TRP30       0.0191
     75  CZ3      -73.3000   11.3780  -21.0280 C.ar   30  TRP30       0.0001
     76  CH2      -74.6530   11.0230  -21.0960 C.ar   30  TRP30       0.0015
     77  N        -76.7390    8.6570  -22.7360 N.3    65  SER65      -0.1202
     78  CA       -78.0130    9.3630  -22.6380 C.3    65  SER65       0.2020
     79  C        -79.2130    8.5420  -23.1130 C.2    65  SER65       0.2619
     80  O        -79.0780    7.6280  -23.9200 O.2    65  SER65      -0.2717
     81  CB       -77.9480   10.6770  -23.4200 C.3    65  SER65       0.2103
     82  OG       -78.0650   10.4500  -24.8110 O.3    65  SER65      -0.2182
     83  N        -80.3830    8.8780  -22.5770 N.am   66  GLN66      -0.1965
     84  CA       -81.6590    8.3860  -23.0870 C.3    66  GLN66       0.1733
     85  C        -82.6460    9.5210  -23.2590 C.2    66  GLN66       0.2617
     86  O        -82.9340   10.2380  -22.3060 O.2    66  GLN66      -0.2715
     87  CB       -82.2690    7.3420  -22.1400 C.3    66  GLN66       0.0408
     88  CG       -81.2900    6.4230  -21.4150 C.3    66  GLN66       0.0908
     89  CD       -81.9800    5.2110  -20.7970 C.2    66  GLN66       0.2608
     90  OE1      -83.0650    4.8170  -21.2230 O.2    66  GLN66      -0.2717
     91  NE2      -81.3370    4.6030  -19.8040 N.am   66  GLN66      -0.0878
     92  N        -83.1550    9.6830  -24.4750 N.am   67  SER67      -0.1950
     93  CA       -84.2180   10.6440  -24.7340 C.3    67  SER67       0.1924
     94  C        -85.2910   10.0010  -25.6070 C.2    67  SER67       0.2314
     95  O        -85.0240    9.0350  -26.3220 O.2    67  SER67      -0.2863
     96  CB       -83.6630   11.9040  -25.4000 C.3    67  SER67       0.2116
     97  OG       -84.6550   12.9080  -25.5110 O.3    67  SER67      -0.2180
     98  N        -81.3440   13.0760  -29.5110 N.3    72  PHE72      -0.1241
     99  CA       -80.5790   13.1530  -28.2700 C.3    72  PHE72       0.1605
    100  C        -80.4060   11.7840  -27.6190 C.2    72  PHE72       0.2264
    101  O        -79.9140   11.6830  -26.4960 O.2    72  PHE72      -0.2867
    102  CB       -81.2650   14.0990  -27.2790 C.3    72  PHE72       0.0534
    103  CG       -81.2000   15.5480  -27.6700 C.ar   72  PHE72      -0.0203
    104  CD1      -79.9870   16.2120  -27.7330 C.ar   72  PHE72      -0.0042
    105  CD2      -82.3590   16.2510  -27.9590 C.ar   72  PHE72      -0.0042
    106  CE1      -79.9280   17.5470  -28.0880 C.ar   72  PHE72      -0.0003
    107  CE2      -82.3070   17.5860  -28.3140 C.ar   72  PHE72      -0.0003
    108  CZ       -81.0900   18.2340  -28.3790 C.ar   72  PHE72      -0.0000
@<TRIPOS>BOND
     1    98    99    1
     2    12    11    1
     3   108   107   ar
     4   108   106   ar
     5   107   105   ar
     6    99   100    1
     7    99   102    1
     8    10    11   ar
     9    10     8   ar
    10   106   104   ar
    11   105   103   ar
    12    11     9   ar
    13   104   103   ar
    14   103   102    1
    15   100   101    2
    16     8     6   ar
    17     9     7   ar
    18    95    94    2
    19     1     2    1
    20     6     7   ar
    21     6     5    1
    22    94    93    1
    23    97    96    1
    24    96    93    1
    25     5     2    1
    26     2     3    1
    27    30    32   ar
    28    30    28   ar
    29    82    81    1
    30    93    92    1
    31    32    31   ar
    32    92    85   am
    33     4     3    2
    34    27    28   ar
    35    27    25   ar
    36    80    79    2
    37     3    13   am
    38    28    26   ar
    39    81    78    1
    40    85    84    1
    41    85    86    2
    42    31    29   ar
    43    79    78    1
    44    79    83   am
    45    84    83    1
    46    84    87    1
    47    13    14    1
    48    77    78    1
    49    25    24   ar
    50    26    29   ar
    51    26    24   ar
    52    87    88    1
    53    24    23    1
    54    14    15    1
    55    14    17    1
    56    88    89    1
    57    90    89    2
    58    76    75   ar
    59    76    74   ar
    60    75    73   ar
    61    16    15    2
    62    15    19   am
    63    89    91   am
    64    17    18    1
    65    23    20    1
    66    19    20    1
    67    74    72   ar
    68    20    21    1
    69    73    70   ar
    70    72    70   ar
    71    72    71   ar
    72    70    68   ar
    73    21    33   am
    74    21    22    2
    75    33    34    1
    76    71    69   ar
    77    43    41    1
    78    68    67    1
    79    68    69   ar
    80    36    35    2
    81    67    64    1
    82    34    37    1
    83    34    35    1
    84    37    38    1
    85    41    40    2
    86    41    42    1
    87    35    44   am
    88    40    39    1
    89    64    63    1
    90    64    65    1
    91    44    45    1
    92    63    59   am
    93    56    55    1
    94    56    50    1
    95    38    39    1
    96    55    54    1
    97    65    66    2
    98    45    48    1
    99    45    46    1
   100    61    58    1
   101    61    62    1
   102    48    49    1
   103    58    59    1
   104    58    57    1
   105    59    60    2
   106    50    46   am
   107    50    51    1
   108    46    47    2
   109    54    51    1
   110    51    52    1
   111    52    53    2
