@<TRIPOS>MOLECULE
tmp/4zvuC00.pdb
 74 71 0 0 0
SMALL
GASTEIGER

@<TRIPOS>ATOM
      1  N        -84.0240   26.1590  -16.1770 N.3    30  VAL30      -0.1231
      2  CA       -83.5510   25.8010  -14.8450 C.3    30  VAL30       0.1692
      3  C        -82.6710   24.5530  -14.9160 C.2    30  VAL30       0.2592
      4  O        -83.0380   23.5610  -15.5460 O.2    30  VAL30      -0.2718
      5  CB       -84.7300   25.5600  -13.8800 C.3    30  VAL30       0.0266
      6  CG1      -84.2620   24.8560  -12.6180 C.3    30  VAL30       0.0020
      7  CG2      -85.4050   26.8800  -13.5370 C.3    30  VAL30       0.0020
      8  N        -81.5110   24.6060  -14.2680 N.am   31  ARG31      -0.1966
      9  CA       -80.5600   23.5000  -14.3070 C.3    31  ARG31       0.1729
     10  C        -80.7650   22.5300  -13.1470 C.2    31  ARG31       0.2616
     11  O        -79.9500   22.4720  -12.2280 O.2    31  ARG31      -0.2715
     12  CB       -79.1260   24.0350  -14.2900 C.3    31  ARG31       0.0348
     13  CG       -78.7480   24.8150  -15.5370 C.3    31  ARG31       0.0492
     14  CD       -77.2770   25.2180  -15.5570 C.3    31  ARG31       0.2205
     15  NE       -76.3660   24.0880  -15.3890 N.pl3  31  ARG31      -0.0865
     16  CZ       -75.7510   23.7820  -14.2510 C.cat  31  ARG31       0.5346
     17  NH1      -75.9420   24.5270  -13.1720 N.pl3  31  ARG31       0.1354
     18  NH2      -74.9390   22.7350  -14.1950 N.pl3  31  ARG31       0.1354
     19  N        -81.8580   21.7740  -13.1920 N.am   32  ASN32      -0.1972
     20  CA       -82.1500   20.7880  -12.1560 C.3    32  ASN32       0.1688
     21  C        -81.0490   19.7420  -12.0190 C.2    32  ASN32       0.2292
     22  O        -80.5190   19.2510  -13.0160 O.2    32  ASN32      -0.2864
     23  CB       -83.4880   20.1000  -12.4370 C.3    32  ASN32       0.1181
     24  CG       -84.6750   21.0010  -12.1590 C.2    32  ASN32       0.2629
     25  OD1      -84.7000   21.7210  -11.1610 O.2    32  ASN32      -0.2716
     26  ND2      -85.6680   20.9650  -13.0400 N.am   32  ASN32      -0.0877
     27  N        -72.8800   25.7990  -14.4780 N.3    87  SER87      -0.1202
     28  CA       -73.8240   26.6500  -15.1930 C.3    87  SER87       0.2020
     29  C        -74.0810   26.1790  -16.6150 C.2    87  SER87       0.2619
     30  O        -73.5590   25.1530  -17.0520 O.2    87  SER87      -0.2717
     31  CB       -73.3160   28.0940  -15.2270 C.3    87  SER87       0.2103
     32  OG       -74.3610   28.9940  -15.5470 O.3    87  SER87      -0.2182
     33  N        -74.9030   26.9420  -17.3270 N.am   88  HIS88      -0.1961
     34  CA       -74.9880   26.8370  -18.7740 C.3    88  HIS88       0.1787
     35  C        -73.7410   27.4560  -19.3810 C.2    88  HIS88       0.2620
     36  O        -73.0520   28.2470  -18.7350 O.2    88  HIS88      -0.2715
     37  CB       -76.2360   27.5390  -19.3130 C.3    88  HIS88       0.0785
     38  CG       -77.5100   26.7990  -19.0600 C.ar   88  HIS88       0.0821
     39  ND1      -77.7720   25.5590  -19.6050 N.ar   88  HIS88      -0.2267
     40  CD2      -78.6040   27.1290  -18.3350 C.ar   88  HIS88       0.1154
     41  CE1      -78.9680   25.1560  -19.2170 C.ar   88  HIS88       0.1986
     42  NE2      -79.4960   26.0910  -18.4480 N.ar   88  HIS88      -0.2212
     43  N        -73.4440   27.0940  -20.6210 N.am   89  GLY89      -0.1954
     44  CA       -72.3380   27.7130  -21.3150 C.3    89  GLY89       0.1869
     45  C        -72.3450   27.4470  -22.8010 C.2    89  GLY89       0.2309
     46  O        -73.0890   26.6030  -23.3010 O.2    89  GLY89      -0.2863
     47  N        -68.2890   22.6590  -15.1780 N.3   128  GLN128     -0.1231
     48  CA       -69.4370   21.9010  -15.6550 C.3   128  GLN128      0.1698
     49  C        -70.3770   22.8290  -16.4160 C.2   128  GLN128      0.2592
     50  O        -71.1460   23.5830  -15.8170 O.2   128  GLN128     -0.2718
     51  CB       -70.1680   21.2210  -14.4960 C.3   128  GLN128      0.0381
     52  CG       -71.5270   20.6320  -14.8620 C.3   128  GLN128      0.0905
     53  CD       -71.4580   19.6440  -16.0110 C.2   128  GLN128      0.2608
     54  OE1      -70.6810   18.6900  -15.9790 O.2   128  GLN128     -0.2717
     55  NE2      -72.2750   19.8680  -17.0330 N.am  128  GLN128     -0.0878
     56  N        -70.3000   22.7650  -17.7410 N.am  129  ALA129     -0.1966
     57  CA       -71.0890   23.6190  -18.6200 C.3   129  ALA129      0.1728
     58  C        -70.9440   23.1430  -20.0560 C.2   129  ALA129      0.2616
     59  O        -69.9490   22.5070  -20.4070 O.2   129  ALA129     -0.2715
     60  CB       -70.6520   25.0740  -18.4960 C.3   129  ALA129      0.0334
     61  N        -71.9290   23.4580  -20.8900 N.am  130  CYS130     -0.1968
     62  CA       -71.8460   23.1120  -22.3020 C.3   130  CYS130      0.1712
     63  C        -70.8480   24.0290  -22.9940 C.2   130  CYS130      0.2296
     64  O        -70.5230   25.1020  -22.4860 O.2   130  CYS130     -0.2864
     65  CB       -73.2190   23.1990  -22.9710 C.3   130  CYS130      0.0983
     66  SG       -74.4570   22.0870  -22.2630 S.3   130  CYS130     -0.0798
     67  N        -73.0980   16.8670  -30.6570 N.3   135  LEU135     -0.1245
     68  CA       -73.3210   15.6660  -29.8630 C.3   135  LEU135      0.1561
     69  C        -72.3040   14.5890  -30.2150 C.2   135  LEU135      0.2260
     70  O        -71.7570   14.5740  -31.3180 O.2   135  LEU135     -0.2867
     71  CB       -74.7420   15.1390  -30.0720 C.3   135  LEU135      0.0270
     72  CG       -75.8660   15.9460  -29.4200 C.3   135  LEU135      0.0019
     73  CD1      -77.2000   15.6270  -30.0700 C.3   135  LEU135      0.0001
     74  CD2      -75.9180   15.6760  -27.9250 C.3   135  LEU135      0.0001
@<TRIPOS>BOND
     1    70    69    2
     2    67    68    1
     3    69    68    1
     4    71    68    1
     5    71    72    1
     6    73    72    1
     7    72    74    1
     8    46    45    2
     9    63    64    2
    10    63    62    1
    11    65    62    1
    12    65    66    1
    13    45    44    1
    14    62    61    1
    15    44    43    1
    16    61    58   am
    17    43    35   am
    18    59    58    2
    19    58    57    1
    20    39    41   ar
    21    39    38   ar
    22    35    34    1
    23    35    36    2
    24    37    38    1
    25    37    34    1
    26    41    42   ar
    27    38    40   ar
    28    34    33    1
    29    57    60    1
    30    57    56    1
    31    42    40   ar
    32    56    49   am
    33    33    29   am
    34    30    29    2
    35    55    53   am
    36    29    28    1
    37    49    50    2
    38    49    48    1
    39     1     2    1
    40    53    54    2
    41    53    52    1
    42    48    47    1
    43    48    51    1
    44    14    13    1
    45    14    15    1
    46    32    31    1
    47     4     3    2
    48    13    12    1
    49    15    16    2
    50    31    28    1
    51    28    27    1
    52     3     2    1
    53     3     8   am
    54    52    51    1
    55     2     5    1
    56     9    12    1
    57     9     8    1
    58     9    10    1
    59    16    18    1
    60    16    17    1
    61     5     7    1
    62     5     6    1
    63    19    10   am
    64    19    20    1
    65    10    11    2
    66    26    24   am
    67    22    21    2
    68    23    24    1
    69    23    20    1
    70    24    25    2
    71    20    21    1
