@<TRIPOS>MOLECULE
tmp/4zvvB01.pdb
 142 135 0 0 0
SMALL
GASTEIGER

@<TRIPOS>ATOM
      1  N         40.6440   -5.1900   20.4330 N.3    29  ALA29      -0.1231
      2  CA        39.4940   -4.7000   19.6670 C.3    29  ALA29       0.1694
      3  C         38.2520   -5.5810   19.7970 C.2    29  ALA29       0.2591
      4  O         37.1480   -5.0700   20.0050 O.2    29  ALA29      -0.2718
      5  CB        39.8720   -4.5210   18.2050 C.3    29  ALA29       0.0304
      6  N         38.4380   -6.8970   19.6810 N.am   30  VAL30      -0.1980
      7  CA        37.3500   -7.8580   19.8710 C.3    30  VAL30       0.1595
      8  C         36.8800   -7.8490   21.3230 C.2    30  VAL30       0.2287
      9  O         35.6840   -7.7180   21.5910 O.2    30  VAL30      -0.2864
     10  CB        37.7630   -9.2970   19.4630 C.3    30  VAL30       0.0276
     11  CG1       36.6450  -10.2940   19.7690 C.3    30  VAL30       0.0022
     12  CG2       38.1250   -9.3540   17.9920 C.3    30  VAL30       0.0022
     13  N         49.3220  -12.9320   17.5850 N.3    98  ARG98      -0.1245
     14  CA        49.1630  -12.6310   16.1630 C.3    98  ARG98       0.1563
     15  C         50.2760  -13.2960   15.3640 C.2    98  ARG98       0.2260
     16  O         51.4000  -13.4460   15.8550 O.2    98  ARG98      -0.2867
     17  CB        49.1180  -11.1190   15.8950 C.3    98  ARG98       0.0307
     18  CG        50.1440  -10.2940   16.6730 C.3    98  ARG98       0.0489
     19  CD        50.2360   -8.8490   16.1870 C.3    98  ARG98       0.2205
     20  NE        48.9360   -8.1810   16.0720 N.pl3  98  ARG98      -0.0865
     21  CZ        48.1750   -7.7790   17.1020 C.cat  98  ARG98       0.5346
     22  NH1       48.5480   -7.9870   18.3630 N.pl3  98  ARG98       0.1354
     23  NH2       47.0200   -7.1740   16.8650 N.pl3  98  ARG98       0.1354
     24  N         41.0130  -17.2940   17.5910 N.3   137  ASN137     -0.1240
     25  CA        41.2840  -18.1830   16.4540 C.3   137  ASN137      0.1653
     26  C         42.5980  -18.9610   16.5470 C.2   137  ASN137      0.2266
     27  O         43.5840  -18.4390   17.0690 O.2   137  ASN137     -0.2867
     28  CB        41.2400  -17.4100   15.1360 C.3   137  ASN137      0.1155
     29  CG        39.8730  -17.4410   14.4890 C.2   137  ASN137      0.2627
     30  OD1       39.2520  -18.4980   14.3610 O.2   137  ASN137     -0.2716
     31  ND2       39.4010  -16.2810   14.0640 N.am  137  ASN137     -0.0877
     32  N         29.2930  -15.6480   13.6330 N.3   164  LEU164     -0.1231
     33  CA        29.5830  -14.4720   12.8120 C.3   164  LEU164      0.1693
     34  C         29.3830  -14.7670   11.3250 C.2   164  LEU164      0.2592
     35  O         28.9010  -13.9070   10.5790 O.2   164  LEU164     -0.2718
     36  CB        31.0010  -13.9500   13.0770 C.3   164  LEU164      0.0284
     37  CG        31.5150  -12.7710   12.2290 C.3   164  LEU164      0.0019
     38  CD1       30.6460  -11.5200   12.3770 C.3   164  LEU164      0.0001
     39  CD2       32.9610  -12.4640   12.5700 C.3   164  LEU164      0.0001
     40  N         29.7530  -15.9810   10.9110 N.am  165  ASP165     -0.1974
     41  CA        29.5390  -16.4450    9.5370 C.3   165  ASP165      0.1709
     42  C         28.0610  -16.3140    9.1770 C.2   165  ASP165      0.2293
     43  O         27.7140  -15.6890    8.1730 O.2   165  ASP165     -0.2864
     44  CB        29.9810  -17.9090    9.3680 C.3   165  ASP165      0.1436
     45  CG        31.3680  -18.1800    9.9270 C.2   165  ASP165      0.3671
     46  OD1       31.5710  -17.9880   11.1470 O.co2 165  ASP165     -0.2456
     47  OD2       32.2530  -18.6020    9.1500 O.co2 165  ASP165     -0.2456
     48  N         26.9010  -12.5560    9.0970 N.3   168  ARG168     -0.1245
     49  CA        27.3040  -11.9450    7.8260 C.3   168  ARG168      0.1563
     50  C         26.5030  -12.4760    6.6410 C.2   168  ARG168      0.2260
     51  O         26.0840  -11.7050    5.7740 O.2   168  ARG168     -0.2867
     52  CB        28.8000  -12.1570    7.5750 C.3   168  ARG168      0.0307
     53  CG        29.7040  -11.1860    8.3160 C.3   168  ARG168      0.0489
     54  CD        31.1640  -11.5910    8.2040 C.3   168  ARG168      0.2205
     55  NE        32.0470  -10.6240    8.8560 N.pl3 168  ARG168     -0.0865
     56  CZ        33.2920  -10.8800    9.2550 C.cat 168  ARG168      0.5346
     57  NH1       34.0070   -9.9280    9.8360 N.pl3 168  ARG168      0.1354
     58  NH2       33.8210  -12.0860    9.0860 N.pl3 168  ARG168      0.1354
     59  N         34.6570  -23.0100   11.3890 N.3   192  HIS192     -0.1226
     60  CA        34.6010  -21.5560   11.2230 C.3   192  HIS192      0.1752
     61  C         35.6650  -21.0640   10.2480 C.2   192  HIS192      0.2597
     62  O         36.8190  -21.4960   10.3060 O.2   192  HIS192     -0.2718
     63  CB        34.7540  -20.8320   12.5630 C.3   192  HIS192      0.0759
     64  CG        35.0350  -19.3650   12.4250 C.ar  192  HIS192      0.0818
     65  ND1       34.0390  -18.4320   12.2380 N.ar  192  HIS192     -0.2268
     66  CD2       36.2010  -18.6760   12.4240 C.ar  192  HIS192      0.1154
     67  CE1       34.5780  -17.2300   12.1390 C.ar  192  HIS192      0.1986
     68  NE2       35.8890  -17.3500   12.2450 N.ar  192  HIS192     -0.2212
     69  N         35.2680  -20.1560    9.3590 N.am  193  GLY193     -0.1942
     70  CA        36.2010  -19.5290    8.4280 C.3   193  GLY193      0.2014
     71  C         36.0450  -19.9790    6.9870 C.2   193  GLY193      0.2638
     72  O         34.9240  -20.1810    6.5030 O.2   193  GLY193     -0.2714
     73  N         37.1860  -20.1410    6.3120 N.am  194  ASP194     -0.1971
     74  CA        37.2390  -20.4710    4.8830 C.3   194  ASP194      0.1709
     75  C         36.4900  -21.7480    4.5020 C.2   194  ASP194      0.2293
     76  O         36.0090  -21.8710    3.3760 O.2   194  ASP194     -0.2864
     77  CB        38.6970  -20.5870    4.4090 C.3   194  ASP194      0.1436
     78  CG        39.5020  -19.3160    4.6420 C.2   194  ASP194      0.3671
     79  OD1       38.9700  -18.2070    4.4150 O.co2 194  ASP194     -0.2456
     80  OD2       40.6810  -19.4290    5.0410 O.co2 194  ASP194     -0.2456
     81  N         30.7980  -13.7310    1.9610 N.3   233  VAL233     -0.1231
     82  CA        31.0050  -13.8020    3.4140 C.3   233  VAL233      0.1692
     83  C         32.4870  -13.9970    3.7280 C.2   233  VAL233      0.2591
     84  O         33.0530  -13.2740    4.5500 O.2   233  VAL233     -0.2718
     85  CB        30.1510  -14.9240    4.0740 C.3   233  VAL233      0.0266
     86  CG1       30.6800  -15.2850    5.4720 C.3   233  VAL233      0.0020
     87  CG2       28.6940  -14.5060    4.1540 C.3   233  VAL233      0.0020
     88  N         33.1050  -14.9670    3.0570 N.am  234  VAL234     -0.1980
     89  CA        34.5400  -15.2120    3.1840 C.3   234  VAL234      0.1595
     90  C         35.3400  -13.9820    2.7470 C.2   234  VAL234      0.2287
     91  O         36.2140  -13.5170    3.4860 O.2   234  VAL234     -0.2864
     92  CB        34.9770  -16.4770    2.3950 C.3   234  VAL234      0.0276
     93  CG1       36.5020  -16.5920    2.3430 C.3   234  VAL234      0.0022
     94  CG2       34.3680  -17.7350    3.0200 C.3   234  VAL234      0.0022
     95  N         35.4090  -10.9800    5.1810 N.3   237  ALA237     -0.1231
     96  CA        36.2870  -11.1850    6.3290 C.3   237  ALA237      0.1694
     97  C         37.7070  -10.7160    6.0360 C.2   237  ALA237      0.2592
     98  O         38.3300  -10.0540    6.8660 O.2   237  ALA237     -0.2718
     99  CB        36.2830  -12.6370    6.7450 C.3   237  ALA237      0.0304
    100  N         38.2100  -11.0590    4.8510 N.am  238  TYR238     -0.1976
    101  CA        39.5190  -10.5880    4.4070 C.3   238  TYR238      0.1639
    102  C         39.4910   -9.1000    4.0720 C.2   238  TYR238      0.2290
    103  O         40.3990   -8.3640    4.4610 O.2   238  TYR238     -0.2864
    104  CB        40.0220  -11.4100    3.2170 C.3   238  TYR238      0.0560
    105  CG        40.3780  -12.8310    3.5950 C.ar  238  TYR238     -0.0198
    106  CD1       41.6530  -13.1480    4.0730 C.ar  238  TYR238     -0.0009
    107  CD2       39.4350  -13.8550    3.4930 C.ar  238  TYR238     -0.0009
    108  CE1       41.9840  -14.4540    4.4330 C.ar  238  TYR238      0.0417
    109  CE2       39.7540  -15.1610    3.8500 C.ar  238  TYR238      0.0417
    110  CZ        41.0290  -15.4540    4.3180 C.ar  238  TYR238      0.1957
    111  OH        41.3480  -16.7430    4.6720 O.3   238  TYR238     -0.2866
    112  N         39.7040   -6.6660    7.0270 N.3   241  ILE241     -0.1245
    113  CA        41.0880   -6.6440    7.5210 C.3   241  ILE241      0.1561
    114  C         41.9980   -5.7750    6.6410 C.2   241  ILE241      0.2260
    115  O         42.8400   -5.0400    7.1560 O.2   241  ILE241     -0.2867
    116  CB        41.6860   -8.0780    7.6650 C.3   241  ILE241      0.0252
    117  CG1       40.7800   -8.9860    8.5150 C.3   241  ILE241      0.0019
    118  CG2       43.1180   -8.0360    8.2230 C.3   241  ILE241      0.0019
    119  CD1       40.4130   -8.4550    9.9010 C.3   241  ILE241      0.0001
    120  N         42.0540   -3.2680    9.2270 N.3   245  GLY245     -0.1210
    121  CA        43.1090   -4.0250    9.9030 C.3   245  GLY245      0.1956
    122  C         42.6400   -5.0170   10.9510 C.2   245  GLY245      0.2612
    123  O         43.4350   -5.8280   11.4450 O.2   245  GLY245     -0.2717
    124  N         41.3530   -4.9540   11.2950 N.am  246  TYR246     -0.1962
    125  CA        40.7620   -5.8150   12.3210 C.3   246  TYR246      0.1771
    126  C         39.2340   -5.8160   12.2320 C.2   246  TYR246      0.2620
    127  O         38.6440   -4.9270   11.6170 O.2   246  TYR246     -0.2715
    128  CB        41.2110   -5.3740   13.7220 C.3   246  TYR246      0.0574
    129  CG        40.7840   -3.9710   14.1030 C.ar  246  TYR246     -0.0198
    130  CD1       41.5660   -2.8670   13.7660 C.ar  246  TYR246     -0.0009
    131  CD2       39.5970   -3.7490   14.8030 C.ar  246  TYR246     -0.0009
    132  CE1       41.1770   -1.5790   14.1130 C.ar  246  TYR246      0.0417
    133  CE2       39.2010   -2.4660   15.1600 C.ar  246  TYR246      0.0417
    134  CZ        39.9940   -1.3870   14.8090 C.ar  246  TYR246      0.1957
    135  OH        39.6090   -0.1170   15.1540 O.3   246  TYR246     -0.2866
    136  N         38.6070   -6.8210   12.8430 N.am  247  THR247     -0.1951
    137  CA        37.1520   -6.8690   12.9930 C.3   247  THR247      0.1897
    138  C         36.8030   -6.6610   14.4620 C.2   247  THR247      0.2313
    139  O         37.4560   -7.2250   15.3460 O.2   247  THR247     -0.2863
    140  CB        36.5660   -8.2230   12.5160 C.3   247  THR247      0.1794
    141  OG1       36.9690   -8.4740   11.1590 O.3   247  THR247     -0.2208
    142  CG2       35.0380   -8.2180   12.5850 C.3   247  THR247      0.0378
@<TRIPOS>BOND
     1    81    82    1
     2    93    92    1
     3    92    94    1
     4    92    89    1
     5    90    89    1
     6    90    91    2
     7    88    89    1
     8    88    83   am
     9   104   105    1
    10   104   101    1
    11    76    75    2
    12    82    83    1
    13    82    85    1
    14   107   105   ar
    15   107   109   ar
    16   105   106   ar
    17    83    84    2
    18   109   110   ar
    19   102   101    1
    20   102   103    2
    21   106   108   ar
    22    85    87    1
    23    85    86    1
    24   110   108   ar
    25   110   111    1
    26   101   100    1
    27    77    78    1
    28    77    74    1
    29    79    78   ar
    30    75    74    1
    31    78    80   ar
    32   100    97   am
    33    74    73    1
    34    95    96    1
    35    51    50    2
    36    97    96    1
    37    97    98    2
    38    73    71   am
    39    96    99    1
    40    72    71    2
    41   114   115    2
    42   114   113    1
    43    50    49    1
    44    71    70    1
    45   112   113    1
    46   113   116    1
    47    52    49    1
    48    52    53    1
    49   116   118    1
    50   116   117    1
    51    49    48    1
    52    43    42    2
    53    54    53    1
    54    54    55    1
    55    70    69    1
    56   117   119    1
    57    55    56    2
    58    58    56    1
    59    47    45   ar
    60    42    41    1
    61   120   121    1
    62    56    57    1
    63    69    61   am
    64    44    41    1
    65    44    45    1
    66    41    40    1
    67   121   122    1
    68    45    46   ar
    69    61    62    2
    70    61    60    1
    71    35    34    2
    72    40    34   am
    73   122   124   am
    74   122   123    2
    75   141   140    1
    76    60    59    1
    77    60    63    1
    78   124   125    1
    79    34    33    1
    80   127   126    2
    81    67    65   ar
    82    67    68   ar
    83    37    38    1
    84    37    39    1
    85    37    36    1
    86   126   125    1
    87   126   136   am
    88    65    64   ar
    89    68    66   ar
    90   125   128    1
    91    66    64   ar
    92    64    63    1
    93   140   142    1
    94   140   137    1
    95    33    36    1
    96    33    32    1
    97   136   137    1
    98   137   138    1
    99   128   129    1
   100   130   129   ar
   101   130   132   ar
   102    31    29   am
   103   129   131   ar
   104   132   134   ar
   105    30    29    2
   106   138   139    2
   107    29    28    1
   108   131   133   ar
   109   134   135    1
   110   134   133   ar
   111    28    25    1
   112    15    16    2
   113    15    14    1
   114    17    14    1
   115    17    18    1
   116    20    19    1
   117    20    21    2
   118    14    13    1
   119    19    18    1
   120    25    26    1
   121    25    24    1
   122    26    27    2
   123    23    21    1
   124    21    22    1
   125    12    10    1
   126     5     2    1
   127    10    11    1
   128    10     7    1
   129     2     3    1
   130     2     1    1
   131     6     3   am
   132     6     7    1
   133     3     4    2
   134     7     8    1
   135     8     9    2
