@<TRIPOS>MOLECULE
tmp/4zvzB00.pdb
 132 127 0 0 0
SMALL
GASTEIGER

@<TRIPOS>ATOM
      1  N          9.3210   -1.0350   75.1260 N.3    68  ASP68      -0.1239
      2  CA        10.4320   -1.0280   74.1610 C.3    68  ASP68       0.1674
      3  C          9.9830   -0.5620   72.7810 C.2    68  ASP68       0.2266
      4  O          8.9110   -0.9520   72.3130 O.2    68  ASP68      -0.2867
      5  CB        11.0460   -2.4350   74.0030 C.3    68  ASP68       0.1410
      6  CG        11.4300   -3.0880   75.3260 C.2    68  ASP68       0.3668
      7  OD1       10.8770   -2.7370   76.3850 O.co2  68  ASP68      -0.2456
      8  OD2       12.2880   -3.9910   75.2940 O.co2  68  ASP68      -0.2456
      9  N         12.8830    0.1400   70.2950 N.3    70  HIS70      -0.1241
     10  CA        14.0220   -0.4040   69.5330 C.3    70  HIS70       0.1621
     11  C         14.1520    0.1050   68.1240 C.2    70  HIS70       0.2264
     12  O         14.2050   -0.6830   67.1810 O.2    70  HIS70      -0.2867
     13  CB        13.9790   -1.9290   69.5220 C.3    70  HIS70       0.0745
     14  CG        14.4850   -2.5560   70.7900 C.ar   70  HIS70       0.0817
     15  ND1       15.7730   -2.4760   71.1700 N.ar   70  HIS70      -0.2268
     16  CD2       13.8280   -3.2930   71.7710 C.ar   70  HIS70       0.1154
     17  CE1       15.9340   -3.1250   72.3350 C.ar   70  HIS70       0.1986
     18  NE2       14.7450   -3.6290   72.6990 N.ar   70  HIS70      -0.2212
     19  N         14.7540    1.0940   76.1790 N.3    97  ASP97      -0.1239
     20  CA        15.0110    0.3450   74.9420 C.3    97  ASP97       0.1674
     21  C         14.4480    1.0650   73.7210 C.2    97  ASP97       0.2266
     22  O         13.6300    0.5180   72.9670 O.2    97  ASP97      -0.2867
     23  CB        14.5030   -1.1040   75.0430 C.3    97  ASP97       0.1410
     24  CG        15.4450   -2.0070   75.8330 C.2    97  ASP97       0.3668
     25  OD1       16.3290   -1.4910   76.5520 O.co2  97  ASP97      -0.2456
     26  OD2       15.2900   -3.2470   75.7430 O.co2  97  ASP97      -0.2456
     27  N         18.8220   -2.9230   67.6750 N.3   101  ARG101     -0.1245
     28  CA        17.9720   -3.8710   66.9330 C.3   101  ARG101      0.1563
     29  C         17.3320   -3.2560   65.6850 C.2   101  ARG101      0.2260
     30  O         17.6510   -3.6610   64.5670 O.2   101  ARG101     -0.2867
     31  CB        16.9180   -4.5390   67.8360 C.3   101  ARG101      0.0307
     32  CG        17.4510   -5.1060   69.1460 C.3   101  ARG101      0.0489
     33  CD        18.1160   -6.4660   68.9910 C.3   101  ARG101      0.2205
     34  NE        18.4890   -7.0090   70.3010 N.pl3 101  ARG101     -0.0865
     35  CZ        19.0370   -8.2060   70.5080 C.cat 101  ARG101      0.5346
     36  NH1       19.2920   -9.0260   69.4900 N.pl3 101  ARG101      0.1354
     37  NH2       19.3350   -8.5850   71.7440 N.pl3 101  ARG101      0.1354
     38  N         18.0140   -1.3660   79.4100 N.3   129  ASN129     -0.1225
     39  CA        19.3160   -2.0220   79.3190 C.3   129  ASN129      0.1785
     40  C         20.0560   -1.7120   78.0100 C.2   129  ASN129      0.2597
     41  O         21.2770   -1.8410   77.9390 O.2   129  ASN129     -0.2718
     42  CB        19.2050   -3.5310   79.5900 C.3   129  ASN129      0.1169
     43  CG        18.3760   -4.2650   78.5550 C.2   129  ASN129      0.2627
     44  OD1       17.2460   -3.8710   78.2260 O.2   129  ASN129     -0.2716
     45  ND2       18.9280   -5.3630   78.0490 N.am  129  ASN129     -0.0877
     46  N         19.3170   -1.2660   76.9930 N.am  130  HIS130     -0.1975
     47  CA        19.9280   -0.8950   75.7140 C.3   130  HIS130      0.1656
     48  C         20.4430    0.5120   75.6070 C.2   130  HIS130      0.2291
     49  O         21.1520    0.8290   74.6520 O.2   130  HIS130     -0.2864
     50  CB        19.0150   -1.2310   74.5470 C.3   130  HIS130      0.0771
     51  CG        19.1410   -2.6540   74.0970 C.ar  130  HIS130      0.0820
     52  ND1       20.0850   -3.0540   73.2280 N.ar  130  HIS130     -0.2267
     53  CD2       18.4280   -3.7920   74.4560 C.ar  130  HIS130      0.1154
     54  CE1       19.9760   -4.3790   73.0230 C.ar  130  HIS130      0.1986
     55  NE2       18.9610   -4.8330   73.7770 N.ar  130  HIS130     -0.2212
     56  N         19.5450  -14.4280   81.3830 N.3   226  ARG226     -0.1245
     57  CA        20.3230  -13.4090   80.6760 C.3   226  ARG226      0.1563
     58  C         21.7900  -13.4040   81.0990 C.2   226  ARG226      0.2260
     59  O         22.6380  -12.8450   80.4030 O.2   226  ARG226     -0.2867
     60  CB        19.7140  -12.0230   80.8980 C.3   226  ARG226      0.0307
     61  CG        18.2700  -11.8970   80.4420 C.3   226  ARG226      0.0489
     62  CD        17.7460  -10.4950   80.6890 C.3   226  ARG226      0.2205
     63  NE        16.3100  -10.3900   80.4440 N.pl3 226  ARG226     -0.0865
     64  CZ        15.7590  -10.0810   79.2720 C.cat 226  ARG226      0.5346
     65  NH1       16.5200   -9.8450   78.2080 N.pl3 226  ARG226      0.1354
     66  NH2       14.4380  -10.0050   79.1670 N.pl3 226  ARG226      0.1354
     67  N         10.9110   -4.8570   78.6340 N.3   253  HIS253     -0.1226
     68  CA        12.1250   -5.6940   78.6590 C.3   253  HIS253      0.1752
     69  C         11.9170   -7.1070   78.1430 C.2   253  HIS253      0.2596
     70  O         12.8760   -7.8640   77.9930 O.2   253  HIS253     -0.2718
     71  CB        12.6950   -5.6700   80.0900 C.3   253  HIS253      0.0759
     72  CG        14.0860   -6.2520   80.2510 C.ar  253  HIS253      0.0818
     73  ND1       15.1270   -5.8990   79.4750 N.ar  253  HIS253     -0.2268
     74  CD2       14.5890   -7.1420   81.2000 C.ar  253  HIS253      0.1154
     75  CE1       16.2300   -6.5540   79.8780 C.ar  253  HIS253      0.1986
     76  NE2       15.9010   -7.3110   80.9380 N.ar  253  HIS253     -0.2212
     77  N         10.6640   -7.4710   77.8600 N.am  254  GLU254     -0.1965
     78  CA        10.3330   -8.8000   77.3190 C.3   254  GLU254      0.1733
     79  C          9.2340   -8.7170   76.2600 C.2   254  GLU254      0.2616
     80  O          8.1890   -8.1120   76.4950 O.2   254  GLU254     -0.2715
     81  CB         9.8910   -9.7580   78.4360 C.3   254  GLU254      0.0429
     82  CG        11.0120  -10.3070   79.3080 C.3   254  GLU254      0.1163
     83  CD        10.5300  -11.3460   80.3120 C.2   254  GLU254      0.3649
     84  OE1        9.7030  -11.0100   81.1920 O.co2 254  GLU254     -0.2457
     85  OE2       10.9880  -12.5080   80.2310 O.co2 254  GLU254     -0.2457
     86  N          9.4650   -9.3280   75.0980 N.am  255  VAL255     -0.1963
     87  CA         8.4420   -9.3660   74.0470 C.3   255  VAL255      0.1727
     88  C          7.2760  -10.2820   74.4330 C.2   255  VAL255      0.2616
     89  O          7.4770  -11.3500   75.0070 O.2   255  VAL255     -0.2715
     90  CB         9.0210   -9.7490   72.6610 C.3   255  VAL255      0.0290
     91  CG1        9.5290  -11.1870   72.6350 C.3   255  VAL255      0.0023
     92  CG2        7.9830   -9.5310   71.5680 C.3   255  VAL255      0.0023
     93  N          6.0590   -9.8370   74.1410 N.am  256  LYS256     -0.1977
     94  CA         4.8620  -10.6390   74.3640 C.3   256  LYS256      0.1596
     95  C          4.0330  -10.6440   73.0930 C.2   256  LYS256      0.2287
     96  O          3.8810   -9.6060   72.4430 O.2   256  LYS256     -0.2864
     97  CB         4.0330  -10.0890   75.5310 C.3   256  LYS256      0.0298
     98  CG         4.7780   -9.9670   76.8560 C.3   256  LYS256      0.0038
     99  CD         5.1100  -11.3260   77.4640 C.3   256  LYS256      0.0206
    100  CE         5.9430  -11.1560   78.7260 C.3   256  LYS256      0.1093
    101  NZ         6.2890  -12.4640   79.3490 N.3   256  LYS256     -0.1314
    102  N          5.0750   -3.8990   75.9680 N.3   272  PHE272     -0.1241
    103  CA         6.0650   -3.9370   74.8930 C.3   272  PHE272      0.1605
    104  C          5.4860   -3.2270   73.6750 C.2   272  PHE272      0.2264
    105  O          4.4040   -3.5860   73.1990 O.2   272  PHE272     -0.2867
    106  CB         6.4010   -5.3950   74.5580 C.3   272  PHE272      0.0534
    107  CG         7.6410   -5.5710   73.7310 C.ar  272  PHE272     -0.0203
    108  CD1        8.9020   -5.5800   74.3300 C.ar  272  PHE272     -0.0042
    109  CD2        7.5530   -5.7630   72.3540 C.ar  272  PHE272     -0.0042
    110  CE1       10.0450   -5.7590   73.5680 C.ar  272  PHE272     -0.0003
    111  CE2        8.7000   -5.9390   71.5890 C.ar  272  PHE272     -0.0003
    112  CZ         9.9460   -5.9330   72.1950 C.ar  272  PHE272     -0.0000
    113  N          8.5670   -7.3060   66.1080 N.3   277  TYR277     -0.1241
    114  CA         9.9230   -6.9750   66.5310 C.3   277  TYR277      0.1605
    115  C         10.9840   -7.6060   65.6290 C.2   277  TYR277      0.2264
    116  O         10.9430   -8.8070   65.3540 O.2   277  TYR277     -0.2867
    117  CB        10.1000   -7.3850   67.9970 C.3   277  TYR277      0.0534
    118  CG        11.5140   -7.3840   68.5060 C.ar  277  TYR277     -0.0201
    119  CD1       12.1250   -6.2090   68.9320 C.ar  277  TYR277     -0.0009
    120  CD2       12.2360   -8.5700   68.5870 C.ar  277  TYR277     -0.0009
    121  CE1       13.4260   -6.2150   69.4090 C.ar  277  TYR277      0.0417
    122  CE2       13.5330   -8.5880   69.0610 C.ar  277  TYR277      0.0417
    123  CZ        14.1220   -7.4100   69.4700 C.ar  277  TYR277      0.1957
    124  OH        15.4080   -7.4370   69.9450 O.3   277  TYR277     -0.2866
    125  N          9.4320  -11.3760   64.5920 N.3   281  MET281     -0.1245
    126  CA         8.6710  -11.8890   65.7340 C.3   281  MET281      0.1570
    127  C          7.1620  -12.0450   65.5060 C.2   281  MET281      0.2261
    128  O          6.5460  -12.9540   66.0620 O.2   281  MET281     -0.2867
    129  CB         8.9300  -11.0070   66.9570 C.3   281  MET281      0.0387
    130  CG         8.8280  -11.7290   68.2860 C.3   281  MET281      0.0595
    131  SD        10.1300  -12.9590   68.4870 S.3   281  MET281     -0.1393
    132  CE        11.4790  -11.9500   69.0990 C.3   281  MET281      0.0692
@<TRIPOS>BOND
     1    30    29    2
     2   125   126    1
     3   116   115    2
     4   127   126    1
     5   127   128    2
     6   115   114    1
     7    29    28    1
     8   126   129    1
     9   113   114    1
    10   114   117    1
    11    28    27    1
    12    28    31    1
    13   129   130    1
    14    12    11    2
    15    31    32    1
    16   117   118    1
    17    11    10    1
    18   130   131    1
    19   131   132    1
    20   118   120   ar
    21   118   119   ar
    22   120   122   ar
    23   119   121   ar
    24    33    32    1
    25    33    34    1
    26   122   123   ar
    27   121   123   ar
    28   123   124    1
    29    36    35    1
    30    13    10    1
    31    13    14    1
    32    10     9    1
    33    34    35    2
    34    35    37    1
    35    14    15   ar
    36    14    16   ar
    37    15    17   ar
    38    92    90    1
    39   111   112   ar
    40   111   109   ar
    41    16    18   ar
    42   112   110   ar
    43     4     3    2
    44    17    18   ar
    45   109   107   ar
    46    96    95    2
    47    91    90    1
    48    90    87    1
    49     3     2    1
    50    22    21    2
    51    54    52   ar
    52    54    55   ar
    53    95    94    1
    54   105   104    2
    55    52    51   ar
    56   110   108   ar
    57   104   103    1
    58    21    20    1
    59   107   108   ar
    60   107   106    1
    61    55    53   ar
    62     5     2    1
    63     5     6    1
    64    87    88    1
    65    87    86    1
    66    51    53   ar
    67    51    50    1
    68    93    94    1
    69    93    88   am
    70     2     1    1
    71    94    97    1
    72    88    89    2
    73    50    47    1
    74   106   103    1
    75    49    48    2
    76   103   102    1
    77    20    23    1
    78    20    19    1
    79    23    24    1
    80    86    79   am
    81     8     6   ar
    82     6     7   ar
    83    97    98    1
    84    48    47    1
    85    47    46    1
    86    26    24   ar
    87    24    25   ar
    88    79    80    2
    89    79    78    1
    90    98    99    1
    91    46    40   am
    92    78    77    1
    93    78    81    1
    94    99   100    1
    95    77    69   am
    96    41    40    2
    97    70    69    2
    98    40    39    1
    99    45    43   am
   100    69    68    1
   101    65    64    1
   102    44    43    2
   103    81    82    1
   104    43    42    1
   105    67    68    1
   106    68    71    1
   107   100   101    1
   108    66    64    1
   109    64    63    2
   110    82    83    1
   111    39    38    1
   112    39    42    1
   113    73    75   ar
   114    73    72   ar
   115    75    76   ar
   116    71    72    1
   117    85    83   ar
   118    72    74   ar
   119    83    84   ar
   120    59    58    2
   121    61    62    1
   122    61    60    1
   123    63    62    1
   124    57    60    1
   125    57    58    1
   126    57    56    1
   127    76    74   ar
