@<TRIPOS>MOLECULE
tmp/4zw1A00.pdb
 150 148 0 0 0
SMALL
GASTEIGER

@<TRIPOS>ATOM
      1  N         12.0070    4.8910  -21.7430 N.3    39  TRP39      -0.1228
      2  CA        13.3690    4.8190  -21.2450 C.3    39  TRP39       0.1722
      3  C         13.9610    6.1380  -20.6720 C.2    39  TRP39       0.2437
      4  O         14.6210    6.0650  -19.6470 O.2    39  TRP39      -0.2733
      5  CB        14.3330    4.0940  -22.2430 C.3    39  TRP39       0.0563
      6  CG        14.4940    4.8040  -23.5060 C.ar   39  TRP39       0.0003
      7  CD1       13.7780    4.6390  -24.6130 C.ar   39  TRP39       0.0946
      8  CD2       15.4530    5.7990  -23.7830 C.ar   39  TRP39       0.0152
      9  NE1       14.1720    5.5070  -25.5780 N.ar   39  TRP39      -0.2442
     10  CE2       15.2310    6.2280  -25.1010 C.ar   39  TRP39       0.0810
     11  CE3       16.4610    6.4050  -23.0320 C.ar   39  TRP39       0.0012
     12  CZ2       15.9640    7.2730  -25.6830 C.ar   39  TRP39       0.0191
     13  CZ3       17.2130    7.4150  -23.6200 C.ar   39  TRP39       0.0001
     14  CH2       16.9740    7.8110  -24.9460 C.ar   39  TRP39       0.0015
     15  N         13.6780    7.3100  -21.2550 N.am   40  PRO40      -0.2718
     16  CA        14.2370    8.4950  -20.6180 C.3    40  PRO40       0.1535
     17  C         13.6230    8.8090  -19.2280 C.2    40  PRO40       0.2598
     18  O         14.2530    9.5390  -18.4820 O.2    40  PRO40      -0.2715
     19  CB        13.9010    9.5960  -21.5520 C.3    40  PRO40       0.0310
     20  CG        13.6640    8.9550  -22.9100 C.3    40  PRO40       0.0237
     21  CD        12.9750    7.7070  -22.4990 C.3    40  PRO40       0.0939
     22  N         12.5040    8.1530  -18.9220 N.am   41  PHE41      -0.1974
     23  CA        11.7230    8.4250  -17.7230 C.3    41  PHE41       0.1639
     24  C         11.8390    7.3380  -16.7110 C.2    41  PHE41       0.2290
     25  O         11.1820    7.4060  -15.6810 O.2    41  PHE41      -0.2864
     26  CB        10.3040    8.7070  -18.1070 C.3    41  PHE41       0.0560
     27  CG        10.1690    9.7540  -19.1460 C.ar   41  PHE41      -0.0200
     28  CD1       10.3340   11.1070  -18.8140 C.ar   41  PHE41      -0.0042
     29  CD2        9.9350    9.4050  -20.4700 C.ar   41  PHE41      -0.0042
     30  CE1       10.2020   12.0950  -19.7620 C.ar   41  PHE41      -0.0003
     31  CE2        9.8890   10.3700  -21.4440 C.ar   41  PHE41      -0.0003
     32  CZ        10.0050   11.7320  -21.0960 C.ar   41  PHE41      -0.0000
     33  N         14.3730    6.4270  -14.7430 N.3    43  GLN43      -0.1231
     34  CA        15.3440    6.6750  -13.6670 C.3    43  GLN43       0.1683
     35  C         15.5010    8.2170  -13.5060 C.2    43  GLN43       0.2434
     36  O         15.1750    8.9830  -14.4020 O.2    43  GLN43      -0.2733
     37  CB        16.6820    5.9810  -14.0140 C.3    43  GLN43       0.0380
     38  CG        17.3310    6.5690  -15.2550 C.3    43  GLN43       0.0905
     39  CD        16.7040    6.0260  -16.5320 C.2    43  GLN43       0.2608
     40  OE1       16.4930    4.8420  -16.6340 O.2    43  GLN43      -0.2717
     41  NE2       16.3320    6.9120  -17.4820 N.am   43  GLN43      -0.0878
     42  N         16.0060    8.6780  -12.3610 N.am   44  PRO44      -0.2718
     43  CA        16.2020   10.0930  -12.1860 C.3    44  PRO44       0.1535
     44  C         17.1080   10.6460  -13.2760 C.2    44  PRO44       0.2598
     45  O         18.0420    9.9490  -13.7550 O.2    44  PRO44      -0.2715
     46  CB        16.9170   10.1610  -10.8210 C.3    44  PRO44       0.0310
     47  CG        16.3580    9.0360  -10.0860 C.3    44  PRO44       0.0237
     48  CD        16.1370    7.9390  -11.0750 C.3    44  PRO44       0.0939
     49  N         16.8510   11.8680  -13.6820 N.am   45  VAL45      -0.1964
     50  CA        17.7050   12.5940  -14.6010 C.3    45  VAL45       0.1727
     51  C         19.0570   12.7720  -13.9060 C.2    45  VAL45       0.2616
     52  O         19.1480   13.2370  -12.7210 O.2    45  VAL45      -0.2715
     53  CB        17.0740   13.9390  -14.9640 C.3    45  VAL45       0.0290
     54  CG1       18.0960   14.8390  -15.6270 C.3    45  VAL45       0.0023
     55  CG2       15.8370   13.7630  -15.8510 C.3    45  VAL45       0.0023
     56  N         20.0980   12.2610  -14.5410 N.am   46  ASP46      -0.1971
     57  CA        21.4880   12.4990  -14.0400 C.3    46  ASP46       0.1709
     58  C         21.9190   13.7180  -14.8290 C.2    46  ASP46       0.2293
     59  O         22.2430   13.6170  -16.0390 O.2    46  ASP46      -0.2864
     60  CB        22.3860   11.2580  -14.2680 C.3    46  ASP46       0.1436
     61  CG        23.7650   11.3750  -13.6110 C.2    46  ASP46       0.3671
     62  OD1       24.2630   12.5270  -13.4400 O.co2  46  ASP46      -0.2456
     63  OD2       24.3310   10.3130  -13.2360 O.co2  46  ASP46      -0.2456
     64  N         26.0070   13.4040  -15.7580 N.3    49  LYS49      -0.1231
     65  CA        26.2690   12.5210  -16.8950 C.3    49  LYS49       0.1693
     66  C         25.5110   12.8730  -18.1860 C.2    49  LYS49       0.2591
     67  O         25.8980   12.4300  -19.2720 O.2    49  LYS49      -0.2718
     68  CB        25.9850   11.0720  -16.4930 C.3    49  LYS49       0.0285
     69  CG        25.8210   10.1070  -17.6470 C.3    49  LYS49       0.0035
     70  CD        25.7570    8.6800  -17.1230 C.3    49  LYS49       0.0206
     71  CE        27.1380    8.1750  -16.7290 C.3    49  LYS49       0.1093
     72  NZ        27.1320    7.3660  -15.4730 N.3    49  LYS49      -0.1314
     73  N         24.4400   13.6470  -18.0910 N.am   50  LEU50      -0.1980
     74  CA        23.6770   14.0410  -19.2810 C.3    50  LEU50       0.1596
     75  C         24.1130   15.4650  -19.7160 C.2    50  LEU50       0.2287
     76  O         23.7120   15.9760  -20.7830 O.2    50  LEU50      -0.2864
     77  CB        22.1480   13.9350  -19.0180 C.3    50  LEU50       0.0297
     78  CG        21.4200   12.5770  -19.0350 C.3    50  LEU50       0.0022
     79  CD1       19.9810   12.6970  -18.5990 C.3    50  LEU50       0.0001
     80  CD2       21.4190   11.9220  -20.4110 C.3    50  LEU50       0.0001
     81  N         23.4660   18.6870  -18.2440 N.3    52  LEU52      -0.1245
     82  CA        22.3580   19.6410  -18.1730 C.3    52  LEU52       0.1561
     83  C         22.6920   20.4760  -16.9510 C.2    52  LEU52       0.2260
     84  O         22.1620   20.2680  -15.8560 O.2    52  LEU52      -0.2867
     85  CB        21.0290   18.8990  -18.0440 C.3    52  LEU52       0.0270
     86  CG        20.8550   17.7420  -19.0420 C.3    52  LEU52       0.0019
     87  CD1       19.8690   16.6850  -18.5660 C.3    52  LEU52       0.0001
     88  CD2       20.4900   18.2400  -20.4420 C.3    52  LEU52       0.0001
     89  N         19.7620   22.0920  -15.1960 N.3    55  TYR55      -0.1241
     90  CA        18.5620   21.2690  -15.0000 C.3    55  TYR55       0.1605
     91  C         17.9440   21.4900  -13.6280 C.2    55  TYR55       0.2264
     92  O         16.7670   21.7930  -13.5250 O.2    55  TYR55      -0.2867
     93  CB        18.8270   19.7970  -15.2660 C.3    55  TYR55       0.0534
     94  CG        17.5610   18.9500  -15.2080 C.ar   55  TYR55      -0.0201
     95  CD1       16.7260   18.8300  -16.3120 C.ar   55  TYR55      -0.0009
     96  CD2       17.1600   18.3300  -14.0150 C.ar   55  TYR55      -0.0009
     97  CE1       15.5270   18.0910  -16.2620 C.ar   55  TYR55       0.0417
     98  CE2       15.9690   17.5690  -13.9580 C.ar   55  TYR55       0.0417
     99  CZ        15.1560   17.4470  -15.0620 C.ar   55  TYR55       0.1957
    100  OH        13.9550   16.7530  -15.0010 O.3    55  TYR55      -0.2866
    101  N          6.4950   14.7150  -13.1140 N.3    90  MET90      -0.1245
    102  CA         7.4210   14.1620  -14.0640 C.3    90  MET90       0.1570
    103  C          7.1980   14.7550  -15.4480 C.2    90  MET90       0.2261
    104  O          8.1500   15.2400  -16.0950 O.2    90  MET90      -0.2867
    105  CB         7.2660   12.6410  -14.1300 C.3    90  MET90       0.0387
    106  CG         8.1880   11.9710  -15.1230 C.3    90  MET90       0.0595
    107  SD         7.9250   10.2210  -15.2760 S.3    90  MET90      -0.1393
    108  CE         6.5850   10.1460  -16.4280 C.3    90  MET90       0.0692
    109  N          7.9830   18.5650  -15.5830 N.3    93  ASN93      -0.1225
    110  CA         9.4300   18.8430  -15.5740 C.3    93  ASN93       0.1785
    111  C          9.9670   18.7850  -17.0370 C.2    93  ASN93       0.2597
    112  O         10.7520   19.6360  -17.4800 O.2    93  ASN93      -0.2718
    113  CB        10.1630   17.8150  -14.6990 C.3    93  ASN93       0.1169
    114  CG         9.9660   18.0370  -13.1930 C.2    93  ASN93       0.2627
    115  OD1        9.4600   19.0700  -12.7450 O.2    93  ASN93      -0.2716
    116  ND2       10.3370   17.0430  -12.4190 N.am   93  ASN93      -0.0877
    117  N          9.5050   17.7940  -17.7480 N.am   94  CYS94      -0.1970
    118  CA         9.9050   17.5890  -19.1410 C.3    94  CYS94       0.1712
    119  C          9.5150   18.7660  -20.0140 C.2    94  CYS94       0.2296
    120  O         10.3510   19.3300  -20.7450 O.2    94  CYS94      -0.2864
    121  CB         9.2810   16.3120  -19.6760 C.3    94  CYS94       0.0983
    122  SG         9.9820   15.9530  -21.3190 S.3    94  CYS94      -0.0798
    123  N         11.3960   22.1990  -19.1460 N.3    97  TYR97      -0.1227
    124  CA        12.8250   22.2220  -19.3960 C.3    97  TYR97       0.1736
    125  C         13.2130   22.0590  -20.8690 C.2    97  TYR97       0.2595
    126  O         14.0350   22.8380  -21.4220 O.2    97  TYR97      -0.2718
    127  CB        13.5180   21.1860  -18.5150 C.3    97  TYR97       0.0548
    128  CG        14.9970   21.2190  -18.7200 C.ar   97  TYR97      -0.0200
    129  CD1       15.7820   22.1480  -18.0670 C.ar   97  TYR97      -0.0009
    130  CD2       15.5920   20.3510  -19.5800 C.ar   97  TYR97      -0.0009
    131  CE1       17.1470   22.2130  -18.2890 C.ar   97  TYR97       0.0417
    132  CE2       16.9410   20.3930  -19.7860 C.ar   97  TYR97       0.0417
    133  CZ        17.7210   21.3370  -19.1650 C.ar   97  TYR97       0.1957
    134  OH        19.1020   21.3500  -19.4310 O.3    97  TYR97      -0.2866
    135  N         12.6740   21.0580  -21.5110 N.am   98  ASN98      -0.1974
    136  CA        13.0730   20.7390  -22.8710 C.3    98  ASN98       0.1688
    137  C         12.4200   21.6400  -23.8990 C.2    98  ASN98       0.2292
    138  O         11.3640   22.2060  -23.6790 O.2    98  ASN98      -0.2864
    139  CB        12.7580   19.2940  -23.1650 C.3    98  ASN98       0.1181
    140  CG        13.5760   18.3860  -22.3550 C.2    98  ASN98       0.2629
    141  OD1       14.7860   18.2590  -22.6130 O.2    98  ASN98      -0.2716
    142  ND2       13.0050   17.8470  -21.2890 N.am   98  ASN98      -0.0877
    143  N         12.3790   14.1780  -26.9700 N.3   104  ILE104     -0.1245
    144  CA        12.0240   13.8490  -25.5700 C.3   104  ILE104      0.1561
    145  C         10.6270   14.3930  -25.1830 C.2   104  ILE104      0.2260
    146  O          9.8450   13.6990  -24.5500 O.2   104  ILE104     -0.2867
    147  CB        13.1320   14.3180  -24.6040 C.3   104  ILE104      0.0252
    148  CG1       12.8360   13.9270  -23.1160 C.3   104  ILE104      0.0019
    149  CG2       13.3590   15.8190  -24.6820 C.3   104  ILE104      0.0019
    150  CD1       12.9920   12.4810  -22.8040 C.3   104  ILE104      0.0001
@<TRIPOS>BOND
     1   143   144    1
     2    12    10   ar
     3    12    14   ar
     4     9    10   ar
     5     9     7   ar
     6   144   145    1
     7   144   147    1
     8   145   146    2
     9    10     8   ar
    10    14    13   ar
    11   149   147    1
    12     7     6   ar
    13   147   148    1
    14   137   138    2
    15   137   136    1
    16     8     6   ar
    17     8    11   ar
    18    13    11   ar
    19     6     5    1
    20   139   136    1
    21   139   140    1
    22   148   150    1
    23    20    21    1
    24    20    19    1
    25   136   135    1
    26   141   140    2
    27    21    15    1
    28   140   142   am
    29     5     2    1
    30     1     2    1
    31    19    16    1
    32   135   125   am
    33    31    32   ar
    34    31    29   ar
    35   126   125    2
    36   122   121    1
    37    15     3   am
    38    15    16    1
    39     2     3    1
    40    32    30   ar
    41   125   124    1
    42    76    75    2
    43   120   119    2
    44     3     4    2
    45    16    17    1
    46    29    27   ar
    47    88    86    1
    48    80    78    1
    49   119   118    1
    50   132   130   ar
    51   132   133   ar
    52    30    28   ar
    53    75    74    1
    54   121   118    1
    55   130   128   ar
    56   134   133    1
    57   124   123    1
    58   124   127    1
    59    74    77    1
    60    74    73    1
    61    67    66    2
    62    17    22   am
    63    17    18    2
    64   133   131   ar
    65    27    28   ar
    66    27    26    1
    67   118   117    1
    68    86    87    1
    69    86    85    1
    70    78    77    1
    71    78    79    1
    72    22    23    1
    73   128   127    1
    74   128   129   ar
    75   131   129   ar
    76    81    82    1
    77    66    73   am
    78    66    65    1
    79    82    85    1
    80    82    83    1
    81    26    23    1
    82   117   111   am
    83    23    24    1
    84    69    70    1
    85    69    68    1
    86    41    39   am
    87   112   111    2
    88    70    71    1
    89   111   110    1
    90    83    84    2
    91    65    68    1
    92    65    64    1
    93    71    72    1
    94    24    25    2
    95    40    39    2
    96    39    38    1
    97   108   107    1
    98    95    97   ar
    99    95    94   ar
   100    97    99   ar
   101   104   103    2
   102    59    58    2
   103    55    53    1
   104    54    53    1
   105   109   110    1
   106   110   113    1
   107   103   102    1
   108   107   106    1
   109    93    94    1
   110    93    90    1
   111    38    37    1
   112    94    96   ar
   113    89    90    1
   114   106   105    1
   115    99   100    1
   116    99    98   ar
   117    90    91    1
   118    53    50    1
   119    58    57    1
   120    33    34    1
   121   113   114    1
   122    50    51    1
   123    50    49    1
   124    56    57    1
   125    56    51   am
   126    36    35    2
   127    60    57    1
   128    60    61    1
   129   105   102    1
   130   102   101    1
   131    96    98   ar
   132    37    34    1
   133    51    52    2
   134    45    44    2
   135    49    44   am
   136    34    35    1
   137    91    92    2
   138    61    62   ar
   139    61    63   ar
   140    35    42   am
   141    44    43    1
   142   114   115    2
   143   114   116   am
   144    42    43    1
   145    42    48    1
   146    43    46    1
   147    48    47    1
   148    46    47    1
