@<TRIPOS>MOLECULE
tmp/4zw3A00.pdb
 162 153 0 0 0
SMALL
GASTEIGER

@<TRIPOS>ATOM
      1  N         89.3710  129.9800   19.5650 N.3   122  GLN122     -0.1245
      2  CA        88.9410  128.7220   18.9590 C.3   122  GLN122      0.1566
      3  C         87.5590  128.4240   19.5190 C.2   122  GLN122      0.2260
      4  O         87.4130  128.1870   20.7210 O.2   122  GLN122     -0.2867
      5  CB        89.9200  127.5850   19.2560 C.3   122  GLN122      0.0367
      6  CG        89.4130  126.1960   18.8520 C.3   122  GLN122      0.0905
      7  CD        89.0280  126.1220   17.3800 C.2   122  GLN122      0.2608
      8  OE1       89.6680  126.7400   16.5280 O.2   122  GLN122     -0.2717
      9  NE2       87.9770  125.3600   17.0750 N.am  122  GLN122     -0.0878
     10  N         84.8640  126.3340   17.8280 N.3   124  GLU124     -0.1245
     11  CA        84.2490  125.0260   17.5900 C.3   124  GLU124      0.1567
     12  C         84.7980  124.0170   18.6010 C.2   124  GLU124      0.2260
     13  O         86.0080  123.9630   18.8120 O.2   124  GLU124     -0.2867
     14  CB        84.5040  124.5280   16.1650 C.3   124  GLU124      0.0388
     15  CG        83.6490  123.3250   15.8340 C.3   124  GLU124      0.1160
     16  CD        83.8010  122.8310   14.4050 C.2   124  GLU124      0.3649
     17  OE1       84.6500  123.3560   13.6640 O.co2 124  GLU124     -0.2457
     18  OE2       83.0620  121.9020   14.0310 O.co2 124  GLU124     -0.2457
     19  N         94.2740  121.1240   17.0350 N.3   264  VAL264     -0.1231
     20  CA        94.0830  120.3000   15.8440 C.3   264  VAL264      0.1692
     21  C         94.9000  120.8860   14.6840 C.2   264  VAL264      0.2593
     22  O         95.8620  121.6220   14.9120 O.2   264  VAL264     -0.2718
     23  CB        92.5830  120.2070   15.5040 C.3   264  VAL264      0.0266
     24  CG1       91.8380  119.4990   16.6440 C.3   264  VAL264      0.0020
     25  CG2       91.9840  121.6130   15.3030 C.3   264  VAL264      0.0020
     26  N         94.5330  120.5730   13.4490 N.am  265  GLY265     -0.1942
     27  CA        95.2620  121.1060   12.3090 C.3   265  GLY265      0.2014
     28  C         94.8710  122.5450   11.9710 C.2   265  GLY265      0.2639
     29  O         95.7410  123.4010   11.8270 O.2   265  GLY265     -0.2714
     30  N         93.5730  122.8130   11.8260 N.am  266  ALA266     -0.1963
     31  CA        93.1090  124.1900   11.5540 C.3   266  ALA266      0.1728
     32  C         91.6120  124.3310   11.7490 C.2   266  ALA266      0.2616
     33  O         90.9260  123.3550   12.0440 O.2   266  ALA266     -0.2715
     34  CB        93.4700  124.6160   10.1500 C.3   266  ALA266      0.0334
     35  N         91.1070  125.5410   11.5350 N.am  267  MET267     -0.1963
     36  CA        89.7140  125.8480   11.8280 C.3   267  MET267      0.1736
     37  C         89.1760  126.8300   10.8020 C.2   267  MET267      0.2616
     38  O         89.8380  127.8170   10.4800 O.2   267  MET267     -0.2715
     39  CB        89.5780  126.4230   13.2430 C.3   267  MET267      0.0427
     40  CG        88.1650  126.8290   13.5760 C.3   267  MET267      0.0599
     41  SD        86.9910  125.4400   13.5120 S.3   267  MET267     -0.1393
     42  CE        85.4700  126.3010   13.0700 C.3   267  MET267      0.0692
     43  N         87.9730  126.5580   10.3030 N.am  268  GLU268     -0.1977
     44  CA        87.4080  127.2770    9.1590 C.3   268  GLU268      0.1602
     45  C         86.6150  128.5560    9.5030 C.2   268  GLU268      0.2287
     46  O         85.6550  128.8880    8.8110 O.2   268  GLU268     -0.2864
     47  CB        86.5030  126.3280    8.3540 C.3   268  GLU268      0.0415
     48  CG        85.1190  126.0140    8.9780 C.3   268  GLU268      0.1163
     49  CD        85.0950  124.7450    9.8250 C.2   268  GLU268      0.3649
     50  OE1       86.1770  124.3130   10.2820 O.co2 268  GLU268     -0.2457
     51  OE2       83.9910  124.1760   10.0220 O.co2 268  GLU268     -0.2457
     52  N        100.7710  118.0670    3.7540 N.3   294  ARG294     -0.1245
     53  CA        99.9580  118.4280    4.9250 C.3   294  ARG294      0.1563
     54  C         99.3280  119.8190    4.7530 C.2   294  ARG294      0.2260
     55  O         98.1350  119.9980    5.0040 O.2   294  ARG294     -0.2867
     56  CB       100.8010  118.3920    6.1990 C.3   294  ARG294      0.0307
     57  CG       100.0650  118.8720    7.4360 C.3   294  ARG294      0.0489
     58  CD        98.9400  117.9340    7.8210 C.3   294  ARG294      0.2205
     59  NE        98.3170  118.3670    9.0700 N.pl3 294  ARG294     -0.0865
     60  CZ        97.2810  117.7680    9.6380 C.cat 294  ARG294      0.5346
     61  NH1       96.7490  116.6790    9.0810 N.pl3 294  ARG294      0.1354
     62  NH2       96.7930  118.2480   10.7720 N.pl3 294  ARG294      0.1354
     63  N         96.6060  119.8220    2.0440 N.3   297  THR297     -0.1203
     64  CA        95.3730  119.2220    2.5590 C.3   297  THR297      0.1994
     65  C         94.6350  120.1320    3.5310 C.2   297  THR297      0.2617
     66  O         93.4140  120.2850    3.4450 O.2   297  THR297     -0.2717
     67  CB        95.6300  117.8800    3.2920 C.3   297  THR297      0.1784
     68  OG1       96.5540  118.0800    4.3630 O.3   297  THR297     -0.2211
     69  CG2       96.1860  116.8560    2.3570 C.3   297  THR297      0.0376
     70  N         95.3590  120.7360    4.4570 N.am  298  VAL298     -0.1979
     71  CA        94.6700  121.4930    5.4960 C.3   298  VAL298      0.1595
     72  C         94.1960  122.8480    4.9660 C.2   298  VAL298      0.2287
     73  O         93.0720  123.2640    5.2530 O.2   298  VAL298     -0.2864
     74  CB        95.5640  121.6500    6.7400 C.3   298  VAL298      0.0276
     75  CG1       94.8930  122.5280    7.7970 C.3   298  VAL298      0.0022
     76  CG2       95.8210  120.2690    7.3330 C.3   298  VAL298      0.0022
     77  N         91.2660  121.8800    2.8550 N.3   301  HIS301     -0.1226
     78  CA        90.1570  121.5050    3.7250 C.3   301  HIS301      0.1752
     79  C         89.4080  122.7260    4.2900 C.2   301  HIS301      0.2595
     80  O         88.1780  122.8270    4.1790 O.2   301  HIS301     -0.2718
     81  CB        90.6770  120.6340    4.8700 C.3   301  HIS301      0.0759
     82  CG        89.6190  120.1470    5.8050 C.ar  301  HIS301      0.0818
     83  ND1       89.1810  118.8340    5.8100 N.ar  301  HIS301     -0.2268
     84  CD2       88.9490  120.7680    6.8080 C.ar  301  HIS301      0.1154
     85  CE1       88.2790  118.6760    6.7580 C.ar  301  HIS301      0.1986
     86  NE2       88.1210  119.8330    7.3840 N.ar  301  HIS301     -0.2212
     87  N         90.1370  123.6570    4.8900 N.am  302  GLU302     -0.1979
     88  CA        89.4580  124.8130    5.4790 C.3   302  GLU302      0.1602
     89  C         88.8050  125.6620    4.3960 C.2   302  GLU302      0.2287
     90  O         87.7460  126.2580    4.6270 O.2   302  GLU302     -0.2864
     91  CB        90.4150  125.6700    6.3180 C.3   302  GLU302      0.0415
     92  CG        91.2230  124.9040    7.3940 C.3   302  GLU302      0.1163
     93  CD        90.4010  123.9310    8.2480 C.2   302  GLU302      0.3649
     94  OE1       89.1920  124.1560    8.4500 O.co2 302  GLU302     -0.2457
     95  OE2       90.9800  122.9320    8.7310 O.co2 302  GLU302     -0.2457
     96  N         85.4290  124.1480    3.2730 N.3   305  HIS305     -0.1241
     97  CA        84.4010  124.4350    4.2720 C.3   305  HIS305      0.1621
     98  C         83.5740  125.6660    3.9540 C.2   305  HIS305      0.2264
     99  O         82.4650  125.8150    4.4760 O.2   305  HIS305     -0.2867
    100  CB        85.0330  124.6260    5.6500 C.3   305  HIS305      0.0745
    101  CG        85.0920  123.3760    6.4690 C.ar  305  HIS305      0.0817
    102  ND1       84.0110  122.5300    6.6180 N.ar  305  HIS305     -0.2268
    103  CD2       86.1000  122.8310    7.1880 C.ar  305  HIS305      0.1154
    104  CE1       84.3550  121.5120    7.3880 C.ar  305  HIS305      0.1986
    105  NE2       85.6160  121.6710    7.7530 N.ar  305  HIS305     -0.2212
    106  N         82.0540  117.5310    7.8380 N.3   324  GLU324     -0.1245
    107  CA        83.4240  117.0350    7.9260 C.3   324  GLU324      0.1567
    108  C         83.6970  115.9130    6.9310 C.2   324  GLU324      0.2260
    109  O         84.6810  115.9720    6.2220 O.2   324  GLU324     -0.2867
    110  CB        83.7660  116.5820    9.3530 C.3   324  GLU324      0.0388
    111  CG        83.7880  117.7460   10.3760 C.3   324  GLU324      0.1160
    112  CD        84.6410  118.9520    9.9540 C.2   324  GLU324      0.3649
    113  OE1       85.5650  118.8110    9.1260 O.co2 324  GLU324     -0.2457
    114  OE2       84.4000  120.0550   10.4880 O.co2 324  GLU324     -0.2457
    115  N         86.2710  116.5580    3.8950 N.3   328  VAL328     -0.1245
    116  CA        87.4370  115.6820    3.7000 C.3   328  VAL328      0.1561
    117  C         87.3900  115.0710    2.2900 C.2   328  VAL328      0.2260
    118  O         88.4160  114.9960    1.6110 O.2   328  VAL328     -0.2867
    119  CB        87.5200  114.5740    4.7770 C.3   328  VAL328      0.0252
    120  CG1       88.6770  113.5810    4.4810 C.3   328  VAL328      0.0019
    121  CG2       87.7170  115.1840    6.1710 C.3   328  VAL328      0.0019
    122  N         83.4960  117.3650   21.8890 N.3   377  GLU377     -0.1245
    123  CA        84.8950  117.3280   21.4980 C.3   377  GLU377      0.1567
    124  C         85.3340  115.9010   21.1920 C.2   377  GLU377      0.2260
    125  O         86.1740  115.6730   20.3150 O.2   377  GLU377     -0.2867
    126  CB        85.7660  117.9400   22.5880 C.3   377  GLU377      0.0388
    127  CG        85.2030  119.2390   23.1980 C.3   377  GLU377      0.1160
    128  CD        85.3830  120.4680   22.3190 C.2   377  GLU377      0.3649
    129  OE1       86.1470  120.4270   21.3380 O.co2 377  GLU377     -0.2457
    130  OE2       84.7580  121.4900   22.6390 O.co2 377  GLU377     -0.2457
    131  N         84.9410  114.3720   17.2840 N.3   380  TYR380     -0.1241
    132  CA        85.7360  114.7320   16.1100 C.3   380  TYR380      0.1605
    133  C         86.7310  113.6060   15.8020 C.2   380  TYR380      0.2264
    134  O         87.9330  113.7200   16.0360 O.2   380  TYR380     -0.2867
    135  CB        86.4300  116.0780   16.3410 C.3   380  TYR380      0.0534
    136  CG        85.4290  117.2110   16.2960 C.ar  380  TYR380     -0.0201
    137  CD1       84.5970  117.4750   17.3820 C.ar  380  TYR380     -0.0009
    138  CD2       85.2960  118.0030   15.1560 C.ar  380  TYR380     -0.0009
    139  CE1       83.6670  118.4940   17.3400 C.ar  380  TYR380      0.0417
    140  CE2       84.3770  119.0340   15.1110 C.ar  380  TYR380      0.0417
    141  CZ        83.5570  119.2690   16.2010 C.ar  380  TYR380      0.1957
    142  OH        82.6270  120.2750   16.1510 O.3   380  TYR380     -0.2866
    143  N         85.2230  111.6890   10.3750 N.3   385  TYR385     -0.1241
    144  CA        85.9750  112.3570    9.3120 C.3   385  TYR385      0.1605
    145  C         86.3060  111.4520    8.1210 C.2   385  TYR385      0.2264
    146  O         85.9710  111.7590    6.9740 O.2   385  TYR385     -0.2867
    147  CB        87.2950  112.9270    9.8590 C.3   385  TYR385      0.0534
    148  CG        87.1220  114.2780   10.5030 C.ar  385  TYR385     -0.0201
    149  CD1       87.6930  115.4210    9.9360 C.ar  385  TYR385     -0.0009
    150  CD2       86.3590  114.4200   11.6450 C.ar  385  TYR385     -0.0009
    151  CE1       87.5210  116.6650   10.5270 C.ar  385  TYR385      0.0417
    152  CE2       86.1840  115.6680   12.2500 C.ar  385  TYR385      0.0417
    153  CZ        86.7650  116.7830   11.6710 C.ar  385  TYR385      0.1957
    154  OH        86.5910  118.0400   12.2480 O.3   385  TYR385     -0.2866
    155  N         91.3930  118.0840   25.7940 N.3   839  MET839     -0.1245
    156  CA        91.3300  117.6130   24.4150 C.3   839  MET839      0.1570
    157  C         92.6120  116.8760   24.0300 C.2   839  MET839      0.2261
    158  O         92.5520  115.7680   23.4990 O.2   839  MET839     -0.2867
    159  CB        91.0720  118.7660   23.4350 C.3   839  MET839      0.0387
    160  CG        90.8270  118.2630   21.9960 C.3   839  MET839      0.0595
    161  SD        90.2820  119.5250   20.8100 S.3   839  MET839     -0.1393
    162  CE        88.9940  120.3250   21.7670 C.3   839  MET839      0.0692
@<TRIPOS>BOND
     1   118   117    2
     2    63    64    1
     3   117   116    1
     4    69    67    1
     5    64    67    1
     6    64    65    1
     7    77    78    1
     8    96    97    1
     9    67    68    1
    10    66    65    2
    11    65    70   am
    12   116   115    1
    13   116   119    1
    14    78    79    1
    15    78    81    1
    16    52    53    1
    17    98    97    1
    18    98    99    2
    19    80    79    2
    20    97   100    1
    21    79    87   am
    22    89    90    2
    23    89    88    1
    24    70    71    1
    25   120   119    1
    26    54    53    1
    27    54    55    2
    28   119   121    1
    29    81    82    1
    30    87    88    1
    31    53    56    1
    32    72    73    2
    33    72    71    1
    34    88    91    1
    35    71    74    1
    36   100   101    1
    37    82    83   ar
    38    82    84   ar
    39    83    85   ar
    40    56    57    1
    41   109   108    2
    42    91    92    1
    43   101   102   ar
    44   101   103   ar
    45   102   104   ar
    46    74    76    1
    47    74    75    1
    48    85    86   ar
    49    84    86   ar
    50   108   107    1
    51   146   145    2
    52   103   105   ar
    53   104   105   ar
    54    92    93    1
    55    57    58    1
    56    58    59    1
    57   106   107    1
    58   107   110    1
    59   145   144    1
    60    93    94   ar
    61    93    95   ar
    62    47    48    1
    63    47    44    1
    64    46    45    2
    65    48    49    1
    66    59    60    2
    67    61    60    1
    68   113   112   ar
    69    44    45    1
    70    44    43    1
    71   144   147    1
    72   144   143    1
    73   110   111    1
    74    60    62    1
    75    49    51   ar
    76    49    50   ar
    77   147   148    1
    78   149   148   ar
    79   149   151   ar
    80   112   111    1
    81   112   114   ar
    82    34    31    1
    83    43    37   am
    84    38    37    2
    85   148   150   ar
    86   151   153   ar
    87    37    36    1
    88    35    32   am
    89    35    36    1
    90    31    32    1
    91    31    30    1
    92   150   152   ar
    93   153   154    1
    94   153   152   ar
    95    32    33    2
    96    30    28   am
    97    29    28    2
    98    36    39    1
    99    28    27    1
   100    27    26    1
   101    42    41    1
   102    39    40    1
   103    26    21   am
   104    41    40    1
   105    17    16   ar
   106    18    16   ar
   107    16    15    1
   108    21    22    2
   109    21    20    1
   110   140   138   ar
   111   140   141   ar
   112   138   136   ar
   113    25    23    1
   114    23    20    1
   115    23    24    1
   116   133   134    2
   117   133   132    1
   118    15    14    1
   119    20    19    1
   120   132   135    1
   121   132   131    1
   122   142   141    1
   123    14    11    1
   124   141   139   ar
   125   136   135    1
   126   136   137   ar
   127     8     7    2
   128     9     7   am
   129   139   137   ar
   130     7     6    1
   131    11    10    1
   132    11    12    1
   133    12    13    2
   134     6     5    1
   135     2     5    1
   136     2     3    1
   137     2     1    1
   138     3     4    2
   139   125   124    2
   140   161   162    1
   141   161   160    1
   142   124   123    1
   143   129   128   ar
   144   123   122    1
   145   123   126    1
   146   160   159    1
   147   128   130   ar
   148   128   127    1
   149   126   127    1
   150   159   156    1
   151   158   157    2
   152   157   156    1
   153   156   155    1
