@<TRIPOS>MOLECULE
tmp/4zw5A00.pdb
 190 180 0 0 0
SMALL
GASTEIGER

@<TRIPOS>ATOM
      1  N         15.7530   17.1580   24.2130 N.3   110  THR110     -0.1218
      2  CA        14.3860   17.2730   23.7470 C.3   110  THR110      0.1862
      3  C         13.8080   18.5780   24.3070 C.2   110  THR110      0.2287
      4  O         14.1580   18.9860   25.4180 O.2   110  THR110     -0.2866
      5  CB        13.5470   16.0750   24.1990 C.3   110  THR110      0.1770
      6  OG1       13.6490   15.9530   25.6220 O.3   110  THR110     -0.2211
      7  CG2       14.0590   14.7710   23.5330 C.3   110  THR110      0.0375
      8  N         14.1500   20.5420   19.7270 N.3   122  GLN122     -0.1245
      9  CA        13.7380   19.2860   19.1090 C.3   122  GLN122      0.1566
     10  C         12.3600   18.9660   19.6570 C.2   122  GLN122      0.2260
     11  O         12.2230   18.6250   20.8430 O.2   122  GLN122     -0.2867
     12  CB        14.7290   18.1560   19.3900 C.3   122  GLN122      0.0367
     13  CG        14.2400   16.7660   18.9570 C.3   122  GLN122      0.0905
     14  CD        13.8040   16.7240   17.5000 C.2   122  GLN122      0.2608
     15  OE1       14.4540   17.3050   16.6300 O.2   122  GLN122     -0.2717
     16  NE2       12.7040   16.0310   17.2300 N.am  122  GLN122     -0.0878
     17  N          9.5910   17.0150   17.8480 N.3   124  GLU124     -0.1231
     18  CA         8.9740   15.7050   17.6030 C.3   124  GLU124      0.1699
     19  C          9.4810   14.7390   18.6770 C.2   124  GLU124      0.2592
     20  O         10.6630   14.7790   19.0190 O.2   124  GLU124     -0.2718
     21  CB         9.2930   15.1720   16.2050 C.3   124  GLU124      0.0402
     22  CG         8.4140   13.9900   15.8310 C.3   124  GLU124      0.1161
     23  CD         8.6800   13.4190   14.4490 C.2   124  GLU124      0.3649
     24  OE1        9.5260   13.9620   13.7090 O.co2 124  GLU124     -0.2457
     25  OE2        8.0400   12.4010   14.1200 O.co2 124  GLU124     -0.2457
     26  N          8.6060   13.9030   19.2390 N.am  125  ALA125     -0.1980
     27  CA         7.1750   13.8890   18.9350 C.3   125  ALA125      0.1597
     28  C          6.3930   14.7820   19.8910 C.2   125  ALA125      0.2287
     29  O          5.4820   15.5060   19.4690 O.2   125  ALA125     -0.2864
     30  CB         6.6430   12.4610   18.9880 C.3   125  ALA125      0.0319
     31  N         19.8830   13.4440   19.2110 N.3   263  ASN263     -0.1225
     32  CA        19.5490   12.0620   19.5730 C.3   263  ASN263      0.1785
     33  C         19.4860   11.1430   18.3670 C.2   263  ASN263      0.2597
     34  O         19.7190    9.9450   18.4800 O.2   263  ASN263     -0.2718
     35  CB        18.2200   12.0070   20.3340 C.3   263  ASN263      0.1169
     36  CG        18.3470   12.5450   21.7430 C.2   263  ASN263      0.2627
     37  OD1       19.4470   12.6130   22.2890 O.2   263  ASN263     -0.2716
     38  ND2       17.2260   12.9320   22.3390 N.am  263  ASN263     -0.0877
     39  N         19.1730   11.7010   17.2050 N.am  264  VAL264     -0.1966
     40  CA        19.0220   10.8790   16.0120 C.3   264  VAL264      0.1727
     41  C         19.8230   11.4950   14.8650 C.2   264  VAL264      0.2617
     42  O         20.7830   12.2220   15.1110 O.2   264  VAL264     -0.2715
     43  CB        17.5360   10.7250   15.6400 C.3   264  VAL264      0.0290
     44  CG1       16.8130    9.9470   16.7350 C.3   264  VAL264      0.0023
     45  CG2       16.8850   12.0790   15.4480 C.3   264  VAL264      0.0023
     46  N         19.4570   11.1950   13.6220 N.am  265  GLY265     -0.1940
     47  CA        20.1910   11.7450   12.4900 C.3   265  GLY265      0.2014
     48  C         19.8390   13.1930   12.1700 C.2   265  GLY265      0.2639
     49  O         20.7250   14.0420   12.0170 O.2   265  GLY265     -0.2714
     50  N         18.5450   13.4650   12.0260 N.am  266  ALA266     -0.1963
     51  CA        18.0690   14.8180   11.7330 C.3   266  ALA266      0.1728
     52  C         16.5670   14.9210   11.9270 C.2   266  ALA266      0.2616
     53  O         15.9050   13.9330   12.2320 O.2   266  ALA266     -0.2715
     54  CB        18.4310   15.2220   10.3250 C.3   266  ALA266      0.0334
     55  N         16.0430   16.1240   11.7250 N.am  267  MET267     -0.1963
     56  CA        14.6400   16.4210   11.9900 C.3   267  MET267      0.1736
     57  C         14.1040   17.3990   10.9410 C.2   267  MET267      0.2616
     58  O         14.7700   18.3760   10.6130 O.2   267  MET267     -0.2715
     59  CB        14.4840   17.0190   13.3910 C.3   267  MET267      0.0427
     60  CG        13.0540   17.4480   13.6880 C.3   267  MET267      0.0599
     61  SD        11.9010   16.0490   13.6770 S.3   267  MET267     -0.1393
     62  CE        10.4040   16.9060   13.1820 C.3   267  MET267      0.0692
     63  N         12.8910   17.1530   10.4530 N.am  268  GLU268     -0.1977
     64  CA        12.3540   17.8660    9.2950 C.3   268  GLU268      0.1602
     65  C         11.5240   19.1270    9.6040 C.2   268  GLU268      0.2287
     66  O         10.5860   19.4290    8.8730 O.2   268  GLU268     -0.2864
     67  CB        11.4960   16.9040    8.4650 C.3   268  GLU268      0.0415
     68  CG        10.1030   16.5850    9.0680 C.3   268  GLU268      0.1163
     69  CD        10.0710   15.3310    9.9220 C.2   268  GLU268      0.3649
     70  OE1       11.1510   14.8940   10.3960 O.co2 268  GLU268     -0.2457
     71  OE2        8.9530   14.7740   10.0880 O.co2 268  GLU268     -0.2457
     72  N         25.6720    8.7550    3.8740 N.3   294  ARG294     -0.1245
     73  CA        24.8690    9.0950    5.0480 C.3   294  ARG294      0.1563
     74  C         24.2360   10.4920    4.8840 C.2   294  ARG294      0.2260
     75  O         23.0340   10.6630    5.0880 O.2   294  ARG294     -0.2867
     76  CB        25.7280    9.0480    6.3170 C.3   294  ARG294      0.0307
     77  CG        25.0140    9.5310    7.5650 C.3   294  ARG294      0.0489
     78  CD        23.8740    8.6060    7.9380 C.3   294  ARG294      0.2205
     79  NE        23.2480    9.0400    9.1850 N.pl3 294  ARG294     -0.0865
     80  CZ        22.2030    8.4440    9.7410 C.cat 294  ARG294      0.5346
     81  NH1       21.6720    7.3630    9.1720 N.pl3 294  ARG294      0.1354
     82  NH2       21.7040    8.9170   10.8730 N.pl3 294  ARG294      0.1354
     83  N         21.5950   10.4960    2.1940 N.3   297  THR297     -0.1203
     84  CA        20.3950    9.8700    2.7310 C.3   297  THR297      0.1994
     85  C         19.6140   10.7860    3.6520 C.2   297  THR297      0.2617
     86  O         18.3950   10.9290    3.5160 O.2   297  THR297     -0.2717
     87  CB        20.7660    8.5740    3.5060 C.3   297  THR297      0.1784
     88  OG1       21.0590    7.5410    2.5570 O.3   297  THR297     -0.2211
     89  CG2       19.6320    8.1240    4.4330 C.3   297  THR297      0.0376
     90  N         20.3130   11.4110    4.5930 N.am  298  VAL298     -0.1979
     91  CA        19.6120   12.1370    5.6390 C.3   298  VAL298      0.1595
     92  C         19.1010   13.4820    5.1170 C.2   298  VAL298      0.2287
     93  O         17.9600   13.8830    5.3910 O.2   298  VAL298     -0.2864
     94  CB        20.5020   12.3330    6.8760 C.3   298  VAL298      0.0276
     95  CG1       19.7700   13.1650    7.9190 C.3   298  VAL298      0.0022
     96  CG2       20.8450   10.9570    7.4770 C.3   298  VAL298      0.0022
     97  N         16.1730   12.5360    2.9770 N.3   301  HIS301     -0.1226
     98  CA        15.0550   12.1500    3.8300 C.3   301  HIS301      0.1752
     99  C         14.3020   13.3660    4.4080 C.2   301  HIS301      0.2595
    100  O         13.0790   13.4810    4.2750 O.2   301  HIS301     -0.2718
    101  CB        15.5640   11.2590    4.9710 C.3   301  HIS301      0.0759
    102  CG        14.4900   10.7550    5.8830 C.ar  301  HIS301      0.0818
    103  ND1       14.0130    9.4610    5.8210 N.ar  301  HIS301     -0.2268
    104  CD2       13.8210   11.3530    6.9010 C.ar  301  HIS301      0.1154
    105  CE1       13.0880    9.2890    6.7480 C.ar  301  HIS301      0.1986
    106  NE2       12.9530   10.4200    7.4170 N.ar  301  HIS301     -0.2212
    107  N         15.0210   14.2860    5.0420 N.am  302  GLU302     -0.1979
    108  CA        14.3310   15.4400    5.6150 C.3   302  GLU302      0.1602
    109  C         13.6880   16.3160    4.5270 C.2   302  GLU302      0.2287
    110  O         12.6360   16.9150    4.7580 O.2   302  GLU302     -0.2864
    111  CB        15.2770   16.2860    6.4760 C.3   302  GLU302      0.0415
    112  CG        16.0970   15.5050    7.5440 C.3   302  GLU302      0.1163
    113  CD        15.2970   14.5110    8.4090 C.2   302  GLU302      0.3649
    114  OE1       14.0820   14.6970    8.6510 O.co2 302  GLU302     -0.2457
    115  OE2       15.9120   13.5190    8.8690 O.co2 302  GLU302     -0.2457
    116  N         10.3210   14.7860    3.4060 N.3   305  HIS305     -0.1241
    117  CA         9.2690   15.0470    4.3880 C.3   305  HIS305      0.1621
    118  C          8.4350   16.2910    4.0540 C.2   305  HIS305      0.2264
    119  O          7.2960   16.4160    4.5180 O.2   305  HIS305     -0.2867
    120  CB         9.8660   15.2260    5.7840 C.3   305  HIS305      0.0745
    121  CG         9.9340   13.9720    6.5970 C.ar  305  HIS305      0.0817
    122  ND1        8.8520   13.1250    6.7530 N.ar  305  HIS305     -0.2268
    123  CD2       10.9310   13.4460    7.3480 C.ar  305  HIS305      0.1154
    124  CE1        9.1930   12.1230    7.5440 C.ar  305  HIS305      0.1986
    125  NE2       10.4500   12.2910    7.9180 N.ar  305  HIS305     -0.2212
    126  N          6.9510    8.1180    7.9520 N.3   324  GLU324     -0.1245
    127  CA         8.3230    7.6320    8.0080 C.3   324  GLU324      0.1567
    128  C          8.6010    6.5080    7.0150 C.2   324  GLU324      0.2260
    129  O          9.6020    6.5610    6.3120 O.2   324  GLU324     -0.2867
    130  CB         8.6970    7.1790    9.4190 C.3   324  GLU324      0.0388
    131  CG         8.7290    8.3350   10.4260 C.3   324  GLU324      0.1160
    132  CD         9.5930    9.5170    9.9820 C.2   324  GLU324      0.3649
    133  OE1       10.5360    9.3290    9.1850 O.co2 324  GLU324     -0.2457
    134  OE2        9.3450   10.6410   10.4600 O.co2 324  GLU324     -0.2457
    135  N         11.1890    7.1850    3.9910 N.3   328  VAL328     -0.1245
    136  CA        12.3530    6.3120    3.8080 C.3   328  VAL328      0.1561
    137  C         12.3340    5.6970    2.3980 C.2   328  VAL328      0.2260
    138  O         13.3600    5.6280    1.7250 O.2   328  VAL328     -0.2867
    139  CB        12.4200    5.2060    4.8790 C.3   328  VAL328      0.0252
    140  CG1       13.5610    4.1940    4.5590 C.3   328  VAL328      0.0019
    141  CG2       12.6450    5.8170    6.2750 C.3   328  VAL328      0.0019
    142  N          6.4930    7.7120   23.4490 N.3   376  MET376     -0.1230
    143  CA         6.6600    8.0710   22.0390 C.3   376  MET376      0.1702
    144  C          8.1330    8.0610   21.6670 C.2   376  MET376      0.2592
    145  O          8.4860    7.8120   20.5210 O.2   376  MET376     -0.2718
    146  CB         6.0520    9.4500   21.7220 C.3   376  MET376      0.0401
    147  CG         4.5910    9.3980   21.2940 C.3   376  MET376      0.0596
    148  SD         4.2410    8.1180   20.0700 S.3   376  MET376     -0.1393
    149  CE         5.3080    8.6100   18.7120 C.3   376  MET376      0.0692
    150  N          8.9990    8.3340   22.6380 N.am  377  GLU377     -0.1979
    151  CA        10.4310    8.3830   22.3610 C.3   377  GLU377      0.1602
    152  C         10.9870    7.0030   22.0130 C.2   377  GLU377      0.2287
    153  O         12.0550    6.9070   21.4060 O.2   377  GLU377     -0.2864
    154  CB        11.2000    8.9810   23.5480 C.3   377  GLU377      0.0415
    155  CG        11.0990   10.5160   23.5800 C.3   377  GLU377      0.1163
    156  CD        11.8280   11.1470   24.7480 C.2   377  GLU377      0.3649
    157  OE1       12.3920   10.4000   25.5800 O.co2 377  GLU377     -0.2457
    158  OE2       11.8170   12.3940   24.8450 O.co2 377  GLU377     -0.2457
    159  N         10.0830    5.0770   17.6490 N.3   380  TYR380     -0.1241
    160  CA        10.7560    5.3140   16.3750 C.3   380  TYR380      0.1605
    161  C         11.6930    4.1600   16.0600 C.2   380  TYR380      0.2264
    162  O         12.9050    4.2560   16.2330 O.2   380  TYR380     -0.2867
    163  CB        11.4940    6.6680   16.4110 C.3   380  TYR380      0.0534
    164  CG        10.4980    7.8230   16.3700 C.ar  380  TYR380     -0.0201
    165  CD1        9.7040    8.1270   17.4810 C.ar  380  TYR380     -0.0009
    166  CD2       10.3200    8.5750   15.2130 C.ar  380  TYR380     -0.0009
    167  CE1        8.7720    9.1460   17.4440 C.ar  380  TYR380      0.0417
    168  CE2        9.3880    9.6090   15.1680 C.ar  380  TYR380      0.0417
    169  CZ         8.6170    9.8830   16.2810 C.ar  380  TYR380      0.1957
    170  OH         7.6840   10.8880   16.2370 O.3   380  TYR380     -0.2866
    171  N         10.1350    2.2650   10.5150 N.3   385  TYR385     -0.1241
    172  CA        10.8960    2.9330    9.4570 C.3   385  TYR385      0.1605
    173  C         11.2220    2.0120    8.2790 C.2   385  TYR385      0.2264
    174  O         10.9010    2.3140    7.1140 O.2   385  TYR385     -0.2867
    175  CB        12.2040    3.4870   10.0330 C.3   385  TYR385      0.0534
    176  CG        12.0400    4.8470   10.6440 C.ar  385  TYR385     -0.0201
    177  CD1       11.2600    5.0220   11.7890 C.ar  385  TYR385     -0.0009
    178  CD2       12.6330    5.9690   10.0630 C.ar  385  TYR385     -0.0009
    179  CE1       11.0830    6.2720   12.3500 C.ar  385  TYR385      0.0417
    180  CE2       12.4530    7.2370   10.6180 C.ar  385  TYR385      0.0417
    181  CZ        11.6850    7.3780   11.7590 C.ar  385  TYR385      0.1957
    182  OH        11.5050    8.6370   12.3000 O.3   385  TYR385     -0.2866
    183  N         16.3810    8.6740   26.1670 N.3   839  MET839     -0.1245
    184  CA        16.2240    8.2080   24.8040 C.3   839  MET839      0.1570
    185  C         17.4840    7.4800   24.3420 C.2   839  MET839      0.2261
    186  O         17.4150    6.3770   23.7800 O.2   839  MET839     -0.2867
    187  CB        15.9050    9.3770   23.8730 C.3   839  MET839      0.0387
    188  CG        15.4460    8.9490   22.5180 C.3   839  MET839      0.0595
    189  SD        14.7790   10.3800   21.6640 S.3   839  MET839     -0.1393
    190  CE        14.5430    9.6510   20.0530 C.3   839  MET839      0.0692
@<TRIPOS>BOND
     1   138   137    2
     2    83    84    1
     3   137   136    1
     4    88    87    1
     5    84    87    1
     6    84    85    1
     7    97    98    1
     8   116   117    1
     9    87    89    1
    10    86    85    2
    11    85    90   am
    12   136   135    1
    13   136   139    1
    14    98    99    1
    15    98   101    1
    16    72    73    1
    17   118   117    1
    18   118   119    2
    19   100    99    2
    20   117   120    1
    21    99   107   am
    22   109   110    2
    23   109   108    1
    24   140   139    1
    25    90    91    1
    26   139   141    1
    27    74    73    1
    28    74    75    2
    29   101   102    1
    30   107   108    1
    31    73    76    1
    32    92    93    2
    33    92    91    1
    34   108   111    1
    35    91    94    1
    36   120   121    1
    37   103   102   ar
    38   103   105   ar
    39   102   104   ar
    40   129   128    2
    41    76    77    1
    42   111   112    1
    43   121   122   ar
    44   121   123   ar
    45   105   106   ar
    46   122   124   ar
    47    94    96    1
    48    94    95    1
    49   104   106   ar
    50   128   127    1
    51   174   173    2
    52   123   125   ar
    53   112   113    1
    54   124   125   ar
    55    77    78    1
    56    78    79    1
    57   126   127    1
    58   127   130    1
    59   173   172    1
    60   113   114   ar
    61   113   115   ar
    62    67    68    1
    63    67    64    1
    64    66    65    2
    65    68    69    1
    66    81    80    1
    67   133   132   ar
    68    79    80    2
    69    64    65    1
    70    64    63    1
    71   130   131    1
    72   172   175    1
    73   172   171    1
    74    80    82    1
    75    69    71   ar
    76    69    70   ar
    77   132   131    1
    78   132   134   ar
    79   175   176    1
    80   178   180   ar
    81   178   176   ar
    82    54    51    1
    83    63    57   am
    84    58    57    2
    85   180   181   ar
    86   176   177   ar
    87    57    56    1
    88    55    52   am
    89    55    56    1
    90    51    52    1
    91    51    50    1
    92   181   182    1
    93   181   179   ar
    94   177   179   ar
    95    52    53    2
    96    56    59    1
    97    49    48    2
    98    50    48   am
    99    48    47    1
   100    47    46    1
   101    62    61    1
   102    59    60    1
   103    46    41   am
   104    61    60    1
   105    24    23   ar
   106    25    23   ar
   107    23    22    1
   108    41    42    2
   109    41    40    1
   110   168   166   ar
   111   168   169   ar
   112   166   164   ar
   113    45    43    1
   114    43    40    1
   115    43    44    1
   116    22    21    1
   117    40    39    1
   118   161   162    2
   119   161   160    1
   120    21    18    1
   121   170   169    1
   122   169   167   ar
   123   164   163    1
   124   164   165   ar
   125   160   163    1
   126   160   159    1
   127    15    14    2
   128    39    33   am
   129    16    14   am
   130   167   165   ar
   131    14    13    1
   132    18    17    1
   133    18    19    1
   134    33    34    2
   135    33    32    1
   136    19    20    2
   137    19    26   am
   138   149   148    1
   139    27    30    1
   140    27    26    1
   141    27    28    1
   142    13    12    1
   143     9    12    1
   144     9    10    1
   145     9     8    1
   146    31    32    1
   147    29    28    2
   148    32    35    1
   149    10    11    2
   150   190   189    1
   151   148   147    1
   152    35    36    1
   153   145   144    2
   154   147   146    1
   155   153   152    2
   156   189   188    1
   157   144   143    1
   158   144   150   am
   159   146   143    1
   160    36    37    2
   161    36    38   am
   162   152   151    1
   163   143   142    1
   164   151   150    1
   165   151   154    1
   166   188   187    1
   167     7     5    1
   168   154   155    1
   169   155   156    1
   170     2     5    1
   171     2     1    1
   172     2     3    1
   173   186   185    2
   174   187   184    1
   175     5     6    1
   176     3     4    2
   177   185   184    1
   178   156   158   ar
   179   156   157   ar
   180   184   183    1
