@<TRIPOS>MOLECULE
tmp/4zw6A00.pdb
 186 175 0 0 0
SMALL
GASTEIGER

@<TRIPOS>ATOM
      1  N         90.6980  126.6110  142.7040 N.3   110  THR110     -0.1218
      2  CA        89.3150  126.6860  142.2710 C.3   110  THR110      0.1862
      3  C         88.7650  128.0060  142.8110 C.2   110  THR110      0.2287
      4  O         89.1160  128.4100  143.9210 O.2   110  THR110     -0.2866
      5  CB        88.5030  125.4710  142.7750 C.3   110  THR110      0.1770
      6  OG1       88.5290  125.4510  144.2100 O.3   110  THR110     -0.2211
      7  CG2       89.1270  124.1790  142.2840 C.3   110  THR110      0.0375
      8  N         89.2080  129.9300  138.1800 N.3   122  GLN122     -0.1245
      9  CA        88.7040  128.6970  137.5840 C.3   122  GLN122      0.1566
     10  C         87.3190  128.4330  138.1460 C.2   122  GLN122      0.2260
     11  O         87.1780  128.1880  139.3450 O.2   122  GLN122     -0.2867
     12  CB        89.6300  127.5150  137.8660 C.3   122  GLN122      0.0367
     13  CG        89.0330  126.1520  137.4850 C.3   122  GLN122      0.0905
     14  CD        88.6860  126.0530  136.0100 C.2   122  GLN122      0.2608
     15  OE1       89.3210  126.6840  135.1700 O.2   122  GLN122     -0.2717
     16  NE2       87.6670  125.2520  135.6900 N.am  122  GLN122     -0.0878
     17  N         84.4850  126.4090  136.3900 N.3   124  GLU124     -0.1231
     18  CA        83.8850  125.0780  136.1890 C.3   124  GLU124      0.1699
     19  C         84.4310  124.1190  137.2560 C.2   124  GLU124      0.2592
     20  O         85.6240  124.1300  137.5310 O.2   124  GLU124     -0.2718
     21  CB        84.1740  124.5320  134.7840 C.3   124  GLU124      0.0402
     22  CG        83.3930  123.2580  134.4730 C.3   124  GLU124      0.1161
     23  CD        83.5020  122.8060  133.0170 C.2   124  GLU124      0.3649
     24  OE1       84.3480  123.3430  132.2680 O.co2 124  GLU124     -0.2457
     25  OE2       82.7470  121.8900  132.6300 O.co2 124  GLU124     -0.2457
     26  N         83.5750  123.3160  137.8880 N.am  125  ALA125     -0.1980
     27  CA        82.1340  123.3230  137.6620 C.3   125  ALA125      0.1597
     28  C         81.4150  124.2060  138.6660 C.2   125  ALA125      0.2287
     29  O         80.4270  124.8810  138.3380 O.2   125  ALA125     -0.2864
     30  CB        81.5830  121.8810  137.7230 C.3   125  ALA125      0.0319
     31  N         83.0470  126.5240  140.9270 N.3   127  GLY127     -0.1225
     32  CA        83.9870  127.4750  141.5010 C.3   127  GLY127      0.1811
     33  C         83.4750  128.9140  141.5980 C.2   127  GLY127      0.2280
     34  O         83.9970  129.7090  142.3760 O.2   127  GLY127     -0.2866
     35  N         94.7930  122.8320  137.6870 N.3   263  ASN263     -0.1225
     36  CA        94.4480  121.4370  138.0420 C.3   263  ASN263      0.1785
     37  C         94.4030  120.4830  136.8600 C.2   263  ASN263      0.2597
     38  O         94.6050  119.2620  137.0220 O.2   263  ASN263     -0.2718
     39  CB        93.1050  121.3920  138.7790 C.3   263  ASN263      0.1169
     40  CG        93.2220  121.9080  140.1920 C.2   263  ASN263      0.2627
     41  OD1       94.3180  121.9780  140.7280 O.2   263  ASN263     -0.2716
     42  ND2       92.1060  122.2790  140.7990 N.am  263  ASN263     -0.0877
     43  N         94.1220  121.0270  135.6750 N.am  264  VAL264     -0.1966
     44  CA        93.9520  120.2090  134.4710 C.3   264  VAL264      0.1727
     45  C         94.7310  120.8570  133.3230 C.2   264  VAL264      0.2617
     46  O         95.6250  121.6700  133.5670 O.2   264  VAL264     -0.2715
     47  CB        92.4610  120.0370  134.1220 C.3   264  VAL264      0.0290
     48  CG1       91.7510  119.2690  135.2480 C.3   264  VAL264      0.0023
     49  CG2       91.7630  121.4150  133.8890 C.3   264  VAL264      0.0023
     50  N         94.4350  120.4810  132.0850 N.am  265  GLY265     -0.1940
     51  CA        95.1140  121.0790  130.9460 C.3   265  GLY265      0.2014
     52  C         94.7000  122.5290  130.6670 C.2   265  GLY265      0.2639
     53  O         95.5690  123.4100  130.5590 O.2   265  GLY265     -0.2714
     54  N         93.3950  122.7830  130.5410 N.am  266  ALA266     -0.1963
     55  CA        92.8930  124.1500  130.2850 C.3   266  ALA266      0.1728
     56  C         91.3790  124.2700  130.4680 C.2   266  ALA266      0.2616
     57  O         90.6960  123.2870  130.7700 O.2   266  ALA266     -0.2715
     58  CB        93.2690  124.6090  128.8770 C.3   266  ALA266      0.0334
     59  N         90.8710  125.4800  130.2390 N.am  267  MET267     -0.1963
     60  CA        89.4790  125.8070  130.4990 C.3   267  MET267      0.1736
     61  C         88.9590  126.7840  129.4380 C.2   267  MET267      0.2616
     62  O         89.6350  127.7780  129.0940 O.2   267  MET267     -0.2715
     63  CB        89.3220  126.3980  131.9110 C.3   267  MET267      0.0427
     64  CG        87.9040  126.8040  132.2510 C.3   267  MET267      0.0599
     65  SD        86.7220  125.4340  132.1690 S.3   267  MET267     -0.1393
     66  CE        85.2140  126.3330  131.7260 C.3   267  MET267      0.0692
     67  N         87.7440  126.5210  128.9580 N.am  268  GLU268     -0.1977
     68  CA        87.1660  127.2230  127.8060 C.3   268  GLU268      0.1602
     69  C         86.3880  128.5180  128.1210 C.2   268  GLU268      0.2287
     70  O         85.4010  128.8260  127.4480 O.2   268  GLU268     -0.2864
     71  CB        86.2390  126.2570  127.0380 C.3   268  GLU268      0.0415
     72  CG        84.8530  125.9710  127.6710 C.3   268  GLU268      0.1163
     73  CD        84.8120  124.7040  128.5120 C.2   268  GLU268      0.3649
     74  OE1       85.8970  124.2430  128.9500 O.co2 268  GLU268     -0.2457
     75  OE2       83.6890  124.1570  128.7100 O.co2 268  GLU268     -0.2457
     76  N        100.4800  118.0330  122.4240 N.3   294  ARG294     -0.1245
     77  CA        99.6770  118.3790  123.6010 C.3   294  ARG294      0.1563
     78  C         99.0310  119.7750  123.4830 C.2   294  ARG294      0.2260
     79  O         97.8510  119.9660  123.7870 O.2   294  ARG294     -0.2867
     80  CB       100.5440  118.3060  124.8610 C.3   294  ARG294      0.0307
     81  CG        99.8420  118.7810  126.1340 C.3   294  ARG294      0.0489
     82  CD        98.7010  117.8490  126.5600 C.3   294  ARG294      0.2205
     83  NE        98.0640  118.3340  127.7860 N.pl3 294  ARG294     -0.0865
     84  CZ        97.0120  117.7590  128.3610 C.cat 294  ARG294      0.5346
     85  NH1       96.4750  116.6740  127.8100 N.pl3 294  ARG294      0.1354
     86  NH2       96.4990  118.2640  129.4810 N.pl3 294  ARG294      0.1354
     87  N         96.3900  119.8060  120.7520 N.3   297  THR297     -0.1203
     88  CA        95.1690  119.2260  121.3010 C.3   297  THR297      0.1994
     89  C         94.4010  120.1530  122.2490 C.2   297  THR297      0.2617
     90  O         93.1690  120.2700  122.1600 O.2   297  THR297     -0.2717
     91  CB        95.4930  117.9180  122.0500 C.3   297  THR297      0.1784
     92  OG1       95.8110  116.9130  121.0830 O.3   297  THR297     -0.2211
     93  CG2       94.3090  117.4560  122.9040 C.3   297  THR297      0.0376
     94  N         95.1090  120.8040  123.1610 N.am  298  VAL298     -0.1979
     95  CA        94.4000  121.5020  124.2170 C.3   298  VAL298      0.1595
     96  C         93.9000  122.8550  123.6970 C.2   298  VAL298      0.2287
     97  O         92.7510  123.2400  123.9580 O.2   298  VAL298     -0.2864
     98  CB        95.2770  121.6300  125.4580 C.3   298  VAL298      0.0276
     99  CG1       94.5920  122.4710  126.5080 C.3   298  VAL298      0.0022
    100  CG2       95.5090  120.2060  126.0280 C.3   298  VAL298      0.0022
    101  N         91.0660  121.8970  121.5200 N.3   301  HIS301     -0.1226
    102  CA        89.9410  121.5030  122.3400 C.3   301  HIS301      0.1752
    103  C         89.2060  122.7180  122.9120 C.2   301  HIS301      0.2595
    104  O         87.9910  122.8290  122.7750 O.2   301  HIS301     -0.2718
    105  CB        90.4080  120.5760  123.4640 C.3   301  HIS301      0.0759
    106  CG        89.3240  120.1510  124.4040 C.ar  301  HIS301      0.0818
    107  ND1       88.7910  118.8790  124.4010 N.ar  301  HIS301     -0.2268
    108  CD2       88.6980  120.8210  125.4020 C.ar  301  HIS301      0.1154
    109  CE1       87.8830  118.7820  125.3550 C.ar  301  HIS301      0.1986
    110  NE2       87.8050  119.9420  125.9770 N.ar  301  HIS301     -0.2212
    111  N         89.9240  123.6370  123.5430 N.am  302  GLU302     -0.1979
    112  CA        89.2250  124.7850  124.1440 C.3   302  GLU302      0.1602
    113  C         88.5660  125.6560  123.0830 C.2   302  GLU302      0.2287
    114  O         87.4940  126.2220  123.3170 O.2   302  GLU302     -0.2864
    115  CB        90.1630  125.6310  125.0010 C.3   302  GLU302      0.0415
    116  CG        90.9650  124.8510  126.0500 C.3   302  GLU302      0.1163
    117  CD        90.1250  123.8850  126.9080 C.2   302  GLU302      0.3649
    118  OE1       88.8890  124.0650  127.0600 O.co2 302  GLU302     -0.2457
    119  OE2       90.7220  122.9270  127.4410 O.co2 302  GLU302     -0.2457
    120  N         85.1880  124.1170  121.8870 N.3   305  HIS305     -0.1241
    121  CA        84.1650  124.3660  122.9020 C.3   305  HIS305      0.1621
    122  C         83.3030  125.5880  122.5530 C.2   305  HIS305      0.2264
    123  O         82.1440  125.6680  122.9700 O.2   305  HIS305     -0.2867
    124  CB        84.7990  124.5850  124.2800 C.3   305  HIS305      0.0745
    125  CG        84.8340  123.3620  125.1510 C.ar  305  HIS305      0.0817
    126  ND1       83.7430  122.5420  125.3360 N.ar  305  HIS305     -0.2268
    127  CD2       85.8230  122.8510  125.9240 C.ar  305  HIS305      0.1154
    128  CE1       84.0660  121.5530  126.1580 C.ar  305  HIS305      0.1986
    129  NE2       85.3230  121.7210  126.5310 N.ar  305  HIS305     -0.2212
    130  N         81.7240  117.5200  126.5050 N.3   324  GLU324     -0.1245
    131  CA        83.1130  117.0360  126.6020 C.3   324  GLU324      0.1567
    132  C         83.4170  115.9120  125.6040 C.2   324  GLU324      0.2260
    133  O         84.4010  115.9900  124.8910 O.2   324  GLU324     -0.2867
    134  CB        83.4470  116.5910  128.0300 C.3   324  GLU324      0.0388
    135  CG        83.4480  117.7530  129.0460 C.3   324  GLU324      0.1160
    136  CD        84.3190  118.9690  128.6090 C.2   324  GLU324      0.3649
    137  OE1       85.2580  118.8090  127.8050 O.co2 324  GLU324     -0.2457
    138  OE2       84.0690  120.0850  129.0970 O.co2 324  GLU324     -0.2457
    139  N         86.0490  116.5840  122.5520 N.3   328  VAL328     -0.1245
    140  CA        87.2040  115.7000  122.3330 C.3   328  VAL328      0.1561
    141  C         87.1310  115.1110  120.9200 C.2   328  VAL328      0.2260
    142  O         88.1100  115.0820  120.2070 O.2   328  VAL328     -0.2867
    143  CB        87.2750  114.5690  123.3940 C.3   328  VAL328      0.0252
    144  CG1       88.4100  113.5370  123.0590 C.3   328  VAL328      0.0019
    145  CG2       87.4890  115.1580  124.7760 C.3   328  VAL328      0.0019
    146  N         83.6560  117.5450  141.0170 N.3   377  GLU377     -0.1245
    147  CA        85.0350  117.4700  140.5750 C.3   377  GLU377      0.1567
    148  C         85.3720  116.0150  140.1900 C.2   377  GLU377      0.2260
    149  O         86.2090  115.7800  139.3120 O.2   377  GLU377     -0.2867
    150  CB        85.9620  118.0450  141.6600 C.3   377  GLU377      0.0388
    151  CG        85.4450  119.4050  142.2100 C.3   377  GLU377      0.1160
    152  CD        86.4780  120.1980  143.0030 C.2   377  GLU377      0.3649
    153  OE1       87.4060  119.5900  143.5790 O.co2 377  GLU377     -0.2457
    154  OE2       86.3610  121.4390  143.0660 O.co2 377  GLU377     -0.2457
    155  N         84.6230  114.4680  136.1130 N.3   380  TYR380     -0.1241
    156  CA        85.4390  114.7160  134.9140 C.3   380  TYR380      0.1605
    157  C         86.3980  113.5660  134.6440 C.2   380  TYR380      0.2264
    158  O         87.6000  113.6310  134.9380 O.2   380  TYR380     -0.2867
    159  CB        86.1830  116.0530  135.0500 C.3   380  TYR380      0.0534
    160  CG        85.1960  117.2070  134.9850 C.ar  380  TYR380     -0.0201
    161  CD1       84.3580  117.4820  136.0630 C.ar  380  TYR380     -0.0009
    162  CD2       85.0560  117.9700  133.8350 C.ar  380  TYR380     -0.0009
    163  CE1       83.4120  118.5150  136.0080 C.ar  380  TYR380      0.0417
    164  CE2       84.1100  119.0160  133.7730 C.ar  380  TYR380      0.0417
    165  CZ        83.2930  119.2690  134.8660 C.ar  380  TYR380      0.1957
    166  OH        82.3440  120.2780  134.8370 O.3   380  TYR380     -0.2866
    167  N         84.9180  111.6860  129.0990 N.3   385  TYR385     -0.1241
    168  CA        85.6460  112.3550  128.0220 C.3   385  TYR385      0.1605
    169  C         85.9580  111.4420  126.8280 C.2   385  TYR385      0.2264
    170  O         85.6520  111.7690  125.6740 O.2   385  TYR385     -0.2867
    171  CB        86.9690  112.9420  128.5600 C.3   385  TYR385      0.0534
    172  CG        86.7720  114.3120  129.1870 C.ar  385  TYR385     -0.0201
    173  CD1       86.0020  114.4590  130.3360 C.ar  385  TYR385     -0.0009
    174  CD2       87.3750  115.4470  128.6340 C.ar  385  TYR385     -0.0009
    175  CE1       85.8040  115.7390  130.9210 C.ar  385  TYR385      0.0417
    176  CE2       87.1780  116.7220  129.2060 C.ar  385  TYR385      0.0417
    177  CZ        86.3930  116.8480  130.3400 C.ar  385  TYR385      0.1957
    178  OH        86.2060  118.1020  130.8880 O.3   385  TYR385     -0.2866
    179  N         91.1550  118.0840  144.5850 N.3   839  MET839     -0.1245
    180  CA        91.0460  117.5980  143.2170 C.3   839  MET839      0.1570
    181  C         92.3190  116.8610  142.7720 C.2   839  MET839      0.2261
    182  O         92.2670  115.7670  142.1650 O.2   839  MET839     -0.2867
    183  CB        90.7430  118.7500  142.2610 C.3   839  MET839      0.0387
    184  CG        90.5120  118.2650  140.8450 C.3   839  MET839      0.0595
    185  SD        89.8870  119.5410  139.7490 S.3   839  MET839     -0.1393
    186  CE        89.7090  118.5960  138.2420 C.3   839  MET839      0.0692
@<TRIPOS>BOND
     1   142   141    2
     2    87    88    1
     3   141   140    1
     4    92    91    1
     5    88    91    1
     6    88    89    1
     7   101   102    1
     8   120   121    1
     9    91    93    1
    10    90    89    2
    11    89    94   am
    12   140   139    1
    13   140   143    1
    14   102   103    1
    15   102   105    1
    16    76    77    1
    17   122   121    1
    18   122   123    2
    19   104   103    2
    20   121   124    1
    21   103   111   am
    22   144   143    1
    23   113   114    2
    24   113   112    1
    25    94    95    1
    26   143   145    1
    27   105   106    1
    28    78    77    1
    29    78    79    2
    30   111   112    1
    31    77    80    1
    32    96    97    2
    33    96    95    1
    34   112   115    1
    35    95    98    1
    36   124   125    1
    37   107   106   ar
    38   107   109   ar
    39   106   108   ar
    40    80    81    1
    41   133   132    2
    42   115   116    1
    43   125   126   ar
    44   125   127   ar
    45   126   128   ar
    46   109   110   ar
    47   108   110   ar
    48    98   100    1
    49    98    99    1
    50   132   131    1
    51   170   169    2
    52   127   129   ar
    53   116   117    1
    54    81    82    1
    55   128   129   ar
    56   130   131    1
    57    82    83    1
    58   131   134    1
    59   169   168    1
    60   117   118   ar
    61   117   119   ar
    62    71    72    1
    63    71    68    1
    64    70    69    2
    65    72    73    1
    66    83    84    2
    67   137   136   ar
    68    68    69    1
    69    68    67    1
    70    85    84    1
    71   168   171    1
    72   168   167    1
    73   134   135    1
    74    84    86    1
    75    73    75   ar
    76    73    74   ar
    77   171   172    1
    78   136   135    1
    79   136   138   ar
    80   174   172   ar
    81   174   176   ar
    82    58    55    1
    83    67    61   am
    84    62    61    2
    85   172   173   ar
    86   176   177   ar
    87    61    60    1
    88    59    56   am
    89    59    60    1
    90    55    56    1
    91    55    54    1
    92   173   175   ar
    93   177   178    1
    94   177   175   ar
    95    56    57    2
    96    60    63    1
    97    54    52   am
    98    53    52    2
    99    52    51    1
   100    51    50    1
   101    66    65    1
   102    63    64    1
   103    50    45   am
   104    65    64    1
   105    24    23   ar
   106    25    23   ar
   107    23    22    1
   108    45    46    2
   109    45    44    1
   110   164   162   ar
   111   164   165   ar
   112   162   160   ar
   113    49    47    1
   114    47    44    1
   115    47    48    1
   116    44    43    1
   117    22    21    1
   118   157   156    1
   119   157   158    2
   120    21    18    1
   121   166   165    1
   122   165   163   ar
   123   156   159    1
   124   156   155    1
   125   160   159    1
   126   160   161   ar
   127    15    14    2
   128    43    37   am
   129    16    14   am
   130   163   161   ar
   131    14    13    1
   132    18    17    1
   133    18    19    1
   134    37    38    2
   135    37    36    1
   136    19    20    2
   137    19    26   am
   138    13    12    1
   139     9    12    1
   140     9    10    1
   141     9     8    1
   142    27    30    1
   143    27    26    1
   144    27    28    1
   145    35    36    1
   146    36    39    1
   147    10    11    2
   148   186   185    1
   149    29    28    2
   150    39    40    1
   151   149   148    2
   152   185   184    1
   153   148   147    1
   154    40    41    2
   155    40    42   am
   156   147   146    1
   157   147   150    1
   158   184   183    1
   159    31    32    1
   160    32    33    1
   161    33    34    2
   162   150   151    1
   163   182   181    2
   164   151   152    1
   165   183   180    1
   166     2     1    1
   167     2     5    1
   168     2     3    1
   169     7     5    1
   170   181   180    1
   171     5     6    1
   172     3     4    2
   173   152   154   ar
   174   152   153   ar
   175   180   179    1
