@<TRIPOS>MOLECULE
tmp/4zw7A00.pdb
 190 180 0 0 0
SMALL
GASTEIGER

@<TRIPOS>ATOM
      1  N         90.9280  126.3080  142.5140 N.3   109  THR109     -0.1218
      2  CA        89.5500  126.4090  142.0600 C.3   109  THR109      0.1862
      3  C         88.9990  127.7390  142.5940 C.2   109  THR109      0.2287
      4  O         89.4120  128.1980  143.6580 O.2   109  THR109     -0.2866
      5  CB        88.6940  125.2240  142.5460 C.3   109  THR109      0.1770
      6  OG1       88.7620  125.1470  143.9780 O.3   109  THR109     -0.2211
      7  CG2       89.1970  123.9050  141.9520 C.3   109  THR109      0.0375
      8  N         89.3760  129.6390  138.0030 N.3   121  GLN121     -0.1245
      9  CA        88.9420  128.3820  137.3970 C.3   121  GLN121      0.1566
     10  C         87.5520  128.0950  137.9460 C.2   121  GLN121      0.2260
     11  O         87.3910  127.8390  139.1390 O.2   121  GLN121     -0.2867
     12  CB        89.9030  127.2300  137.6930 C.3   121  GLN121      0.0367
     13  CG        89.3720  125.8350  137.2930 C.3   121  GLN121      0.0905
     14  CD        88.9250  125.7730  135.8370 C.2   121  GLN121      0.2608
     15  OE1       89.5410  126.3820  134.9570 O.2   121  GLN121     -0.2717
     16  NE2       87.8420  125.0420  135.5750 N.am  121  GLN121     -0.0878
     17  N         84.8060  126.0980  136.2090 N.3   123  GLU123     -0.1231
     18  CA        84.1700  124.7930  135.9820 C.3   123  GLU123      0.1699
     19  C         84.6260  123.8130  137.0740 C.2   123  GLU123      0.2592
     20  O         85.7970  123.8170  137.4350 O.2   123  GLU123     -0.2718
     21  CB        84.4940  124.2430  134.5890 C.3   123  GLU123      0.0402
     22  CG        83.6190  123.0480  134.2370 C.3   123  GLU123      0.1161
     23  CD        83.8460  122.4870  132.8480 C.2   123  GLU123      0.3649
     24  OE1       84.7350  122.9770  132.1190 O.co2 123  GLU123     -0.2457
     25  OE2       83.1120  121.5450  132.4830 O.co2 123  GLU123     -0.2457
     26  N         83.7280  122.9970  137.6310 N.am  124  ALA124     -0.1980
     27  CA        82.2890  122.9960  137.3360 C.3   124  ALA124      0.1597
     28  C         81.5060  123.9630  138.2280 C.2   124  ALA124      0.2287
     29  O         80.6350  124.7190  137.7570 O.2   124  ALA124     -0.2864
     30  CB        81.7250  121.5770  137.4870 C.3   124  ALA124      0.0319
     31  N         95.0010  122.6560  137.4630 N.3   262  ASN262     -0.1225
     32  CA        94.6340  121.2860  137.8660 C.3   262  ASN262      0.1785
     33  C         94.6100  120.2990  136.7120 C.2   262  ASN262      0.2597
     34  O         94.8050  119.0970  136.9110 O.2   262  ASN262     -0.2718
     35  CB        93.2680  121.2660  138.5640 C.3   262  ASN262      0.1169
     36  CG        93.3460  121.7870  139.9740 C.2   262  ASN262      0.2627
     37  OD1       94.4110  121.7600  140.5950 O.2   262  ASN262     -0.2716
     38  ND2       92.2280  122.2930  140.4880 N.am  262  ASN262     -0.0877
     39  N         94.3460  120.8120  135.5110 N.am  263  VAL263     -0.1966
     40  CA        94.1840  119.9760  134.3230 C.3   263  VAL263      0.1727
     41  C         94.9770  120.6060  133.1730 C.2   263  VAL263      0.2617
     42  O         95.9050  121.3720  133.4130 O.2   263  VAL263     -0.2715
     43  CB        92.6930  119.8090  133.9610 C.3   263  VAL263      0.0290
     44  CG1       91.9750  119.0530  135.0840 C.3   263  VAL263      0.0023
     45  CG2       92.0050  121.1670  133.7170 C.3   263  VAL263      0.0023
     46  N         94.6260  120.2940  131.9350 N.am  264  GLY264     -0.1940
     47  CA        95.3330  120.8460  130.7910 C.3   264  GLY264      0.2014
     48  C         94.9430  122.2790  130.4320 C.2   264  GLY264      0.2639
     49  O         95.8190  123.1350  130.2680 O.2   264  GLY264     -0.2714
     50  N         93.6410  122.5400  130.2990 N.am  265  ALA265     -0.1963
     51  CA        93.1460  123.9030  130.0430 C.3   265  ALA265      0.1728
     52  C         91.6380  124.0080  130.2290 C.2   265  ALA265      0.2616
     53  O         90.9610  123.0130  130.5030 O.2   265  ALA265     -0.2715
     54  CB        93.5180  124.3640  128.6340 C.3   265  ALA265      0.0334
     55  N         91.1240  125.2190  130.0320 N.am  266  MET266     -0.1963
     56  CA        89.7280  125.5420  130.3090 C.3   266  MET266      0.1736
     57  C         89.1870  126.4900  129.2390 C.2   266  MET266      0.2616
     58  O         89.8580  127.4610  128.8750 O.2   266  MET266     -0.2715
     59  CB        89.5970  126.1870  131.6900 C.3   266  MET266      0.0427
     60  CG        88.1720  126.5890  132.0210 C.3   266  MET266      0.0599
     61  SD        87.0400  125.1690  131.9640 S.3   266  MET266     -0.1393
     62  CE        85.5520  126.0240  131.4150 C.3   266  MET266      0.0692
     63  N         87.9680  126.2370  128.7690 N.am  267  GLU267     -0.1977
     64  CA        87.4280  126.9380  127.6050 C.3   267  GLU267      0.1602
     65  C         86.6320  128.2320  127.9090 C.2   267  GLU267      0.2287
     66  O         85.6760  128.5390  127.2120 O.2   267  GLU267     -0.2864
     67  CB        86.5530  125.9690  126.7850 C.3   267  GLU267      0.0415
     68  CG        85.1390  125.6540  127.3360 C.3   267  GLU267      0.1163
     69  CD        85.1000  124.4480  128.2630 C.2   267  GLU267      0.3649
     70  OE1       86.1740  124.0590  128.7840 O.co2 267  GLU267     -0.2457
     71  OE2       83.9940  123.8730  128.4670 O.co2 267  GLU267     -0.2457
     72  N        100.7030  117.8910  122.0970 N.3   293  ARG293     -0.1245
     73  CA        99.9210  118.2330  123.2780 C.3   293  ARG293      0.1563
     74  C         99.2770  119.6170  123.1490 C.2   293  ARG293      0.2260
     75  O         98.0920  119.7820  123.4280 O.2   293  ARG293     -0.2867
     76  CB       100.7980  118.1790  124.5370 C.3   293  ARG293      0.0307
     77  CG       100.0810  118.6480  125.8000 C.3   293  ARG293      0.0489
     78  CD        98.9120  117.7140  126.1670 C.3   293  ARG293      0.2205
     79  NE        98.3110  118.1070  127.4420 N.pl3 293  ARG293     -0.0865
     80  CZ        97.2810  117.4980  128.0210 C.cat 293  ARG293      0.5346
     81  NH1       96.7050  116.4480  127.4400 N.pl3 293  ARG293      0.1354
     82  NH2       96.8210  117.9490  129.1810 N.pl3 293  ARG293      0.1354
     83  N         96.5900  119.6070  120.4150 N.3   296  THR296     -0.1203
     84  CA        95.3930  118.9950  120.9970 C.3   296  THR296      0.1994
     85  C         94.6390  119.9160  121.9430 C.2   296  THR296      0.2617
     86  O         93.4150  120.0570  121.8500 O.2   296  THR296     -0.2717
     87  CB        95.7190  117.7180  121.8010 C.3   296  THR296      0.1784
     88  OG1       96.7670  117.9940  122.7370 O.3   296  THR296     -0.2211
     89  CG2       96.1350  116.5880  120.8940 C.3   296  THR296      0.0376
     90  N         95.3520  120.5270  122.8800 N.am  297  VAL297     -0.1979
     91  CA        94.6640  121.2780  123.9150 C.3   297  VAL297      0.1595
     92  C         94.1530  122.6210  123.3970 C.2   297  VAL297      0.2287
     93  O         93.0240  123.0230  123.7020 O.2   297  VAL297     -0.2864
     94  CB        95.5630  121.4640  125.1390 C.3   297  VAL297      0.0276
     95  CG1       94.8490  122.2910  126.1720 C.3   297  VAL297      0.0022
     96  CG2       95.8750  120.0680  125.7320 C.3   297  VAL297      0.0022
     97  N         91.2140  121.6600  121.2360 N.3   300  HIS300     -0.1226
     98  CA        90.1230  121.2840  122.1200 C.3   300  HIS300      0.1752
     99  C         89.3940  122.4950  122.7150 C.2   300  HIS300      0.2595
    100  O         88.1740  122.5850  122.6140 O.2   300  HIS300     -0.2718
    101  CB        90.6460  120.3760  123.2350 C.3   300  HIS300      0.0759
    102  CG        89.5860  119.8830  124.1710 C.ar  300  HIS300      0.0818
    103  ND1       89.1390  118.5750  124.1730 N.ar  300  HIS300     -0.2268
    104  CD2       88.9110  120.5110  125.1640 C.ar  300  HIS300      0.1154
    105  CE1       88.2270  118.4280  125.1170 C.ar  300  HIS300      0.1986
    106  NE2       88.0750  119.5850  125.7340 N.ar  300  HIS300     -0.2212
    107  N         90.1120  123.4230  123.3430 N.am  301  GLU301     -0.1979
    108  CA        89.4180  124.5680  123.9460 C.3   301  GLU301      0.1602
    109  C         88.7680  125.4370  122.8530 C.2   301  GLU301      0.2287
    110  O         87.6960  126.0100  123.0730 O.2   301  GLU301     -0.2864
    111  CB        90.3590  125.4220  124.8090 C.3   301  GLU301      0.0415
    112  CG        91.1940  124.6630  125.8600 C.3   301  GLU301      0.1163
    113  CD        90.3840  123.7290  126.7700 C.2   301  GLU301      0.3649
    114  OE1       89.1550  123.9320  126.9670 O.co2 301  GLU301     -0.2457
    115  OE2       90.9900  122.7600  127.2900 O.co2 301  GLU301     -0.2457
    116  N         85.4240  123.9550  121.6580 N.3   304  HIS304     -0.1241
    117  CA        84.3940  124.2090  122.6690 C.3   304  HIS304      0.1621
    118  C         83.5550  125.4530  122.3760 C.2   304  HIS304      0.2264
    119  O         82.4150  125.5580  122.8510 O.2   304  HIS304     -0.2867
    120  CB        85.0250  124.3660  124.0510 C.3   304  HIS304      0.0745
    121  CG        84.9820  123.1200  124.8900 C.ar  304  HIS304      0.0817
    122  ND1       83.8730  122.3120  124.9660 N.ar  304  HIS304     -0.2268
    123  CD2       85.9230  122.5670  125.6870 C.ar  304  HIS304      0.1154
    124  CE1       84.1370  121.2900  125.7750 C.ar  304  HIS304      0.1986
    125  NE2       85.3630  121.4230  126.2200 N.ar  304  HIS304     -0.2212
    126  N         82.0820  117.2640  126.2710 N.3   323  GLU323     -0.1245
    127  CA        83.4530  116.7460  126.3180 C.3   323  GLU323      0.1567
    128  C         83.7190  115.6120  125.3170 C.2   323  GLU323      0.2260
    129  O         84.7320  115.6260  124.6170 O.2   323  GLU323     -0.2867
    130  CB        83.8100  116.3010  127.7450 C.3   323  GLU323      0.0388
    131  CG        83.7860  117.4620  128.7560 C.3   323  GLU323      0.1160
    132  CD        84.6600  118.6450  128.3350 C.2   323  GLU323      0.3649
    133  OE1       85.5640  118.4670  127.4810 O.co2 323  GLU323     -0.2457
    134  OE2       84.4680  119.7540  128.8760 O.co2 323  GLU323     -0.2457
    135  N         86.3120  116.3230  122.2460 N.3   327  VAL327     -0.1245
    136  CA        87.4610  115.4340  122.0550 C.3   327  VAL327      0.1561
    137  C         87.3960  114.8450  120.6400 C.2   327  VAL327      0.2260
    138  O         88.3950  114.8300  119.9280 O.2   327  VAL327     -0.2867
    139  CB        87.5170  114.3160  123.1090 C.3   327  VAL327      0.0252
    140  CG1       88.7170  113.3490  122.8290 C.3   327  VAL327      0.0019
    141  CG2       87.6430  114.9080  124.4900 C.3   327  VAL327      0.0019
    142  N         81.6550  116.8860  141.7610 N.3   375  MET375     -0.1230
    143  CA        81.8330  117.2370  140.3540 C.3   375  MET375      0.1702
    144  C         83.3140  117.2380  139.9800 C.2   375  MET375      0.2592
    145  O         83.6620  117.0600  138.8200 O.2   375  MET375     -0.2718
    146  CB        81.2170  118.6080  140.0280 C.3   375  MET375      0.0401
    147  CG        79.7560  118.5540  139.5810 C.3   375  MET375      0.0596
    148  SD        79.4320  117.3060  138.3130 S.3   375  MET375     -0.1393
    149  CE        80.5320  117.8300  136.9930 C.3   375  MET375      0.0692
    150  N         84.1840  117.4510  140.9600 N.am  376  GLU376     -0.1979
    151  CA        85.6080  117.5190  140.6740 C.3   376  GLU376      0.1602
    152  C         86.1570  116.1270  140.3320 C.2   376  GLU376      0.2287
    153  O         87.2460  116.0110  139.7710 O.2   376  GLU376     -0.2864
    154  CB        86.3710  118.1490  141.8570 C.3   376  GLU376      0.0415
    155  CG        86.0860  119.6450  142.0030 C.3   376  GLU376      0.1163
    156  CD        86.8800  120.3340  143.1000 C.2   376  GLU376      0.3649
    157  OE1       87.6030  119.6510  143.8660 O.co2 376  GLU376     -0.2457
    158  OE2       86.7570  121.5760  143.2110 O.co2 376  GLU376     -0.2457
    159  N         85.2360  114.2500  135.9280 N.3   379  TYR379     -0.1241
    160  CA        85.8950  114.4940  134.6400 C.3   379  TYR379      0.1605
    161  C         86.8250  113.3400  134.2970 C.2   379  TYR379      0.2264
    162  O         88.0460  113.4540  134.3790 O.2   379  TYR379     -0.2867
    163  CB        86.6360  115.8410  134.6600 C.3   379  TYR379      0.0534
    164  CG        85.6430  116.9890  134.6510 C.ar  379  TYR379     -0.0201
    165  CD1       85.4140  117.7370  133.4980 C.ar  379  TYR379     -0.0009
    166  CD2       84.9000  117.2890  135.7890 C.ar  379  TYR379     -0.0009
    167  CE1       84.4820  118.7830  133.4930 C.ar  379  TYR379      0.0417
    168  CE2       83.9680  118.3070  135.7970 C.ar  379  TYR379      0.0417
    169  CZ        83.7560  119.0510  134.6510 C.ar  379  TYR379      0.1957
    170  OH        82.8150  120.0550  134.6930 O.3   379  TYR379     -0.2866
    171  N         85.2900  111.4280  128.8420 N.3   384  TYR384     -0.1241
    172  CA        86.0420  112.0550  127.7710 C.3   384  TYR384      0.1605
    173  C         86.3200  111.1430  126.5890 C.2   384  TYR384      0.2264
    174  O         85.9900  111.4520  125.4320 O.2   384  TYR384     -0.2867
    175  CB        87.3780  112.5930  128.3160 C.3   384  TYR384      0.0534
    176  CG        87.2050  113.9530  128.9160 C.ar  384  TYR384     -0.0201
    177  CD1       87.7690  115.0780  128.3170 C.ar  384  TYR384     -0.0009
    178  CD2       86.4060  114.1290  130.0540 C.ar  384  TYR384     -0.0009
    179  CE1       87.5780  116.3470  128.8750 C.ar  384  TYR384      0.0417
    180  CE2       86.2090  115.3820  130.6080 C.ar  384  TYR384      0.0417
    181  CZ        86.7940  116.4920  130.0070 C.ar  384  TYR384      0.1957
    182  OH        86.5870  117.7450  130.5440 O.3   384  TYR384     -0.2866
    183  N         91.4670  117.8670  144.4980 N.3   838  MET838     -0.1245
    184  CA        91.3320  117.3870  143.1230 C.3   838  MET838      0.1570
    185  C         92.5850  116.6400  142.6490 C.2   838  MET838      0.2261
    186  O         92.5020  115.5340  142.0810 O.2   838  MET838     -0.2867
    187  CB        91.0200  118.5440  142.1760 C.3   838  MET838      0.0387
    188  CG        90.6880  118.0840  140.7620 C.3   838  MET838      0.0595
    189  SD        90.0330  119.4480  139.8080 S.3   838  MET838     -0.1393
    190  CE        89.6640  118.6330  138.2590 C.3   838  MET838      0.0692
@<TRIPOS>BOND
     1   138   137    2
     2    83    84    1
     3   137   136    1
     4    89    87    1
     5    84    87    1
     6    84    85    1
     7    97    98    1
     8   116   117    1
     9    87    88    1
    10    86    85    2
    11    85    90   am
    12   136   135    1
    13   136   139    1
    14    72    73    1
    15    98    99    1
    16    98   101    1
    17   118   117    1
    18   118   119    2
    19   100    99    2
    20   117   120    1
    21    99   107   am
    22   140   139    1
    23   109   110    2
    24   109   108    1
    25    90    91    1
    26   139   141    1
    27    74    73    1
    28    74    75    2
    29   101   102    1
    30    73    76    1
    31   107   108    1
    32    92    93    2
    33    92    91    1
    34    91    94    1
    35   108   111    1
    36   120   121    1
    37   102   103   ar
    38   102   104   ar
    39   103   105   ar
    40    76    77    1
    41   129   128    2
    42   111   112    1
    43   121   122   ar
    44   121   123   ar
    45   122   124   ar
    46   105   106   ar
    47    94    96    1
    48    94    95    1
    49   104   106   ar
    50   128   127    1
    51   174   173    2
    52   123   125   ar
    53   124   125   ar
    54    77    78    1
    55   112   113    1
    56    78    79    1
    57   126   127    1
    58   127   130    1
    59   173   172    1
    60   113   114   ar
    61   113   115   ar
    62    67    68    1
    63    67    64    1
    64    66    65    2
    65    68    69    1
    66    81    80    1
    67    79    80    2
    68   133   132   ar
    69    64    65    1
    70    64    63    1
    71   130   131    1
    72   172   175    1
    73   172   171    1
    74    80    82    1
    75    69    71   ar
    76    69    70   ar
    77   175   176    1
    78   177   179   ar
    79   177   176   ar
    80   132   131    1
    81   132   134   ar
    82    54    51    1
    83    63    57   am
    84   179   181   ar
    85    58    57    2
    86   176   178   ar
    87    57    56    1
    88   181   182    1
    89   181   180   ar
    90    55    52   am
    91    55    56    1
    92    51    52    1
    93    51    50    1
    94   178   180   ar
    95    52    53    2
    96    49    48    2
    97    50    48   am
    98    56    59    1
    99    48    47    1
   100    47    46    1
   101    62    61    1
   102    59    60    1
   103    46    41   am
   104    61    60    1
   105    24    23   ar
   106    25    23   ar
   107    23    22    1
   108    41    42    2
   109    41    40    1
   110   167   165   ar
   111   167   169   ar
   112   165   164   ar
   113    45    43    1
   114    43    40    1
   115    43    44    1
   116    22    21    1
   117   161   162    2
   118   161   160    1
   119    40    39    1
   120    21    18    1
   121   160   163    1
   122   160   159    1
   123   164   163    1
   124   164   166   ar
   125   169   170    1
   126   169   168   ar
   127    15    14    2
   128    39    33   am
   129    16    14   am
   130   166   168   ar
   131    14    13    1
   132    18    17    1
   133    18    19    1
   134    33    34    2
   135    33    32    1
   136   149   148    1
   137    19    20    2
   138    19    26   am
   139    13    12    1
   140    27    30    1
   141    27    26    1
   142    27    28    1
   143     9    12    1
   144     9    10    1
   145     9     8    1
   146    31    32    1
   147    29    28    2
   148    32    35    1
   149    10    11    2
   150   190   189    1
   151   148   147    1
   152    35    36    1
   153   145   144    2
   154   147   146    1
   155   153   152    2
   156   189   188    1
   157    36    38   am
   158    36    37    2
   159   144   143    1
   160   144   150   am
   161   146   143    1
   162   152   151    1
   163   143   142    1
   164   151   150    1
   165   151   154    1
   166   188   187    1
   167   154   155    1
   168     7     5    1
   169   155   156    1
   170     2     1    1
   171     2     5    1
   172     2     3    1
   173   186   185    2
   174   187   184    1
   175     5     6    1
   176     3     4    2
   177   185   184    1
   178   156   158   ar
   179   156   157   ar
   180   184   183    1
