@<TRIPOS>MOLECULE
tmp/4zw8A00.pdb
 205 195 0 0 0
SMALL
GASTEIGER

@<TRIPOS>ATOM
      1  N         93.7350  125.6930  143.6650 N.3   109  LEU109     -0.1231
      2  CA        93.6860  126.1160  142.2640 C.3   109  LEU109      0.1693
      3  C         92.2730  126.0360  141.6850 C.2   109  LEU109      0.2592
      4  O         92.0860  125.7500  140.5010 O.2   109  LEU109     -0.2718
      5  CB        94.6550  125.2850  141.4160 C.3   109  LEU109      0.0284
      6  CG        96.0790  125.1220  141.9610 C.3   109  LEU109      0.0019
      7  CD1       96.9870  124.5110  140.9060 C.3   109  LEU109      0.0001
      8  CD2       96.6530  126.4430  142.4640 C.3   109  LEU109      0.0001
      9  N         91.2850  126.2880  142.5370 N.am  110  THR110     -0.1953
     10  CA        89.8920  126.3700  142.1210 C.3   110  THR110      0.1897
     11  C         89.3260  127.7030  142.6000 C.2   110  THR110      0.2313
     12  O         89.6100  128.1350  143.7170 O.2   110  THR110     -0.2863
     13  CB        89.0510  125.2010  142.6800 C.3   110  THR110      0.1794
     14  OG1       88.9620  125.3090  144.1050 O.3   110  THR110     -0.2208
     15  CG2       89.6840  123.8660  142.3280 C.3   110  THR110      0.0378
     16  N         89.6310  129.7620  137.9130 N.3   122  GLN122     -0.1245
     17  CA        89.1860  128.5110  137.3070 C.3   122  GLN122      0.1566
     18  C         87.8300  128.1660  137.9030 C.2   122  GLN122      0.2260
     19  O         87.7350  127.8320  139.0840 O.2   122  GLN122     -0.2867
     20  CB        90.1900  127.3810  137.5450 C.3   122  GLN122      0.0367
     21  CG        89.6750  125.9980  137.1550 C.3   122  GLN122      0.0905
     22  CD        89.2840  125.9040  135.6900 C.2   122  GLN122      0.2608
     23  OE1       89.9230  126.5010  134.8260 O.2   122  GLN122     -0.2717
     24  NE2       88.2240  125.1550  135.4060 N.am  122  GLN122     -0.0878
     25  N         84.9920  126.2260  136.2150 N.3   124  GLU124     -0.1231
     26  CA        84.4270  124.8980  135.9720 C.3   124  GLU124      0.1699
     27  C         85.0290  123.9230  136.9850 C.2   124  GLU124      0.2592
     28  O         86.2430  123.9090  137.1820 O.2   124  GLU124     -0.2718
     29  CB        84.6890  124.4230  134.5360 C.3   124  GLU124      0.0402
     30  CG        83.9920  123.1060  134.1990 C.3   124  GLU124      0.1161
     31  CD        84.1570  122.6650  132.7540 C.2   124  GLU124      0.3649
     32  OE1       85.0750  123.1560  132.0670 O.co2 124  GLU124     -0.2457
     33  OE2       83.3630  121.8110  132.3060 O.co2 124  GLU124     -0.2457
     34  N         84.1910  123.1230  137.6420 N.am  125  ALA125     -0.1980
     35  CA        82.7470  123.1270  137.4210 C.3   125  ALA125      0.1597
     36  C         82.0050  123.9460  138.4710 C.2   125  ALA125      0.2287
     37  O         80.9640  124.5410  138.1870 O.2   125  ALA125     -0.2864
     38  CB        82.2180  121.6990  137.4010 C.3   125  ALA125      0.0319
     39  N         83.5810  126.3930  140.6660 N.3   127  GLY127     -0.1225
     40  CA        84.5840  127.3050  141.1830 C.3   127  GLY127      0.1811
     41  C         84.1230  128.7450  141.3250 C.2   127  GLY127      0.2280
     42  O         84.7080  129.5090  142.0910 O.2   127  GLY127     -0.2866
     43  N         98.2430  124.7310  137.4620 N.3   262  PHE262     -0.1227
     44  CA        96.9480  124.3740  136.8950 C.3   262  PHE262      0.1736
     45  C         96.6780  122.8860  137.1100 C.2   262  PHE262      0.2595
     46  O         97.5740  122.0550  136.9460 O.2   262  PHE262     -0.2718
     47  CB        96.9030  124.7280  135.4050 C.3   262  PHE262      0.0547
     48  CG        95.5370  125.1260  134.9110 C.ar  262  PHE262     -0.0202
     49  CD1       94.9840  126.3450  135.2720 C.ar  262  PHE262     -0.0042
     50  CD2       94.8170  124.2920  134.0720 C.ar  262  PHE262     -0.0042
     51  CE1       93.7330  126.7190  134.8180 C.ar  262  PHE262     -0.0003
     52  CE2       93.5620  124.6600  133.6130 C.ar  262  PHE262     -0.0003
     53  CZ        93.0200  125.8740  133.9850 C.ar  262  PHE262     -0.0000
     54  N         95.4470  122.5520  137.4860 N.am  263  ASN263     -0.1960
     55  CA        95.1010  121.1730  137.8220 C.3   263  ASN263      0.1819
     56  C         95.0270  120.2520  136.6080 C.2   263  ASN263      0.2621
     57  O         95.3140  119.0590  136.7060 O.2   263  ASN263     -0.2715
     58  CB        93.7730  121.1330  138.5790 C.3   263  ASN263      0.1195
     59  CG        93.9020  121.6400  140.0010 C.2   263  ASN263      0.2630
     60  OD1       95.0050  121.7290  140.5410 O.2   263  ASN263     -0.2716
     61  ND2       92.7750  121.9760  140.6160 N.am  263  ASN263     -0.0877
     62  N         94.6380  120.8090  135.4670 N.am  264  VAL264     -0.1963
     63  CA        94.5100  120.0330  134.2400 C.3   264  VAL264      0.1727
     64  C         95.3200  120.6700  133.1160 C.2   264  VAL264      0.2617
     65  O         96.2330  121.4530  133.3730 O.2   264  VAL264     -0.2715
     66  CB        93.0380  119.9030  133.8100 C.3   264  VAL264      0.0290
     67  CG1       92.2630  119.0800  134.8270 C.3   264  VAL264      0.0023
     68  CG2       92.4080  121.2790  133.6490 C.3   264  VAL264      0.0023
     69  N         94.9870  120.3350  131.8740 N.am  265  GLY265     -0.1940
     70  CA        95.6750  120.9000  130.7260 C.3   265  GLY265      0.2014
     71  C         95.2730  122.3360  130.4360 C.2   265  GLY265      0.2639
     72  O         96.1330  123.2150  130.3570 O.2   265  GLY265     -0.2714
     73  N         93.9730  122.5790  130.2730 N.am  266  ALA266     -0.1963
     74  CA        93.4720  123.9370  130.0390 C.3   266  ALA266      0.1728
     75  C         91.9630  124.0660  130.2350 C.2   266  ALA266      0.2616
     76  O         91.2750  123.0930  130.5460 O.2   266  ALA266     -0.2715
     77  CB        93.8420  124.4040  128.6460 C.3   266  ALA266      0.0334
     78  N         91.4640  125.2810  130.0250 N.am  267  MET267     -0.1963
     79  CA        90.0600  125.6110  130.2460 C.3   267  MET267      0.1736
     80  C         89.5430  126.5400  129.1450 C.2   267  MET267      0.2616
     81  O         90.2620  127.4320  128.6940 O.2   267  MET267     -0.2715
     82  CB        89.8830  126.2570  131.6210 C.3   267  MET267      0.0427
     83  CG        88.4630  126.6760  131.9260 C.3   267  MET267      0.0599
     84  SD        87.3150  125.2930  131.8630 S.3   267  MET267     -0.1393
     85  CE        85.7920  126.1750  131.5190 C.3   267  MET267      0.0692
     86  N         88.2940  126.3400  128.7290 N.am  268  GLU268     -0.1977
     87  CA        87.7570  127.0160  127.5460 C.3   268  GLU268      0.1602
     88  C         86.9650  128.3040  127.8210 C.2   268  GLU268      0.2287
     89  O         86.0140  128.6120  127.1000 O.2   268  GLU268     -0.2864
     90  CB        86.8730  126.0400  126.7560 C.3   268  GLU268      0.0415
     91  CG        85.5140  125.7220  127.3840 C.3   268  GLU268      0.1163
     92  CD        85.5180  124.4660  128.2270 C.2   268  GLU268      0.3649
     93  OE1       86.6090  124.0360  128.6580 O.co2 268  GLU268     -0.2457
     94  OE2       84.4230  123.9070  128.4520 O.co2 268  GLU268     -0.2457
     95  N        101.0980  117.8010  122.2300 N.3   294  ARG294     -0.1245
     96  CA       100.3020  118.1720  123.3980 C.3   294  ARG294      0.1563
     97  C         99.6660  119.5540  123.2510 C.2   294  ARG294      0.2260
     98  O         98.4730  119.7260  123.5000 O.2   294  ARG294     -0.2867
     99  CB       101.1640  118.1300  124.6620 C.3   294  ARG294      0.0307
    100  CG       100.4610  118.6330  125.9180 C.3   294  ARG294      0.0489
    101  CD        99.2880  117.7420  126.2930 C.3   294  ARG294      0.2205
    102  NE        98.6460  118.1760  127.5310 N.pl3 294  ARG294     -0.0865
    103  CZ        97.6340  117.5390  128.1120 C.cat 294  ARG294      0.5346
    104  NH1       97.1430  116.4340  127.5660 N.pl3 294  ARG294      0.1354
    105  NH2       97.1130  118.0050  129.2390 N.pl3 294  ARG294      0.1354
    106  N         96.9580  119.6050  120.5300 N.3   297  THR297     -0.1203
    107  CA        95.7400  118.9800  121.0380 C.3   297  THR297      0.1994
    108  C         94.9630  119.9010  121.9710 C.2   297  THR297      0.2617
    109  O         93.7590  120.0930  121.8030 O.2   297  THR297     -0.2717
    110  CB        96.0400  117.6730  121.8020 C.3   297  THR297      0.1784
    111  OG1       97.0620  117.9100  122.7770 O.3   297  THR297     -0.2211
    112  CG2       96.4980  116.5830  120.8520 C.3   297  THR297      0.0376
    113  N         95.6560  120.4720  122.9490 N.am  298  VAL298     -0.1979
    114  CA        95.0010  121.2640  123.9810 C.3   298  VAL298      0.1595
    115  C         94.5130  122.6170  123.4590 C.2   298  VAL298      0.2287
    116  O         93.3960  123.0310  123.7610 O.2   298  VAL298     -0.2864
    117  CB        95.9360  121.4700  125.1850 C.3   298  VAL298      0.0276
    118  CG1       95.2780  122.3490  126.2190 C.3   298  VAL298      0.0022
    119  CG2       96.2920  120.1240  125.8000 C.3   298  VAL298      0.0022
    120  N         91.6060  121.7120  121.2800 N.3   301  HIS301     -0.1226
    121  CA        90.4890  121.3170  122.1330 C.3   301  HIS301      0.1752
    122  C         89.7220  122.5150  122.6890 C.2   301  HIS301      0.2595
    123  O         88.5030  122.5960  122.5460 O.2   301  HIS301     -0.2718
    124  CB        90.9920  120.4420  123.2860 C.3   301  HIS301      0.0759
    125  CG        89.9030  119.9080  124.1640 C.ar  301  HIS301      0.0818
    126  ND1       89.5070  118.5880  124.1350 N.ar  301  HIS301     -0.2268
    127  CD2       89.1390  120.5110  125.1040 C.ar  301  HIS301      0.1154
    128  CE1       88.5410  118.4030  125.0170 C.ar  301  HIS301      0.1986
    129  NE2       88.2970  119.5530  125.6170 N.ar  301  HIS301     -0.2212
    130  N         90.4290  123.4470  123.3200 N.am  302  GLU302     -0.1979
    131  CA        89.7560  124.5920  123.9270 C.3   302  GLU302      0.1602
    132  C         89.0950  125.4770  122.8730 C.2   302  GLU302      0.2287
    133  O         88.0600  126.0880  123.1380 O.2   302  GLU302     -0.2864
    134  CB        90.7270  125.4250  124.7720 C.3   302  GLU302      0.0415
    135  CG        91.5710  124.6320  125.7680 C.3   302  GLU302      0.1163
    136  CD        90.7650  123.7020  126.6710 C.2   302  GLU302      0.3649
    137  OE1       89.5520  123.9250  126.8750 O.co2 302  GLU302     -0.2457
    138  OE2       91.3640  122.7380  127.1910 O.co2 302  GLU302     -0.2457
    139  N         85.7360  123.9810  121.6460 N.3   305  HIS305     -0.1241
    140  CA        84.7160  124.1880  122.6670 C.3   305  HIS305      0.1621
    141  C         83.8280  125.3940  122.3780 C.2   305  HIS305      0.2264
    142  O         82.6780  125.4340  122.8150 O.2   305  HIS305     -0.2867
    143  CB        85.3640  124.3660  124.0380 C.3   305  HIS305      0.0745
    144  CG        85.3820  123.1230  124.8670 C.ar  305  HIS305      0.0817
    145  ND1       84.2760  122.3170  125.0270 N.ar  305  HIS305     -0.2268
    146  CD2       86.3690  122.5540  125.6030 C.ar  305  HIS305      0.1154
    147  CE1       84.5810  121.3000  125.8120 C.ar  305  HIS305      0.1986
    148  NE2       85.8470  121.4220  126.1750 N.ar  305  HIS305     -0.2212
    149  N         82.3440  117.3670  126.1420 N.3   324  GLU324     -0.1245
    150  CA        83.7170  116.8880  126.2620 C.3   324  GLU324      0.1567
    151  C         84.0350  115.7680  125.2770 C.2   324  GLU324      0.2260
    152  O         85.0230  115.8470  124.5500 O.2   324  GLU324     -0.2867
    153  CB        84.0100  116.4350  127.6940 C.3   324  GLU324      0.0388
    154  CG        83.9770  117.5680  128.7220 C.3   324  GLU324      0.1160
    155  CD        84.9100  118.7270  128.3800 C.2   324  GLU324      0.3649
    156  OE1       85.8440  118.5450  127.5700 O.co2 324  GLU324     -0.2457
    157  OE2       84.7120  119.8300  128.9330 O.co2 324  GLU324     -0.2457
    158  N         86.6620  116.3880  122.2360 N.3   328  VAL328     -0.1245
    159  CA        87.8250  115.5230  122.0600 C.3   328  VAL328      0.1561
    160  C         87.7790  114.9080  120.6650 C.2   328  VAL328      0.2260
    161  O         88.7880  114.8660  119.9640 O.2   328  VAL328     -0.2867
    162  CB        87.8960  114.4050  123.1240 C.3   328  VAL328      0.0252
    163  CG1       89.0640  113.4640  122.8340 C.3   328  VAL328      0.0019
    164  CG2       88.0410  115.0000  124.5100 C.3   328  VAL328      0.0019
    165  N         84.0800  117.2300  141.3540 N.3   377  GLU377     -0.1245
    166  CA        85.5130  117.2860  141.1010 C.3   377  GLU377      0.1567
    167  C         86.1090  115.9020  140.8450 C.2   377  GLU377      0.2260
    168  O         87.3250  115.7590  140.7160 O.2   377  GLU377     -0.2867
    169  CB        86.2260  117.9620  142.2730 C.3   377  GLU377      0.0388
    170  CG        86.3130  119.4740  142.1470 C.3   377  GLU377      0.1160
    171  CD        86.6120  120.1600  143.4650 C.2   377  GLU377      0.3649
    172  OE1       86.6650  119.4660  144.5010 O.co2 377  GLU377     -0.2457
    173  OE2       86.7970  121.3960  143.4630 O.co2 377  GLU377     -0.2457
    174  N         85.2170  114.3190  135.9870 N.3   380  TYR380     -0.1241
    175  CA        85.9300  114.5010  134.7240 C.3   380  TYR380      0.1605
    176  C         86.9220  113.3690  134.4870 C.2   380  TYR380      0.2264
    177  O         88.1130  113.4930  134.7720 O.2   380  TYR380     -0.2867
    178  CB        86.6320  115.8650  134.7050 C.3   380  TYR380      0.0534
    179  CG        85.6520  117.0200  134.6610 C.ar  380  TYR380     -0.0201
    180  CD1       85.5130  117.7970  133.5190 C.ar  380  TYR380     -0.0009
    181  CD2       84.8460  117.3140  135.7540 C.ar  380  TYR380     -0.0009
    182  CE1       84.6080  118.8430  133.4740 C.ar  380  TYR380      0.0417
    183  CE2       83.9380  118.3500  135.7170 C.ar  380  TYR380      0.0417
    184  CZ        83.8220  119.1120  134.5770 C.ar  380  TYR380      0.1957
    185  OH        82.9150  120.1450  134.5460 O.3   380  TYR380     -0.2866
    186  N         85.4860  111.4430  128.8870 N.3   385  TYR385     -0.1241
    187  CA        86.2510  112.1090  127.8410 C.3   385  TYR385      0.1605
    188  C         86.5950  111.2050  126.6630 C.2   385  TYR385      0.2264
    189  O         86.2400  111.5010  125.5210 O.2   385  TYR385     -0.2867
    190  CB        87.5400  112.6900  128.4290 C.3   385  TYR385      0.0534
    191  CG        87.3600  114.0670  129.0210 C.ar  385  TYR385     -0.0201
    192  CD1       87.9870  115.1720  128.4580 C.ar  385  TYR385     -0.0009
    193  CD2       86.5470  114.2680  130.1290 C.ar  385  TYR385     -0.0009
    194  CE1       87.8200  116.4380  128.9910 C.ar  385  TYR385      0.0417
    195  CE2       86.3730  115.5320  130.6690 C.ar  385  TYR385      0.0417
    196  CZ        87.0110  116.6120  130.0940 C.ar  385  TYR385      0.1957
    197  OH        86.8420  117.8730  130.6230 O.3   385  TYR385     -0.2866
    198  N         91.9560  117.7720  144.3550 N.3   839  MET839     -0.1245
    199  CA        91.8280  117.3000  142.9810 C.3   839  MET839      0.1570
    200  C         93.0810  116.5550  142.5250 C.2   839  MET839      0.2261
    201  O         92.9950  115.4790  141.9310 O.2   839  MET839     -0.2867
    202  CB        91.5380  118.4720  142.0420 C.3   839  MET839      0.0387
    203  CG        91.2030  118.0630  140.6180 C.3   839  MET839      0.0595
    204  SD        90.4910  119.4180  139.6630 S.3   839  MET839     -0.1393
    205  CE        90.2180  118.6160  138.0870 C.3   839  MET839      0.0692
@<TRIPOS>BOND
     1   161   160    2
     2   106   107    1
     3   160   159    1
     4   112   110    1
     5   107   110    1
     6   107   108    1
     7   120   121    1
     8   139   140    1
     9   110   111    1
    10   109   108    2
    11   108   113   am
    12   159   158    1
    13   159   162    1
    14   121   122    1
    15   121   124    1
    16    95    96    1
    17   141   140    1
    18   141   142    2
    19   123   122    2
    20   140   143    1
    21   122   130   am
    22   163   162    1
    23   132   133    2
    24   132   131    1
    25   113   114    1
    26   162   164    1
    27    97    96    1
    28    97    98    2
    29   124   125    1
    30   130   131    1
    31    96    99    1
    32   115   116    2
    33   115   114    1
    34   131   134    1
    35   114   117    1
    36   143   144    1
    37   126   125   ar
    38   126   128   ar
    39   125   127   ar
    40   152   151    2
    41    99   100    1
    42   134   135    1
    43   144   145   ar
    44   144   146   ar
    45   128   129   ar
    46   145   147   ar
    47   127   129   ar
    48   117   119    1
    49   117   118    1
    50   151   150    1
    51   189   188    2
    52   146   148   ar
    53   135   136    1
    54   147   148   ar
    55   100   101    1
    56   149   150    1
    57   150   153    1
    58   101   102    1
    59   188   187    1
    60   136   137   ar
    61   136   138   ar
    62    90    91    1
    63    90    87    1
    64    89    88    2
    65    91    92    1
    66   102   103    2
    67    87    88    1
    68    87    86    1
    69   104   103    1
    70   156   155   ar
    71   153   154    1
    72   187   190    1
    73   187   186    1
    74   103   105    1
    75    92    94   ar
    76    92    93   ar
    77   155   154    1
    78   155   157   ar
    79   190   191    1
    80   192   194   ar
    81   192   191   ar
    82    77    74    1
    83    81    80    2
    84    86    80   am
    85   194   196   ar
    86   191   193   ar
    87    80    79    1
    88    78    75   am
    89    78    79    1
    90    74    75    1
    91    74    73    1
    92   196   197    1
    93   196   195   ar
    94   193   195   ar
    95    75    76    2
    96    79    82    1
    97    73    71   am
    98    72    71    2
    99    71    70    1
   100    70    69    1
   101    85    84    1
   102    82    83    1
   103    84    83    1
   104    69    64   am
   105    32    31   ar
   106    33    31   ar
   107    31    30    1
   108    64    65    2
   109    64    63    1
   110   182   180   ar
   111   182   184   ar
   112   180   179   ar
   113    52    53   ar
   114    52    50   ar
   115    68    66    1
   116    66    63    1
   117    66    67    1
   118    53    51   ar
   119    50    48   ar
   120    30    29    1
   121    63    62    1
   122   176   175    1
   123   176   177    2
   124    29    26    1
   125   185   184    1
   126   184   183   ar
   127   179   178    1
   128   179   181   ar
   129   178   175    1
   130   175   174    1
   131    51    49   ar
   132    23    22    2
   133    48    49   ar
   134    48    47    1
   135    47    44    1
   136    24    22   am
   137    62    56   am
   138    22    21    1
   139   183   181   ar
   140    26    25    1
   141    26    27    1
   142    56    57    2
   143    56    55    1
   144    44    45    1
   145    44    43    1
   146    46    45    2
   147    27    28    2
   148    27    34   am
   149    45    54   am
   150    21    20    1
   151    17    20    1
   152    17    18    1
   153    17    16    1
   154    38    35    1
   155    35    34    1
   156    35    36    1
   157    54    55    1
   158    55    58    1
   159    18    19    2
   160   205   204    1
   161    37    36    2
   162    58    59    1
   163   204   203    1
   164    59    60    2
   165    59    61   am
   166     4     3    2
   167   203   202    1
   168    39    40    1
   169   168   167    2
   170   167   166    1
   171     7     6    1
   172   166   165    1
   173   166   169    1
   174    40    41    1
   175    41    42    2
   176     5     6    1
   177     5     2    1
   178     3     2    1
   179     3     9   am
   180   201   200    2
   181     6     8    1
   182   202   199    1
   183    10     9    1
   184    10    11    1
   185    10    13    1
   186   170   169    1
   187   170   171    1
   188     2     1    1
   189    15    13    1
   190   200   199    1
   191    11    12    2
   192    13    14    1
   193   199   198    1
   194   173   171   ar
   195   171   172   ar
