@<TRIPOS>MOLECULE
tmp/4zw9A02.pdb
 107 100 0 0 0
SMALL
GASTEIGER

@<TRIPOS>ATOM
      1  N         45.3460   -0.0940   49.6090 N.3    15  THR15      -0.1218
      2  CA        45.1860    1.3450   49.3560 C.3    15  THR15       0.1862
      3  C         44.3640    2.0310   50.4600 C.2    15  THR15       0.2287
      4  O         44.7200    3.1140   50.9240 O.2    15  THR15      -0.2866
      5  CB        44.5280    1.6020   47.9840 C.3    15  THR15       0.1770
      6  OG1       45.3870    1.1090   46.9460 O.3    15  THR15      -0.2211
      7  CG2       44.3200    3.1040   47.7630 C.3    15  THR15       0.0375
      8  N         46.4940    2.5440   53.4200 N.3    18  THR18      -0.1203
      9  CA        47.4890    3.6080   53.2700 C.3    18  THR18       0.1994
     10  C         46.8810    5.0060   53.2890 C.2    18  THR18       0.2617
     11  O         47.6090    5.9830   53.2040 O.2    18  THR18      -0.2717
     12  CB        48.3190    3.4660   51.9750 C.3    18  THR18       0.1784
     13  OG1       47.4720    3.5560   50.8270 O.3    18  THR18      -0.2211
     14  CG2       49.0950    2.1250   51.9620 C.3    18  THR18       0.0376
     15  N         45.5600    5.1210   53.4080 N.am   19  ILE19      -0.1979
     16  CA        45.0020    6.4410   53.6930 C.3    19  ILE19       0.1595
     17  C         45.5220    6.9380   55.0400 C.2    19  ILE19       0.2287
     18  O         45.7610    8.1390   55.2170 O.2    19  ILE19      -0.2864
     19  CB        43.4580    6.4250   53.6790 C.3    19  ILE19       0.0276
     20  CG1       42.9850    6.0590   52.2750 C.3    19  ILE19       0.0022
     21  CG2       42.8990    7.7990   54.0950 C.3    19  ILE19       0.0022
     22  CD1       41.4740    5.7740   52.1660 C.3    19  ILE19       0.0001
     23  N         48.8840    8.3410   54.3600 N.3    22  PHE22      -0.1241
     24  CA        48.6710    9.6680   53.7870 C.3    22  PHE22       0.1605
     25  C         48.4180   10.6930   54.8940 C.2    22  PHE22       0.2264
     26  O         48.9630   11.8080   54.8760 O.2    22  PHE22      -0.2867
     27  CB        47.5030    9.6260   52.7930 C.3    22  PHE22       0.0534
     28  CG        47.1440   10.9760   52.2240 C.ar   22  PHE22      -0.0203
     29  CD1       46.2230   11.7780   52.8640 C.ar   22  PHE22      -0.0042
     30  CD2       47.7260   11.4310   51.0460 C.ar   22  PHE22      -0.0042
     31  CE1       45.8950   13.0270   52.3520 C.ar   22  PHE22      -0.0003
     32  CE2       47.3930   12.6760   50.5190 C.ar   22  PHE22      -0.0003
     33  CZ        46.4900   13.4710   51.1720 C.ar   22  PHE22      -0.0000
     34  N         54.3350    0.7770   49.9880 N.3   157  LEU157     -0.1245
     35  CA        53.1750    1.6360   49.7150 C.3   157  LEU157      0.1561
     36  C         52.7600    2.4650   50.9270 C.2   157  LEU157      0.2260
     37  O         52.1430    3.5150   50.7770 O.2   157  LEU157     -0.2867
     38  CB        51.9860    0.8040   49.2310 C.3   157  LEU157      0.0270
     39  CG        52.1980    0.2010   47.8410 C.3   157  LEU157      0.0019
     40  CD1       51.0310   -0.6960   47.4640 C.3   157  LEU157      0.0001
     41  CD2       52.3820    1.2950   46.7980 C.3   157  LEU157      0.0001
     42  N         54.8690    5.3290   50.4280 N.3   160  LEU160     -0.1231
     43  CA        54.3810    6.0940   49.2840 C.3   160  LEU160      0.1693
     44  C         53.1810    6.9610   49.6970 C.2   160  LEU160      0.2592
     45  O         53.0780    8.1250   49.2960 O.2   160  LEU160     -0.2718
     46  CB        54.0240    5.1740   48.1110 C.3   160  LEU160      0.0284
     47  CG        53.5490    5.9200   46.8590 C.3   160  LEU160      0.0019
     48  CD1       54.6160    6.9060   46.3600 C.3   160  LEU160      0.0001
     49  CD2       53.1670    4.9370   45.7600 C.3   160  LEU160      0.0001
     50  N         52.3000    6.4220   50.5350 N.am  161  GLY161     -0.1957
     51  CA        51.2060    7.2250   51.0570 C.3   161  GLY161      0.1869
     52  C         51.7220    8.3960   51.8770 C.2   161  GLY161      0.2309
     53  O         51.2120    9.5100   51.7700 O.2   161  GLY161     -0.2863
     54  N         53.2560   11.0710   49.5070 N.3   164  VAL164     -0.1245
     55  CA        52.1770   11.7250   48.7720 C.3   164  VAL164      0.1561
     56  C         51.4240   12.6740   49.7030 C.2   164  VAL164      0.2260
     57  O         51.0680   13.7870   49.3150 O.2   164  VAL164     -0.2867
     58  CB        51.2260   10.6970   48.1480 C.3   164  VAL164      0.0252
     59  CG1       49.9340   11.3810   47.6680 C.3   164  VAL164      0.0019
     60  CG2       51.9320   10.0080   46.9860 C.3   164  VAL164      0.0019
     61  N         41.4760   19.7340   56.8110 N.3   190  PHE190     -0.1241
     62  CA        41.3980   18.8120   55.6760 C.3   190  PHE190      0.1605
     63  C         41.5570   17.3520   56.0890 C.2   190  PHE190      0.2264
     64  O         40.9840   16.4720   55.4580 O.2   190  PHE190     -0.2867
     65  CB        42.4600   19.1460   54.6210 C.3   190  PHE190      0.0534
     66  CG        42.5070   18.1670   53.4770 C.ar  190  PHE190     -0.0203
     67  CD1       41.5870   18.2430   52.4470 C.ar  190  PHE190     -0.0042
     68  CD2       43.4680   17.1650   53.4380 C.ar  190  PHE190     -0.0042
     69  CE1       41.6140   17.3390   51.3970 C.ar  190  PHE190     -0.0003
     70  CE2       43.5030   16.2570   52.3900 C.ar  190  PHE190     -0.0003
     71  CZ        42.5680   16.3450   51.3690 C.ar  190  PHE190     -0.0000
     72  N         38.7700   14.7590   56.0010 N.3   193  LEU193     -0.1231
     73  CA        38.2340   14.1830   54.7580 C.3   193  LEU193      0.1678
     74  C         38.7890   12.7820   54.4170 C.2   193  LEU193      0.2434
     75  O         37.9920   11.8700   54.1530 O.2   193  LEU193     -0.2733
     76  CB        38.4520   15.1500   53.5800 C.3   193  LEU193      0.0284
     77  CG        37.7690   16.5180   53.7070 C.3   193  LEU193      0.0019
     78  CD1       37.9180   17.3160   52.4260 C.3   193  LEU193      0.0001
     79  CD2       36.2990   16.3750   54.0810 C.3   193  LEU193      0.0001
     80  N         40.1250   12.5790   54.4420 N.am  194  PRO194     -0.2729
     81  CA        40.5880   11.1870   54.2770 C.3   194  PRO194      0.1401
     82  C         40.0800   10.2640   55.3860 C.2   194  PRO194      0.2269
     83  O         39.9200    9.0720   55.1420 O.2   194  PRO194     -0.2865
     84  CB        42.1200   11.2970   54.3400 C.3   194  PRO194      0.0296
     85  CG        42.4270   12.7330   54.1000 C.3   194  PRO194      0.0237
     86  CD        41.2440   13.5370   54.5300 C.3   194  PRO194      0.0939
     87  N         37.0970   10.3630   56.8260 N.3   196  ILE196     -0.1231
     88  CA        35.7430    9.9480   56.4620 C.3   196  ILE196      0.1692
     89  C         35.7910    8.9130   55.3290 C.2   196  ILE196      0.2591
     90  O         35.1040    7.8920   55.3850 O.2   196  ILE196     -0.2718
     91  CB        34.8880   11.1710   56.0800 C.3   196  ILE196      0.0266
     92  CG1       34.6680   12.0080   57.3380 C.3   196  ILE196      0.0019
     93  CG2       33.5400   10.7460   55.4920 C.3   196  ILE196      0.0020
     94  CD1       34.2030   13.4520   57.0740 C.3   196  ILE196      0.0001
     95  N         36.6160    9.1610   54.3170 N.am  197  LEU197     -0.1980
     96  CA        36.7610    8.2140   53.2100 C.3   197  LEU197      0.1596
     97  C         37.2470    6.8430   53.6950 C.2   197  LEU197      0.2287
     98  O         36.6680    5.7910   53.3540 O.2   197  LEU197     -0.2864
     99  CB        37.7310    8.7680   52.1600 C.3   197  LEU197      0.0297
    100  CG        38.0630    7.8310   50.9920 C.3   197  LEU197      0.0022
    101  CD1       36.7990    7.4390   50.2260 C.3   197  LEU197      0.0001
    102  CD2       39.1050    8.4610   50.0650 C.3   197  LEU197      0.0001
    103  N         34.5980    4.9220   55.7170 N.3   200  ALA200     -0.1245
    104  CA        33.5430    4.3400   54.8870 C.3   200  ALA200      0.1562
    105  C         34.0070    3.0710   54.1620 C.2   200  ALA200      0.2260
    106  O         33.2110    2.1560   53.9050 O.2   200  ALA200     -0.2867
    107  CB        33.0480    5.3680   53.8740 C.3   200  ALA200      0.0290
@<TRIPOS>BOND
     1    49    47    1
     2    48    47    1
     3    41    39    1
     4    47    46    1
     5     6     5    1
     6    60    58    1
     7    40    39    1
     8    59    58    1
     9     7     5    1
    10    39    38    1
    11     5     2    1
    12    46    43    1
    13    58    55    1
    14    55    54    1
    15    55    56    1
    16    38    35    1
    17    43    44    1
    18    43    42    1
    19    45    44    2
    20    57    56    2
    21     2     1    1
    22     2     3    1
    23    44    50   am
    24    35    34    1
    25    35    36    1
    26   102   100    1
    27   101   100    1
    28     3     4    2
    29    32    30   ar
    30    32    33   ar
    31    50    51    1
    32    37    36    2
    33    13    12    1
    34   100    99    1
    35    30    28   ar
    36    51    52    1
    37    33    31   ar
    38    71    69   ar
    39    71    70   ar
    40    69    67   ar
    41    53    52    2
    42    14    12    1
    43    12     9    1
    44    99    96    1
    45    22    20    1
    46    28    27    1
    47    28    29   ar
    48    20    19    1
    49    31    29   ar
    50    70    68   ar
    51    78    77    1
    52    67    66   ar
    53    27    24    1
    54    11    10    2
    55    96    97    1
    56    96    95    1
    57     9    10    1
    58     9     8    1
    59    10    15   am
    60    98    97    2
    61    15    16    1
    62    68    66   ar
    63    66    65    1
    64    76    77    1
    65    76    73    1
    66    19    16    1
    67    19    21    1
    68    16    17    1
    69    77    79    1
    70    24    23    1
    71    24    25    1
    72   107   104    1
    73   106   105    2
    74    85    84    1
    75    85    86    1
    76    75    74    2
    77   105   104    1
    78    81    84    1
    79    81    80    1
    80    81    82    1
    81    95    89   am
    82    74    80   am
    83    74    73    1
    84    80    86    1
    85    65    62    1
    86    73    72    1
    87    26    25    2
    88   104   103    1
    89    17    18    2
    90    83    82    2
    91    89    90    2
    92    89    88    1
    93    64    63    2
    94    93    91    1
    95    62    63    1
    96    62    61    1
    97    91    88    1
    98    91    92    1
    99    88    87    1
   100    94    92    1
