@<TRIPOS>MOLECULE
tmp/4zw9A01.pdb
 197 190 0 0 0
SMALL
GASTEIGER

@<TRIPOS>ATOM
      1  N         49.4280   10.5860   58.0310 N.3    24  PHE24      -0.1241
      2  CA        50.6670   10.8550   58.7330 C.3    24  PHE24       0.1605
      3  C         51.5250   11.8410   57.9300 C.2    24  PHE24       0.2264
      4  O         51.9870   12.8470   58.4710 O.2    24  PHE24      -0.2867
      5  CB        51.4080    9.5350   59.0040 C.3    24  PHE24       0.0534
      6  CG        52.8290    9.7110   59.4850 C.ar   24  PHE24      -0.0203
      7  CD1       53.1370   10.5730   60.5280 C.ar   24  PHE24      -0.0042
      8  CD2       53.8600    9.0030   58.8890 C.ar   24  PHE24      -0.0042
      9  CE1       54.4490   10.7220   60.9610 C.ar   24  PHE24      -0.0003
     10  CE2       55.1760    9.1480   59.3200 C.ar   24  PHE24      -0.0003
     11  CZ        55.4680   10.0090   60.3570 C.ar   24  PHE24      -0.0000
     12  N         52.2340   15.7300   59.0470 N.3    28  THR28      -0.1218
     13  CA        53.6380   16.0570   59.2370 C.3    28  THR28       0.1862
     14  C         54.0120   17.3020   58.4480 C.2    28  THR28       0.2287
     15  O         54.6630   18.2140   58.9710 O.2    28  THR28      -0.2866
     16  CB        54.5350   14.8820   58.8130 C.3    28  THR28       0.1770
     17  OG1       54.3600   13.8100   59.7400 O.3    28  THR28      -0.2211
     18  CG2       56.0160   15.2980   58.7990 C.3    28  THR28       0.0375
     19  N         51.8410   21.7600   58.4510 N.3    31  ILE31      -0.1245
     20  CA        51.9780   22.8680   59.3930 C.3    31  ILE31       0.1561
     21  C         53.0740   23.8470   58.9710 C.2    31  ILE31       0.2260
     22  O         53.0930   25.0010   59.4140 O.2    31  ILE31      -0.2867
     23  CB        52.2740   22.3320   60.8190 C.3    31  ILE31       0.0252
     24  CG1       52.0720   23.4210   61.8760 C.3    31  ILE31       0.0019
     25  CG2       53.6730   21.7360   60.9010 C.3    31  ILE31       0.0019
     26  CD1       50.6590   23.5680   62.3360 C.3    31  ILE31       0.0001
     27  N         57.8720   32.0650   69.1770 N.3    60  THR60      -0.1203
     28  CA        58.6640   30.9420   68.7520 C.3    60  THR60       0.1994
     29  C         58.3630   29.7690   69.6450 C.2    60  THR60       0.2618
     30  O         58.2420   28.6600   69.1930 O.2    60  THR60      -0.2717
     31  CB        60.1660   31.2930   68.7940 C.3    60  THR60       0.1784
     32  OG1       60.4470   32.1900   67.7390 O.3    60  THR60      -0.2211
     33  CG2       61.0160   30.0690   68.6390 C.3    60  THR60       0.0376
     34  N         58.3140   30.0330   70.9290 N.am   61  SER61      -0.1951
     35  CA        57.8960   28.9130   71.8640 C.3    61  SER61       0.1924
     36  C         56.4310   28.2460   71.6800 C.2    61  SER61       0.2314
     37  O         56.2830   27.0760   71.6790 O.2    61  SER61      -0.2863
     38  CB        57.9870   29.4280   73.3030 C.3    61  SER61       0.2116
     39  OG        57.5040   28.4620   74.2180 O.3    61  SER61      -0.2180
     40  N         56.6420   26.4400   68.3090 N.3    64  SER64      -0.1217
     41  CA        57.3290   25.1650   68.5180 C.3    64  SER64       0.1889
     42  C         56.4460   24.1560   69.2530 C.2    64  SER64       0.2288
     43  O         56.4780   22.9620   68.9530 O.2    64  SER64      -0.2866
     44  CB        58.6360   25.3660   69.2900 C.3    64  SER64       0.2089
     45  OG        59.5690   26.0870   68.5080 O.3    64  SER64      -0.2183
     46  N         53.9260   22.7090   66.7840 N.3    67  VAL67      -0.1231
     47  CA        54.5390   21.7320   65.9080 C.3    67  VAL67       0.1692
     48  C         54.8690   20.4650   66.6800 C.2    67  VAL67       0.2591
     49  O         54.4680   19.3640   66.2850 O.2    67  VAL67      -0.2718
     50  CB        55.8100   22.2900   65.2530 C.3    67  VAL67       0.0266
     51  CG1       56.5200   21.2100   64.4450 C.3    67  VAL67       0.0020
     52  CG2       55.4580   23.4780   64.3690 C.3    67  VAL67       0.0020
     53  N         55.5660   20.6210   67.8030 N.am   68  ALA68      -0.1980
     54  CA        56.1240   19.4750   68.5230 C.3    68  ALA68       0.1597
     55  C         55.1140   18.6140   69.2830 C.2    68  ALA68       0.2287
     56  O         55.3690   17.4270   69.5180 O.2    68  ALA68      -0.2864
     57  CB        57.2060   19.9550   69.4890 C.3    68  ALA68       0.0319
     58  N         52.4890   17.4770   68.2620 N.3    70  PHE70      -0.1227
     59  CA        52.1450   16.4270   67.3050 C.3    70  PHE70       0.1736
     60  C         53.0590   15.2120   67.5240 C.2    70  PHE70       0.2596
     61  O         52.5900   14.0730   67.5620 O.2    70  PHE70      -0.2718
     62  CB        52.2760   16.9800   65.8830 C.3    70  PHE70       0.0547
     63  CG        52.0530   15.9720   64.8010 C.ar   70  PHE70      -0.0202
     64  CD1       50.7880   15.4680   64.5530 C.ar   70  PHE70      -0.0042
     65  CD2       53.1060   15.5580   63.9960 C.ar   70  PHE70      -0.0042
     66  CE1       50.5750   14.5380   63.5430 C.ar   70  PHE70      -0.0003
     67  CE2       52.9030   14.6230   62.9820 C.ar   70  PHE70      -0.0003
     68  CZ        51.6330   14.1230   62.7490 C.ar   70  PHE70      -0.0000
     69  N         54.3570   15.4570   67.6990 N.am   71  SER71      -0.1952
     70  CA        55.3070   14.3640   67.9460 C.3    71  SER71       0.1924
     71  C         55.0810   13.7050   69.3010 C.2    71  SER71       0.2314
     72  O         55.2460   12.4920   69.4390 O.2    71  SER71      -0.2863
     73  CB        56.7510   14.8750   67.8410 C.3    71  SER71       0.2116
     74  OG        57.0580   15.2000   66.4980 O.3    71  SER71      -0.2180
     75  N         46.4790   19.4000   67.4570 N.3   124  ARG124     -0.1245
     76  CA        47.7370   18.7950   67.0220 C.3   124  ARG124      0.1563
     77  C         48.1090   17.6000   67.8950 C.2   124  ARG124      0.2260
     78  O         48.6510   16.6070   67.4000 O.2   124  ARG124     -0.2867
     79  CB        48.8560   19.8330   67.0230 C.3   124  ARG124      0.0307
     80  CG        48.7510   20.8470   65.8810 C.3   124  ARG124      0.0489
     81  CD        49.2590   20.2550   64.5640 C.3   124  ARG124      0.2205
     82  NE        50.7130   20.0780   64.5960 N.pl3 124  ARG124     -0.0865
     83  CZ        51.4260   19.5290   63.6160 C.cat 124  ARG124      0.5346
     84  NH1       50.8210   19.0960   62.5140 N.pl3 124  ARG124      0.1354
     85  NH2       52.7460   19.4260   63.7310 N.pl3 124  ARG124      0.1354
     86  N         66.7630    6.1280   60.4160 N.3   280  GLN280     -0.1231
     87  CA        65.8500    6.9530   59.6400 C.3   280  GLN280      0.1698
     88  C         65.7890    8.3940   60.1570 C.2   280  GLN280      0.2592
     89  O         65.8890    9.3350   59.3810 O.2   280  GLN280     -0.2718
     90  CB        64.4450    6.3430   59.6420 C.3   280  GLN280      0.0381
     91  CG        63.4820    7.1220   58.7830 C.3   280  GLN280      0.0905
     92  CD        62.0620    6.6570   58.9640 C.2   280  GLN280      0.2608
     93  OE1       61.3630    7.0990   59.8810 O.2   280  GLN280     -0.2717
     94  NE2       61.6140    5.7750   58.0850 N.am  280  GLN280     -0.0878
     95  N         65.6380    8.5620   61.4680 N.am  281  GLN281     -0.1979
     96  CA        65.4320    9.8970   62.0340 C.3   281  GLN281      0.1601
     97  C         66.7390   10.6560   62.2860 C.2   281  GLN281      0.2287
     98  O         66.8160   11.8640   62.0420 O.2   281  GLN281     -0.2864
     99  CB        64.6190    9.7910   63.3280 C.3   281  GLN281      0.0394
    100  CG        63.1770    9.3430   63.0690 C.3   281  GLN281      0.0908
    101  CD        62.4550   10.3360   62.1680 C.2   281  GLN281      0.2608
    102  OE1       62.6300   11.5470   62.2950 O.2   281  GLN281     -0.2717
    103  NE2       61.6650    9.8250   61.2350 N.am  281  GLN281     -0.0878
    104  N         64.1110   15.0700   58.7990 N.3   286  ASN286     -0.1240
    105  CA        63.0730   16.0850   59.0500 C.3   286  ASN286      0.1653
    106  C         63.6620   17.4480   59.3800 C.2   286  ASN286      0.2266
    107  O         63.0180   18.4630   59.1550 O.2   286  ASN286     -0.2867
    108  CB        62.0960   15.6190   60.1410 C.3   286  ASN286      0.1155
    109  CG        61.1930   14.4950   59.6390 C.2   286  ASN286      0.2627
    110  OD1       60.4930   14.6580   58.6410 O.2   286  ASN286     -0.2716
    111  ND2       61.1540   13.3850   60.3720 N.am  286  ASN286     -0.0877
    112  N         64.1430   22.7420   57.5810 N.3   291  TYR291     -0.1241
    113  CA        65.0210   23.8990   57.4470 C.3   291  TYR291      0.1605
    114  C         65.4780   24.1250   56.0020 C.2   291  TYR291      0.2264
    115  O         66.1710   25.1110   55.7310 O.2   291  TYR291     -0.2867
    116  CB        66.2220   23.7590   58.3900 C.3   291  TYR291      0.0534
    117  CG        65.8280   23.8810   59.8530 C.ar  291  TYR291     -0.0201
    118  CD1       65.5100   25.1190   60.4030 C.ar  291  TYR291     -0.0009
    119  CD2       65.7580   22.7660   60.6760 C.ar  291  TYR291     -0.0009
    120  CE1       65.1320   25.2400   61.7350 C.ar  291  TYR291      0.0417
    121  CE2       65.3820   22.8750   62.0080 C.ar  291  TYR291      0.0417
    122  CZ        65.0720   24.1160   62.5300 C.ar  291  TYR291      0.1957
    123  OH        64.6940   24.2330   63.8520 O.3   291  TYR291     -0.2866
    124  N         59.8840    1.3580   58.5100 N.3   386  TRP386     -0.1241
    125  CA        58.5040    1.2130   58.9320 C.3   386  TRP386      0.1605
    126  C         57.9610   -0.2080   58.7610 C.2   386  TRP386      0.2264
    127  O         57.2650   -0.7070   59.6450 O.2   386  TRP386     -0.2867
    128  CB        57.6120    2.1870   58.1700 C.3   386  TRP386      0.0550
    129  CG        57.7180    3.6270   58.6230 C.ar  386  TRP386      0.0003
    130  CD1       58.0180    4.7210   57.8470 C.ar  386  TRP386      0.0946
    131  CD2       57.4770    4.1390   59.9450 C.ar  386  TRP386      0.0152
    132  NE1       57.9880    5.8610   58.6030 N.ar  386  TRP386     -0.2442
    133  CE2       57.6630    5.5330   59.8940 C.ar  386  TRP386      0.0810
    134  CE3       57.1320    3.5490   61.1710 C.ar  386  TRP386      0.0012
    135  CZ2       57.5040    6.3540   61.0100 C.ar  386  TRP386      0.0191
    136  CZ3       56.9810    4.3790   62.2890 C.ar  386  TRP386      0.0001
    137  CH2       57.1670    5.7630   62.1910 C.ar  386  TRP386      0.0015
    138  N         60.9810    5.6630   66.9730 N.3   409  ASN409     -0.1225
    139  CA        61.0130    6.5120   65.7860 C.3   409  ASN409      0.1785
    140  C         60.5230    7.9300   66.1170 C.2   409  ASN409      0.2597
    141  O         61.2280    8.9150   65.8850 O.2   409  ASN409     -0.2718
    142  CB        60.1600    5.8770   64.6790 C.3   409  ASN409      0.1169
    143  CG        60.3670    6.5280   63.3270 C.2   409  ASN409      0.2627
    144  OD1       60.1930    7.7330   63.1840 O.2   409  ASN409     -0.2716
    145  ND2       60.7320    5.7330   62.3280 N.am  409  ASN409     -0.0877
    146  N         59.3210    8.0210   66.6820 N.am  410  TRP410     -0.1976
    147  CA        58.7400    9.3090   67.0540 C.3   410  TRP410      0.1640
    148  C         59.5780   10.0370   68.1060 C.2   410  TRP410      0.2290
    149  O         59.7240   11.2590   68.0550 O.2   410  TRP410     -0.2864
    150  CB        57.3150    9.1020   67.5790 C.3   410  TRP410      0.0576
    151  CG        56.2810    8.8350   66.5240 C.ar  410  TRP410      0.0006
    152  CD1       55.8980    7.6260   66.0310 C.ar  410  TRP410      0.0946
    153  CD2       55.4620    9.8130   65.8720 C.ar  410  TRP410      0.0152
    154  NE1       54.8950    7.7890   65.0960 N.ar  410  TRP410     -0.2442
    155  CE2       54.6130    9.1230   64.9800 C.ar  410  TRP410      0.0810
    156  CE3       55.3790   11.2110   65.9430 C.ar  410  TRP410      0.0012
    157  CZ2       53.6740    9.7870   64.1740 C.ar  410  TRP410      0.0191
    158  CZ3       54.4620   11.8650   65.1450 C.ar  410  TRP410      0.0001
    159  CH2       53.6110   11.1520   64.2770 C.ar  410  TRP410      0.0015
    160  N         62.7630   11.4530   66.5140 N.3   413  ASN413     -0.1225
    161  CA        62.3260   12.6580   65.8050 C.3   413  ASN413      0.1785
    162  C         62.1920   13.8380   66.7600 C.2   413  ASN413      0.2597
    163  O         62.6690   14.9420   66.4820 O.2   413  ASN413     -0.2718
    164  CB        60.9810   12.4240   65.0940 C.3   413  ASN413      0.1169
    165  CG        60.3570   13.7250   64.5700 C.2   413  ASN413      0.2627
    166  OD1       59.3410   14.2000   65.0900 O.2   413  ASN413     -0.2716
    167  ND2       60.9690   14.3070   63.5530 N.am  413  ASN413     -0.0877
    168  N         61.5430   13.5970   67.8940 N.am  414  PHE414     -0.1976
    169  CA        61.3280   14.6380   68.8910 C.3   414  PHE414      0.1639
    170  C         62.6730   15.2000   69.3690 C.2   414  PHE414      0.2290
    171  O         62.8610   16.4220   69.4550 O.2   414  PHE414     -0.2864
    172  CB        60.5070   14.0840   70.0670 C.3   414  PHE414      0.0560
    173  CG        60.2290   15.0940   71.1350 C.ar  414  PHE414     -0.0200
    174  CD1       59.1450   15.9510   71.0290 C.ar  414  PHE414     -0.0042
    175  CD2       61.0670   15.2090   72.2350 C.ar  414  PHE414     -0.0042
    176  CE1       58.8930   16.9020   72.0080 C.ar  414  PHE414     -0.0003
    177  CE2       60.8210   16.1630   73.2160 C.ar  414  PHE414     -0.0003
    178  CZ        59.7280   17.0050   73.1000 C.ar  414  PHE414     -0.0000
    179  N         64.3770   17.4090   66.7500 N.3   417  GLY417     -0.1210
    180  CA        63.7620   18.7250   66.7270 C.3   417  GLY417      0.1956
    181  C         64.1690   19.5760   67.9160 C.2   417  GLY417      0.2611
    182  O         64.3750   20.7820   67.7950 O.2   417  GLY417     -0.2717
    183  N         64.2930   18.9400   69.0720 N.am  418  LEU418     -0.1979
    184  CA        64.6190   19.6400   70.3080 C.3   418  LEU418      0.1596
    185  C         66.0560   20.1510   70.3320 C.2   418  LEU418      0.2287
    186  O         66.3280   21.2630   70.8030 O.2   418  LEU418     -0.2864
    187  CB        64.3900   18.7110   71.5000 C.3   418  LEU418      0.0297
    188  CG        64.7210   19.2620   72.8840 C.3   418  LEU418      0.0022
    189  CD1       63.6730   20.2820   73.3050 C.3   418  LEU418      0.0001
    190  CD2       64.8190   18.1300   73.8930 C.3   418  LEU418      0.0001
    191  N         68.3320   22.8930   66.7800 N.3   421  PRO421     -0.2116
    192  CA        68.5920   24.3430   66.7730 C.3   421  PRO421      0.1372
    193  C         69.8070   24.7410   67.6000 C.2   421  PRO421      0.2244
    194  O         70.5940   25.5690   67.1470 O.2   421  PRO421     -0.2868
    195  CB        67.3150   24.9350   67.3750 C.3   421  PRO421      0.0268
    196  CG        66.2590   23.9300   67.0640 C.3   421  PRO421      0.0207
    197  CD        66.9460   22.5950   67.1890 C.3   421  PRO421      0.0892
@<TRIPOS>BOND
     1   115   114    2
     2   114   113    1
     3   113   112    1
     4   113   116    1
     5   130   132   ar
     6   130   129   ar
     7     3     4    2
     8     3     2    1
     9     1     2    1
    10    94    92   am
    11   128   129    1
    12   128   125    1
    13   116   117    1
    14    14    15    2
    15    14    13    1
    16    19    20    1
    17   124   125    1
    18   132   133   ar
    19   129   131   ar
    20   110   109    2
    21     2     5    1
    22   126   125    1
    23   126   127    2
    24    91    92    1
    25    91    90    1
    26    18    16    1
    27   104   105    1
    28    16    13    1
    29    16    17    1
    30     8    10   ar
    31     8     6   ar
    32    92    93    2
    33    21    20    1
    34    21    22    2
    35     5     6    1
    36    12    13    1
    37   105   106    1
    38   105   108    1
    39   107   106    2
    40    10    11   ar
    41    89    88    2
    42    20    23    1
    43     6     7   ar
    44   109   108    1
    45   109   111   am
    46    87    90    1
    47    87    88    1
    48    87    86    1
    49   117   118   ar
    50   117   119   ar
    51   133   131   ar
    52   133   135   ar
    53   131   134   ar
    54    88    95   am
    55    11     9   ar
    56   118   120   ar
    57     7     9   ar
    58   119   121   ar
    59    23    25    1
    60    23    24    1
    61   135   137   ar
    62   134   136   ar
    63   103   101   am
    64    95    96    1
    65   120   122   ar
    66    24    26    1
    67   121   122   ar
    68    96    97    1
    69    96    99    1
    70    98    97    2
    71   101   102    2
    72   101   100    1
    73   137   136   ar
    74   145   143   am
    75    84    83    1
    76   122   123    1
    77    68    67   ar
    78    68    66   ar
    79    67    65   ar
    80   100    99    1
    81   144   143    2
    82   143   142    1
    83    66    64   ar
    84   167   165   am
    85    83    85    1
    86    83    82    2
    87    65    63   ar
    88   157   159   ar
    89   157   155   ar
    90   159   158   ar
    91    52    50    1
    92    51    50    1
    93    64    63   ar
    94    81    82    1
    95    81    80    1
    96   165   166    2
    97   165   164    1
    98   142   139    1
    99    63    62    1
   100   155   154   ar
   101   155   153   ar
   102   164   161    1
   103   154   152   ar
   104   158   156   ar
   105    50    47    1
   106   139   140    1
   107   139   138    1
   108   161   160    1
   109   161   162    1
   110   153   156   ar
   111   153   151   ar
   112    80    79    1
   113    62    59    1
   114   141   140    2
   115    47    48    1
   116    47    46    1
   117   152   151   ar
   118   140   146   am
   119    49    48    2
   120   163   162    2
   121    74    73    1
   122   151   150    1
   123    48    53   am
   124   146   147    1
   125   180   179    1
   126   180   181    1
   127   162   168   am
   128   192   191    1
   129   192   195    1
   130   192   193    1
   131   191   197    1
   132    76    79    1
   133    76    75    1
   134    76    77    1
   135   147   150    1
   136   147   148    1
   137   196   197    1
   138   196   195    1
   139   194   193    2
   140    59    60    1
   141    59    58    1
   142    78    77    2
   143    60    61    2
   144    60    69   am
   145    69    70    1
   146    32    31    1
   147   182   181    2
   148    53    54    1
   149    73    70    1
   150   168   169    1
   151   181   183   am
   152    70    71    1
   153   149   148    2
   154    40    41    1
   155    45    44    1
   156    41    42    1
   157    41    44    1
   158    54    55    1
   159    54    57    1
   160    33    31    1
   161    28    31    1
   162    28    27    1
   163    28    29    1
   164   169   170    1
   165   169   172    1
   166    43    42    2
   167   183   184    1
   168    30    29    2
   169    55    56    2
   170    71    72    2
   171   170   171    2
   172    29    34   am
   173   172   173    1
   174   184   185    1
   175   184   187    1
   176   185   186    2
   177    34    35    1
   178   174   173   ar
   179   174   176   ar
   180   173   175   ar
   181   187   188    1
   182    37    36    2
   183    36    35    1
   184    35    38    1
   185   176   178   ar
   186   175   177   ar
   187   188   189    1
   188   188   190    1
   189   178   177   ar
   190    38    39    1
