@<TRIPOS>MOLECULE
tmp/4zw9A00.pdb
 164 153 0 0 0
SMALL
GASTEIGER

@<TRIPOS>ATOM
      1  N         52.2340   15.7300   59.0470 N.3    28  THR28      -0.1203
      2  CA        53.6380   16.0570   59.2370 C.3    28  THR28       0.1994
      3  C         54.0120   17.3020   58.4480 C.2    28  THR28       0.2618
      4  O         54.6630   18.2140   58.9710 O.2    28  THR28      -0.2717
      5  CB        54.5350   14.8820   58.8130 C.3    28  THR28       0.1784
      6  OG1       54.3600   13.8100   59.7400 O.3    28  THR28      -0.2211
      7  CG2       56.0160   15.2980   58.7990 C.3    28  THR28       0.0376
      8  N         53.5980   17.3580   57.1880 N.am   29  GLY29      -0.1956
      9  CA        54.0390   18.4480   56.3290 C.3    29  GLY29       0.1869
     10  C         53.2090   19.7220   56.3420 C.2    29  GLY29       0.2309
     11  O         53.7150   20.8060   56.0540 O.2    29  GLY29      -0.2863
     12  N         51.8410   21.7600   58.4510 N.3    31  ILE31      -0.1231
     13  CA        51.9780   22.8680   59.3930 C.3    31  ILE31       0.1692
     14  C         53.0740   23.8470   58.9710 C.2    31  ILE31       0.2592
     15  O         53.0930   25.0010   59.4140 O.2    31  ILE31      -0.2718
     16  CB        52.2740   22.3320   60.8190 C.3    31  ILE31       0.0266
     17  CG1       52.0720   23.4210   61.8760 C.3    31  ILE31       0.0019
     18  CG2       53.6730   21.7360   60.9010 C.3    31  ILE31       0.0020
     19  CD1       50.6590   23.5680   62.3360 C.3    31  ILE31       0.0001
     20  N         53.9570   23.4140   58.0810 N.am   32  ASN32      -0.1960
     21  CA        55.1600   24.1980   57.7970 C.3    32  ASN32       0.1819
     22  C         54.9280   25.4300   56.9200 C.2    32  ASN32       0.2621
     23  O         55.3410   26.5290   57.2910 O.2    32  ASN32      -0.2715
     24  CB        56.2190   23.2850   57.1770 C.3    32  ASN32       0.1195
     25  CG        56.6920   22.2190   58.1470 C.2    32  ASN32       0.2630
     26  OD1       56.6190   22.4080   59.3650 O.2    32  ASN32      -0.2716
     27  ND2       57.1720   21.0870   57.6200 N.am   32  ASN32      -0.0877
     28  N         54.2670   25.2660   55.7780 N.am   33  ALA33      -0.1977
     29  CA        53.9980   26.4150   54.9010 C.3    33  ALA33       0.1597
     30  C         53.2690   27.5910   55.5960 C.2    33  ALA33       0.2287
     31  O         53.6700   28.7440   55.4100 O.2    33  ALA33      -0.2864
     32  CB        53.2140   25.9690   53.6680 C.3    33  ALA33       0.0319
     33  N         54.0350   31.4980   59.2340 N.3    36  LYS36      -0.1231
     34  CA        53.9220   32.9210   59.5240 C.3    36  LYS36       0.1693
     35  C         52.4730   33.3070   59.8180 C.2    36  LYS36       0.2591
     36  O         52.2050   34.0770   60.7360 O.2    36  LYS36      -0.2718
     37  CB        54.4920   33.7470   58.3710 C.3    36  LYS36       0.0285
     38  CG        56.0000   33.5980   58.2310 C.3    36  LYS36       0.0035
     39  CD        56.6990   33.8520   59.5710 C.3    36  LYS36       0.0206
     40  CE        58.0860   33.2250   59.6190 C.3    36  LYS36       0.1093
     41  NZ        58.6680   33.2780   60.9950 N.3    36  LYS36      -0.1314
     42  N         51.5410   32.7420   59.0580 N.am   37  ILE37      -0.1980
     43  CA        50.1220   32.9860   59.2770 C.3    37  ILE37       0.1595
     44  C         49.6620   32.4790   60.6420 C.2    37  ILE37       0.2287
     45  O         48.8740   33.1300   61.3290 O.2    37  ILE37      -0.2864
     46  CB        49.2740   32.3150   58.1860 C.3    37  ILE37       0.0276
     47  CG1       49.7910   32.7030   56.8020 C.3    37  ILE37       0.0022
     48  CG2       47.8270   32.7170   58.3340 C.3    37  ILE37       0.0022
     49  CD1       49.6590   34.1730   56.5000 C.3    37  ILE37       0.0001
     50  N         53.9260   22.7090   66.7840 N.3    67  VAL67      -0.1245
     51  CA        54.5390   21.7320   65.9080 C.3    67  VAL67       0.1561
     52  C         54.8690   20.4650   66.6800 C.2    67  VAL67       0.2260
     53  O         54.4680   19.3640   66.2850 O.2    67  VAL67      -0.2867
     54  CB        55.8100   22.2900   65.2530 C.3    67  VAL67       0.0252
     55  CG1       56.5200   21.2100   64.4450 C.3    67  VAL67       0.0019
     56  CG2       55.4580   23.4780   64.3690 C.3    67  VAL67       0.0019
     57  N         52.4890   17.4770   68.2620 N.3    70  PHE70      -0.1241
     58  CA        52.1450   16.4270   67.3050 C.3    70  PHE70       0.1605
     59  C         53.0590   15.2120   67.5240 C.2    70  PHE70       0.2264
     60  O         52.5900   14.0730   67.5620 O.2    70  PHE70      -0.2867
     61  CB        52.2760   16.9800   65.8830 C.3    70  PHE70       0.0534
     62  CG        52.0530   15.9720   64.8010 C.ar   70  PHE70      -0.0203
     63  CD1       50.7880   15.4680   64.5530 C.ar   70  PHE70      -0.0042
     64  CD2       53.1060   15.5580   63.9960 C.ar   70  PHE70      -0.0042
     65  CE1       50.5750   14.5380   63.5430 C.ar   70  PHE70      -0.0003
     66  CE2       52.9030   14.6230   62.9820 C.ar   70  PHE70      -0.0003
     67  CZ        51.6330   14.1230   62.7490 C.ar   70  PHE70      -0.0000
     68  N         46.4790   19.4000   67.4570 N.3   124  ARG124     -0.1245
     69  CA        47.7370   18.7950   67.0220 C.3   124  ARG124      0.1563
     70  C         48.1090   17.6000   67.8950 C.2   124  ARG124      0.2260
     71  O         48.6510   16.6070   67.4000 O.2   124  ARG124     -0.2867
     72  CB        48.8560   19.8330   67.0230 C.3   124  ARG124      0.0307
     73  CG        48.7510   20.8470   65.8810 C.3   124  ARG124      0.0489
     74  CD        49.2590   20.2550   64.5640 C.3   124  ARG124      0.2205
     75  NE        50.7130   20.0780   64.5960 N.pl3 124  ARG124     -0.0865
     76  CZ        51.4260   19.5290   63.6160 C.cat 124  ARG124      0.5346
     77  NH1       50.8210   19.0960   62.5140 N.pl3 124  ARG124      0.1354
     78  NH2       52.7460   19.4260   63.7310 N.pl3 124  ARG124      0.1354
     79  N         52.7610   14.2950   52.2950 N.3   166  ILE166     -0.1245
     80  CA        53.6260   15.4750   52.4350 C.3   166  ILE166      0.1561
     81  C         53.5040   16.4070   51.2350 C.2   166  ILE166      0.2260
     82  O         53.3650   17.6250   51.3950 O.2   166  ILE166     -0.2867
     83  CB        55.1040   15.0580   52.6070 C.3   166  ILE166      0.0252
     84  CG1       55.2940   14.4150   53.9790 C.3   166  ILE166      0.0019
     85  CG2       56.0190   16.2820   52.4690 C.3   166  ILE166      0.0019
     86  CD1       56.6460   13.7070   54.1650 C.3   166  ILE166      0.0001
     87  N         52.1510   20.2520   50.9480 N.3   170  GLN170     -0.1245
     88  CA        52.9590   21.3520   50.4180 C.3   170  GLN170      0.1566
     89  C         52.2040   22.1230   49.3490 C.2   170  GLN170      0.2260
     90  O         52.2170   23.3650   49.3380 O.2   170  GLN170     -0.2867
     91  CB        54.2690   20.8280   49.8330 C.3   170  GLN170      0.0367
     92  CG        55.2350   20.2600   50.8480 C.3   170  GLN170      0.0905
     93  CD        56.4990   19.7740   50.1900 C.2   170  GLN170      0.2608
     94  OE1       56.4820   18.8210   49.4180 O.2   170  GLN170     -0.2717
     95  NE2       57.6080   20.4520   50.4660 N.am  170  GLN170     -0.0878
     96  N         64.1110   15.0700   58.7990 N.3   286  ASN286     -0.1240
     97  CA        63.0730   16.0850   59.0500 C.3   286  ASN286      0.1653
     98  C         63.6620   17.4480   59.3800 C.2   286  ASN286      0.2266
     99  O         63.0180   18.4630   59.1550 O.2   286  ASN286     -0.2867
    100  CB        62.0960   15.6190   60.1410 C.3   286  ASN286      0.1155
    101  CG        61.1930   14.4950   59.6390 C.2   286  ASN286      0.2627
    102  OD1       60.4930   14.6580   58.6410 O.2   286  ASN286     -0.2716
    103  ND2       61.1540   13.3850   60.3720 N.am  286  ASN286     -0.0877
    104  N         64.5150   18.6400   55.8640 N.3   289  PHE289     -0.1227
    105  CA        63.3090   19.0380   55.1830 C.3   289  PHE289      0.1736
    106  C         62.7200   20.3230   55.7460 C.2   289  PHE289      0.2595
    107  O         62.3860   21.1950   55.0420 O.2   289  PHE289     -0.2718
    108  CB        62.2930   17.9210   55.2780 C.3   289  PHE289      0.0547
    109  CG        61.6980   17.5370   53.9860 C.ar  289  PHE289     -0.0202
    110  CD1       61.3090   18.4730   53.0930 C.ar  289  PHE289     -0.0042
    111  CD2       61.5130   16.2440   53.7030 C.ar  289  PHE289     -0.0042
    112  CE1       60.7180   18.1320   51.9150 C.ar  289  PHE289     -0.0003
    113  CE2       60.9770   15.8640   52.5110 C.ar  289  PHE289     -0.0003
    114  CZ        60.5560   16.8200   51.6140 C.ar  289  PHE289     -0.0000
    115  N         62.5970   20.4080   57.0430 N.am  290  TYR290     -0.1976
    116  CA        62.0050   21.6020   57.6430 C.3   290  TYR290      0.1639
    117  C         62.8400   22.8480   57.3670 C.2   290  TYR290      0.2290
    118  O         62.3050   23.8880   56.9630 O.2   290  TYR290     -0.2864
    119  CB        61.8310   21.4370   59.1570 C.3   290  TYR290      0.0560
    120  CG        61.2580   22.6730   59.8140 C.ar  290  TYR290     -0.0198
    121  CD1       59.9040   22.9630   59.7120 C.ar  290  TYR290     -0.0009
    122  CD2       62.0690   23.5450   60.5310 C.ar  290  TYR290     -0.0009
    123  CE1       59.3720   24.1020   60.2990 C.ar  290  TYR290      0.0417
    124  CE2       61.5470   24.6790   61.1240 C.ar  290  TYR290      0.0417
    125  CZ        60.1970   24.9470   61.0060 C.ar  290  TYR290      0.1957
    126  OH        59.6740   26.0750   61.5990 O.3   290  TYR290     -0.2866
    127  N         63.8930   25.2440   53.4200 N.3   293  THR293     -0.1218
    128  CA        63.4590   26.5150   52.8750 C.3   293  THR293      0.1862
    129  C         64.4840   27.5970   53.1810 C.2   293  THR293      0.2287
    130  O         64.8600   28.3700   52.2990 O.2   293  THR293     -0.2866
    131  CB        62.0980   26.9280   53.4250 C.3   293  THR293      0.1770
    132  OG1       61.1950   25.8150   53.3280 O.3   293  THR293     -0.2211
    133  CG2       61.5520   28.0980   52.6250 C.3   293  THR293      0.0375
    134  N         60.2420   28.3180   48.1760 N.3   305  ILE305     -0.1245
    135  CA        59.1060   27.4110   48.3060 C.3   305  ILE305      0.1561
    136  C         59.0570   26.4250   47.1410 C.2   305  ILE305      0.2260
    137  O         58.7110   25.2510   47.3230 O.2   305  ILE305     -0.2867
    138  CB        57.7560   28.1910   48.4100 C.3   305  ILE305      0.0252
    139  CG1       56.5870   27.2320   48.6420 C.3   305  ILE305      0.0019
    140  CG2       57.5020   29.0460   47.1740 C.3   305  ILE305      0.0019
    141  CD1       56.5960   26.5830   50.0070 C.3   305  ILE305      0.0001
    142  N         61.5340   23.6900   47.7130 N.3   308  THR308     -0.1203
    143  CA        61.0830   22.7580   48.7490 C.3   308  THR308      0.1994
    144  C         59.9710   21.8490   48.2080 C.2   308  THR308      0.2617
    145  O         59.9110   20.6610   48.5400 O.2   308  THR308     -0.2717
    146  CB        60.6140   23.5070   50.0080 C.3   308  THR308      0.1784
    147  OG1       61.6950   24.3120   50.4990 O.3   308  THR308     -0.2211
    148  CG2       60.2290   22.5310   51.1020 C.3   308  THR308      0.0376
    149  N         59.1140   22.3790   47.3430 N.am  309  ILE309     -0.1979
    150  CA        58.1390   21.5270   46.6630 C.3   309  ILE309      0.1595
    151  C         58.8590   20.5850   45.6950 C.2   309  ILE309      0.2287
    152  O         58.5030   19.4090   45.5680 O.2   309  ILE309     -0.2864
    153  CB        57.0770   22.3610   45.9250 C.3   309  ILE309      0.0276
    154  CG1       56.1970   23.0800   46.9500 C.3   309  ILE309      0.0022
    155  CG2       56.2290   21.4710   45.0260 C.3   309  ILE309      0.0022
    156  CD1       55.2300   24.0990   46.3510 C.3   309  ILE309      0.0001
    157  N         62.7630   11.4530   66.5140 N.3   413  ASN413     -0.1240
    158  CA        62.3260   12.6580   65.8050 C.3   413  ASN413      0.1653
    159  C         62.1920   13.8380   66.7600 C.2   413  ASN413      0.2266
    160  O         62.6690   14.9420   66.4820 O.2   413  ASN413     -0.2867
    161  CB        60.9810   12.4240   65.0940 C.3   413  ASN413      0.1155
    162  CG        60.3570   13.7250   64.5700 C.2   413  ASN413      0.2627
    163  OD1       59.3410   14.2000   65.0900 O.2   413  ASN413     -0.2716
    164  ND2       60.9690   14.3070   63.5530 N.am  413  ASN413     -0.0877
@<TRIPOS>BOND
     1   155   153    1
     2   152   151    2
     3   151   150    1
     4   153   150    1
     5   153   154    1
     6   156   154    1
     7   150   149    1
     8   136   137    2
     9   136   135    1
    10   140   138    1
    11   149   144   am
    12   142   143    1
    13   134   135    1
    14   144   145    2
    15   144   143    1
    16   135   138    1
    17   138   139    1
    18   139   141    1
    19   143   146    1
    20    90    89    2
    21    89    88    1
    22    94    93    2
    23    91    88    1
    24    91    92    1
    25   146   147    1
    26   146   148    1
    27    93    95   am
    28    93    92    1
    29    88    87    1
    30    81    82    2
    31    81    80    1
    32   114   112   ar
    33   114   113   ar
    34   112   110   ar
    35    79    80    1
    36   130   129    2
    37    80    83    1
    38    85    83    1
    39   113   111   ar
    40    83    84    1
    41   133   131    1
    42   128   129    1
    43   128   127    1
    44   128   131    1
    45   110   109   ar
    46   132   131    1
    47    32    29    1
    48   111   109   ar
    49    84    86    1
    50   109   108    1
    51    29    30    1
    52    29    28    1
    53   107   106    2
    54   105   108    1
    55   105   106    1
    56   105   104    1
    57    31    30    2
    58   106   115   am
    59    28    22   am
    60    11    10    2
    61     9    10    1
    62     9     8    1
    63    49    47    1
    64    47    46    1
    65    22    23    2
    66    22    21    1
    67   118   117    2
    68   115   116    1
    69    24    21    1
    70    24    25    1
    71     8     3   am
    72   117   116    1
    73    27    25   am
    74   116   119    1
    75    21    20    1
    76    20    14   am
    77    25    26    2
    78    46    48    1
    79    46    43    1
    80    38    37    1
    81    38    39    1
    82    37    34    1
    83     3     4    2
    84     3     2    1
    85    12    13    1
    86   102   101    2
    87     7     5    1
    88    96    97    1
    89     5     2    1
    90     5     6    1
    91    14    13    1
    92    14    15    2
    93     1     2    1
    94    97    98    1
    95    97   100    1
    96    42    43    1
    97    42    35   am
    98    99    98    2
    99   119   120    1
   100    33    34    1
   101    43    44    1
   102    13    16    1
   103    34    35    1
   104    39    40    1
   105    40    41    1
   106   101   100    1
   107   101   103   am
   108   121   120   ar
   109   121   123   ar
   110   120   122   ar
   111    35    36    2
   112   123   125   ar
   113   122   124   ar
   114    44    45    2
   115    16    18    1
   116    16    17    1
   117   125   124   ar
   118   125   126    1
   119    17    19    1
   120    77    76    1
   121    67    66   ar
   122    67    65   ar
   123    66    64   ar
   124    65    63   ar
   125   164   162   am
   126    76    78    1
   127    76    75    2
   128    64    62   ar
   129    56    54    1
   130    55    54    1
   131    63    62   ar
   132    74    75    1
   133    74    73    1
   134   162   163    2
   135   162   161    1
   136    62    61    1
   137   161   158    1
   138    54    51    1
   139   158   157    1
   140   158   159    1
   141    73    72    1
   142    61    58    1
   143    51    52    1
   144    51    50    1
   145    53    52    2
   146   160   159    2
   147    69    72    1
   148    69    68    1
   149    69    70    1
   150    58    59    1
   151    58    57    1
   152    71    70    2
   153    59    60    2
