@<TRIPOS>MOLECULE
tmp/4zw9A04.pdb
 149 141 0 0 0
SMALL
GASTEIGER

@<TRIPOS>ATOM
      1  N         49.4280   10.5860   58.0310 N.3    24  PHE24      -0.1241
      2  CA        50.6670   10.8550   58.7330 C.3    24  PHE24       0.1605
      3  C         51.5250   11.8410   57.9300 C.2    24  PHE24       0.2264
      4  O         51.9870   12.8470   58.4710 O.2    24  PHE24      -0.2867
      5  CB        51.4080    9.5350   59.0040 C.3    24  PHE24       0.0534
      6  CG        52.8290    9.7110   59.4850 C.ar   24  PHE24      -0.0203
      7  CD1       53.1370   10.5730   60.5280 C.ar   24  PHE24      -0.0042
      8  CD2       53.8600    9.0030   58.8890 C.ar   24  PHE24      -0.0042
      9  CE1       54.4490   10.7220   60.9610 C.ar   24  PHE24      -0.0003
     10  CE2       55.1760    9.1480   59.3200 C.ar   24  PHE24      -0.0003
     11  CZ        55.4680   10.0090   60.3570 C.ar   24  PHE24      -0.0000
     12  N         52.2340   15.7300   59.0470 N.3    28  THR28      -0.1218
     13  CA        53.6380   16.0570   59.2370 C.3    28  THR28       0.1862
     14  C         54.0120   17.3020   58.4480 C.2    28  THR28       0.2287
     15  O         54.6630   18.2140   58.9710 O.2    28  THR28      -0.2866
     16  CB        54.5350   14.8820   58.8130 C.3    28  THR28       0.1770
     17  OG1       54.3600   13.8100   59.7400 O.3    28  THR28      -0.2211
     18  CG2       56.0160   15.2980   58.7990 C.3    28  THR28       0.0375
     19  N         55.0240    3.9920   52.8850 N.3   159  GLN159     -0.1245
     20  CA        55.8290    5.1910   52.6910 C.3   159  GLN159      0.1566
     21  C         55.3740    5.9920   51.4670 C.2   159  GLN159      0.2260
     22  O         55.4580    7.2110   51.4750 O.2   159  GLN159     -0.2867
     23  CB        57.3150    4.8240   52.5670 C.3   159  GLN159      0.0367
     24  CG        58.2560    6.0320   52.3900 C.3   159  GLN159      0.0905
     25  CD        58.4390    6.8500   53.6510 C.2   159  GLN159      0.2608
     26  OE1       57.8570    6.5600   54.6900 O.2   159  GLN159     -0.2717
     27  NE2       59.2460    7.9070   53.5600 N.am  159  GLN159     -0.0878
     28  N         52.7500    8.1510   52.6910 N.3   162  ILE162     -0.1231
     29  CA        53.3230    9.2090   53.5190 C.3   162  ILE162      0.1692
     30  C         53.8820   10.3430   52.6510 C.2   162  ILE162      0.2591
     31  O         53.5890   11.5220   52.8970 O.2   162  ILE162     -0.2718
     32  CB        54.4270    8.6590   54.4580 C.3   162  ILE162      0.0266
     33  CG1       53.8050    7.6860   55.4650 C.3   162  ILE162      0.0019
     34  CG2       55.1180    9.8030   55.1890 C.3   162  ILE162      0.0020
     35  CD1       54.8660    6.8850   56.2260 C.3   162  ILE162      0.0001
     36  N         54.6590   10.0110   51.6200 N.am  163  VAL163     -0.1980
     37  CA        55.3020   11.0780   50.8450 C.3   163  VAL163      0.1595
     38  C         54.2870   11.7870   49.9470 C.2   163  VAL163      0.2287
     39  O         54.4160   12.9850   49.6910 O.2   163  VAL163     -0.2864
     40  CB        56.4960   10.5470   50.0190 C.3   163  VAL163      0.0276
     41  CG1       57.5260    9.9020   50.9510 C.3   163  VAL163      0.0022
     42  CG2       56.0400    9.5530   48.9510 C.3   163  VAL163      0.0022
     43  N         52.7610   14.2950   52.2950 N.3   166  ILE166     -0.1245
     44  CA        53.6260   15.4750   52.4350 C.3   166  ILE166      0.1561
     45  C         53.5040   16.4070   51.2350 C.2   166  ILE166      0.2260
     46  O         53.3650   17.6250   51.3950 O.2   166  ILE166     -0.2867
     47  CB        55.1040   15.0580   52.6070 C.3   166  ILE166      0.0252
     48  CG1       55.2940   14.4150   53.9790 C.3   166  ILE166      0.0019
     49  CG2       56.0190   16.2820   52.4690 C.3   166  ILE166      0.0019
     50  CD1       56.6460   13.7070   54.1650 C.3   166  ILE166      0.0001
     51  N         66.7630    6.1280   60.4160 N.3   280  GLN280     -0.1231
     52  CA        65.8500    6.9530   59.6400 C.3   280  GLN280      0.1698
     53  C         65.7890    8.3940   60.1570 C.2   280  GLN280      0.2592
     54  O         65.8890    9.3350   59.3810 O.2   280  GLN280     -0.2718
     55  CB        64.4450    6.3430   59.6420 C.3   280  GLN280      0.0381
     56  CG        63.4820    7.1220   58.7830 C.3   280  GLN280      0.0905
     57  CD        62.0620    6.6570   58.9640 C.2   280  GLN280      0.2608
     58  OE1       61.3630    7.0990   59.8810 O.2   280  GLN280     -0.2717
     59  NE2       61.6140    5.7750   58.0850 N.am  280  GLN280     -0.0878
     60  N         65.6380    8.5620   61.4680 N.am  281  GLN281     -0.1979
     61  CA        65.4320    9.8970   62.0340 C.3   281  GLN281      0.1601
     62  C         66.7390   10.6560   62.2860 C.2   281  GLN281      0.2287
     63  O         66.8160   11.8640   62.0420 O.2   281  GLN281     -0.2864
     64  CB        64.6190    9.7910   63.3280 C.3   281  GLN281      0.0394
     65  CG        63.1770    9.3430   63.0690 C.3   281  GLN281      0.0908
     66  CD        62.4550   10.3360   62.1680 C.2   281  GLN281      0.2608
     67  OE1       62.6300   11.5470   62.2950 O.2   281  GLN281     -0.2717
     68  NE2       61.6650    9.8250   61.2350 N.am  281  GLN281     -0.0878
     69  N         66.6910   13.7220   58.3630 N.3   285  ILE285     -0.1231
     70  CA        65.7260   13.9730   57.2860 C.3   285  ILE285      0.1692
     71  C         64.7100   15.0720   57.6110 C.2   285  ILE285      0.2592
     72  O         64.4800   15.9520   56.7910 O.2   285  ILE285     -0.2718
     73  CB        64.9580   12.6670   56.8890 C.3   285  ILE285      0.0266
     74  CG1       63.9970   12.9230   55.7240 C.3   285  ILE285      0.0019
     75  CG2       64.2540   12.0210   58.0960 C.3   285  ILE285      0.0020
     76  CD1       64.6750   13.3400   54.4270 C.3   285  ILE285      0.0001
     77  N         64.1110   15.0700   58.7990 N.am  286  ASN286     -0.1974
     78  CA        63.0730   16.0850   59.0500 C.3   286  ASN286      0.1688
     79  C         63.6620   17.4480   59.3800 C.2   286  ASN286      0.2292
     80  O         63.0180   18.4630   59.1550 O.2   286  ASN286     -0.2864
     81  CB        62.0960   15.6190   60.1410 C.3   286  ASN286      0.1181
     82  CG        61.1930   14.4950   59.6390 C.2   286  ASN286      0.2629
     83  OD1       60.4930   14.6580   58.6410 O.2   286  ASN286     -0.2716
     84  ND2       61.1540   13.3850   60.3720 N.am  286  ASN286     -0.0877
     85  N         64.5150   18.6400   55.8640 N.3   289  PHE289     -0.1241
     86  CA        63.3090   19.0380   55.1830 C.3   289  PHE289      0.1605
     87  C         62.7200   20.3230   55.7460 C.2   289  PHE289      0.2264
     88  O         62.3860   21.1950   55.0420 O.2   289  PHE289     -0.2867
     89  CB        62.2930   17.9210   55.2780 C.3   289  PHE289      0.0534
     90  CG        61.6980   17.5370   53.9860 C.ar  289  PHE289     -0.0203
     91  CD1       61.3090   18.4730   53.0930 C.ar  289  PHE289     -0.0042
     92  CD2       61.5130   16.2440   53.7030 C.ar  289  PHE289     -0.0042
     93  CE1       60.7180   18.1320   51.9150 C.ar  289  PHE289     -0.0003
     94  CE2       60.9770   15.8640   52.5110 C.ar  289  PHE289     -0.0003
     95  CZ        60.5560   16.8200   51.6140 C.ar  289  PHE289     -0.0000
     96  N         61.1120   13.4300   46.6280 N.3   315  ASN315     -0.1240
     97  CA        60.7100   12.5640   47.7430 C.3   315  ASN315      0.1653
     98  C         59.7260   11.4800   47.2830 C.2   315  ASN315      0.2266
     99  O         59.7920   10.3300   47.6990 O.2   315  ASN315     -0.2867
    100  CB        60.0980   13.4530   48.8470 C.3   315  ASN315      0.1155
    101  CG        60.0570   12.7860   50.2220 C.2   315  ASN315      0.2627
    102  OD1       59.0690   12.9250   50.9710 O.2   315  ASN315     -0.2716
    103  ND2       61.1210   12.1030   50.5740 N.am  315  ASN315     -0.0877
    104  N         67.4550    9.1530   50.6950 N.3   377  PHE377     -0.1227
    105  CA        66.6160    8.8030   51.8340 C.3   377  PHE377      0.1736
    106  C         65.5130    7.8400   51.4100 C.2   377  PHE377      0.2595
    107  O         65.2700    6.8230   52.0670 O.2   377  PHE377     -0.2718
    108  CB        65.9980   10.0590   52.4680 C.3   377  PHE377      0.0547
    109  CG        65.0710    9.7570   53.6050 C.ar  377  PHE377     -0.0202
    110  CD1       65.5680    9.4170   54.8570 C.ar  377  PHE377     -0.0042
    111  CD2       63.6950    9.8130   53.4230 C.ar  377  PHE377     -0.0042
    112  CE1       64.7160    9.1230   55.9100 C.ar  377  PHE377     -0.0003
    113  CE2       62.8250    9.5300   54.4700 C.ar  377  PHE377     -0.0003
    114  CZ        63.3360    9.1850   55.7210 C.ar  377  PHE377     -0.0000
    115  N         64.8520    8.1370   50.2980 N.am  378  GLU378     -0.1979
    116  CA        63.6900    7.3260   49.9340 C.3   378  GLU378      0.1602
    117  C         64.0460    6.0190   49.2360 C.2   378  GLU378      0.2287
    118  O         63.1880    5.1530   49.0960 O.2   378  GLU378     -0.2864
    119  CB        62.7270    8.1370   49.0730 C.3   378  GLU378      0.0415
    120  CG        62.1180    9.3310   49.7930 C.3   378  GLU378      0.1163
    121  CD        61.3080    8.9780   51.0600 C.2   378  GLU378      0.3649
    122  OE1       61.1230    7.7890   51.3640 O.co2 378  GLU378     -0.2457
    123  OE2       60.8510    9.9220   51.7590 O.co2 378  GLU378     -0.2457
    124  N         63.7800    5.6950   54.1310 N.3   382  GLY382     -0.1225
    125  CA        62.3890    6.1040   54.2930 C.3   382  GLY382      0.1811
    126  C         61.4560    4.9070   54.4540 C.2   382  GLY382      0.2280
    127  O         60.8390    4.7060   55.4990 O.2   382  GLY382     -0.2866
    128  N         59.8840    1.3580   58.5100 N.3   386  TRP386     -0.1241
    129  CA        58.5040    1.2130   58.9320 C.3   386  TRP386      0.1605
    130  C         57.9610   -0.2080   58.7610 C.2   386  TRP386      0.2264
    131  O         57.2650   -0.7070   59.6450 O.2   386  TRP386     -0.2867
    132  CB        57.6120    2.1870   58.1700 C.3   386  TRP386      0.0550
    133  CG        57.7180    3.6270   58.6230 C.ar  386  TRP386      0.0003
    134  CD1       58.0180    4.7210   57.8470 C.ar  386  TRP386      0.0946
    135  CD2       57.4770    4.1390   59.9450 C.ar  386  TRP386      0.0152
    136  NE1       57.9880    5.8610   58.6030 N.ar  386  TRP386     -0.2442
    137  CE2       57.6630    5.5330   59.8940 C.ar  386  TRP386      0.0810
    138  CE3       57.1320    3.5490   61.1710 C.ar  386  TRP386      0.0012
    139  CZ2       57.5040    6.3540   61.0100 C.ar  386  TRP386      0.0191
    140  CZ3       56.9810    4.3790   62.2890 C.ar  386  TRP386      0.0001
    141  CH2       57.1670    5.7630   62.1910 C.ar  386  TRP386      0.0015
    142  N         62.7630   11.4530   66.5140 N.3   413  ASN413     -0.1240
    143  CA        62.3260   12.6580   65.8050 C.3   413  ASN413      0.1653
    144  C         62.1920   13.8380   66.7600 C.2   413  ASN413      0.2266
    145  O         62.6690   14.9420   66.4820 O.2   413  ASN413     -0.2867
    146  CB        60.9810   12.4240   65.0940 C.3   413  ASN413      0.1155
    147  CG        60.3570   13.7250   64.5700 C.2   413  ASN413      0.2627
    148  OD1       59.3410   14.2000   65.0900 O.2   413  ASN413     -0.2716
    149  ND2       60.9690   14.3070   63.5530 N.am  413  ASN413     -0.0877
@<TRIPOS>BOND
     1    96    97    1
     2    98    99    2
     3    98    97    1
     4    97   100    1
     5   100   101    1
     6    42    40    1
     7   119   120    1
     8   119   116    1
     9   118   117    2
    10   117   116    1
    11    39    38    2
    12   120   121    1
    13   116   115    1
    14    38    37    1
    15    40    37    1
    16    40    41    1
    17   101   103   am
    18   101   102    2
    19   115   106   am
    20   104   105    1
    21    37    36    1
    22   121   122   ar
    23   121   123   ar
    24    45    46    2
    25    45    44    1
    26   106   105    1
    27   106   107    2
    28    21    22    2
    29    21    20    1
    30    95    93   ar
    31    95    94   ar
    32    36    30   am
    33   105   108    1
    34    93    91   ar
    35    43    44    1
    36    24    23    1
    37    24    25    1
    38    44    47    1
    39   108   109    1
    40    49    47    1
    41    94    92   ar
    42    23    20    1
    43    47    48    1
    44    30    31    2
    45    30    29    1
    46    20    19    1
    47    28    29    1
    48    91    90   ar
    49   111   109   ar
    50   111   113   ar
    51    29    32    1
    52    27    25   am
    53   109   110   ar
    54    25    26    2
    55    92    90   ar
    56    48    50    1
    57    90    89    1
    58   124   125    1
    59   125   126    1
    60    76    74    1
    61   126   127    2
    62    32    34    1
    63    32    33    1
    64   113   114   ar
    65   110   112   ar
    66    88    87    2
    67    86    89    1
    68    86    87    1
    69    86    85    1
    70    33    35    1
    71   114   112   ar
    72    74    73    1
    73    72    71    2
    74    73    70    1
    75    73    75    1
    76    70    71    1
    77    70    69    1
    78    71    77   am
    79   134   136   ar
    80   134   133   ar
    81     3     4    2
    82     3     2    1
    83     1     2    1
    84    59    57   am
    85   132   133    1
    86   132   129    1
    87    14    15    2
    88    14    13    1
    89   128   129    1
    90   136   137   ar
    91   133   135   ar
    92    83    82    2
    93     2     5    1
    94   130   129    1
    95   130   131    2
    96    56    57    1
    97    56    55    1
    98    77    78    1
    99    18    16    1
   100    16    13    1
   101    16    17    1
   102     8    10   ar
   103     8     6   ar
   104    57    58    2
   105     5     6    1
   106    12    13    1
   107    78    79    1
   108    78    81    1
   109    80    79    2
   110    10    11   ar
   111    54    53    2
   112     6     7   ar
   113    82    81    1
   114    82    84   am
   115    52    55    1
   116    52    53    1
   117    52    51    1
   118   137   135   ar
   119   137   139   ar
   120   135   138   ar
   121    53    60   am
   122    11     9   ar
   123     7     9   ar
   124   139   141   ar
   125   138   140   ar
   126    68    66   am
   127    60    61    1
   128    61    62    1
   129    61    64    1
   130    63    62    2
   131    66    67    2
   132    66    65    1
   133   141   140   ar
   134    65    64    1
   135   149   147   am
   136   147   148    2
   137   147   146    1
   138   146   143    1
   139   143   142    1
   140   143   144    1
   141   145   144    2
