@<TRIPOS>MOLECULE
tmp/4zwcA01.pdb
 133 130 0 0 0
SMALL
GASTEIGER

@<TRIPOS>ATOM
      1  N        -54.1110  -11.2400   -0.6320 N.3   266  GLN266     -0.1245
      2  CA       -55.1840  -10.5740    0.0670 C.3   266  GLN266      0.1566
      3  C        -54.7860  -10.0400    1.4550 C.2   266  GLN266      0.2260
      4  O        -55.2720   -8.9800    1.8490 O.2   266  GLN266     -0.2867
      5  CB       -56.4110  -11.4750    0.1560 C.3   266  GLN266      0.0367
      6  CG       -57.5120  -10.8270   -0.6930 C.3   266  GLN266      0.0905
      7  CD       -58.8910  -11.0970   -0.2120 C.2   266  GLN266      0.2608
      8  OE1      -59.4250  -12.1880   -0.4020 O.2   266  GLN266     -0.2717
      9  NE2      -59.4790  -10.1150    0.4610 N.am  266  GLN266     -0.0878
     10  N        -62.4190   -5.7770   13.6370 N.3   330  ARG330     -0.1245
     11  CA       -63.4970   -5.4630   12.7090 C.3   330  ARG330      0.1563
     12  C        -64.4940   -4.4650   13.2760 C.2   330  ARG330      0.2260
     13  O        -64.8670   -3.4940   12.6280 O.2   330  ARG330     -0.2867
     14  CB       -64.2550   -6.7320   12.3250 C.3   330  ARG330      0.0307
     15  CG       -63.5470   -7.6680   11.3650 C.3   330  ARG330      0.0489
     16  CD       -64.3900   -8.9380   11.1700 C.3   330  ARG330      0.2205
     17  NE       -65.7730   -8.6490   10.7770 N.pl3 330  ARG330     -0.0865
     18  CZ       -66.1600   -8.4220    9.5240 C.cat 330  ARG330      0.5346
     19  NH1      -65.2710   -8.4370    8.5390 N.pl3 330  ARG330      0.1354
     20  NH2      -67.4310   -8.1540    9.2470 N.pl3 330  ARG330      0.1354
     21  N        -66.3140   -4.6440    6.1440 N.3   445  PHE445     -0.1227
     22  CA       -67.3900   -5.5930    6.4230 C.3   445  PHE445      0.1736
     23  C        -67.2290   -6.9170    5.6770 C.2   445  PHE445      0.2595
     24  O        -67.3250   -7.9910    6.2830 O.2   445  PHE445     -0.2718
     25  CB       -68.7590   -4.9990    6.0860 C.3   445  PHE445      0.0547
     26  CG       -69.8970   -5.9340    6.3790 C.ar  445  PHE445     -0.0202
     27  CD1      -70.2990   -6.1730    7.6850 C.ar  445  PHE445     -0.0042
     28  CD2      -70.5450   -6.6180    5.3480 C.ar  445  PHE445     -0.0042
     29  CE1      -71.3560   -7.0700    7.9630 C.ar  445  PHE445     -0.0003
     30  CE2      -71.5950   -7.5010    5.6140 C.ar  445  PHE445     -0.0003
     31  CZ       -71.9990   -7.7280    6.9280 C.ar  445  PHE445     -0.0000
     32  N        -66.9710   -6.8360    4.3710 N.am  446  PHE446     -0.1962
     33  CA       -66.8610   -8.0340    3.5340 C.3   446  PHE446      0.1771
     34  C        -65.4770   -8.6630    3.4810 C.2   446  PHE446      0.2619
     35  O        -65.3680   -9.8680    3.2930 O.2   446  PHE446     -0.2715
     36  CB       -67.2930   -7.7310    2.0840 C.3   446  PHE446      0.0574
     37  CG       -68.7230   -7.3160    1.9530 C.ar  446  PHE446     -0.0200
     38  CD1      -69.7450   -8.2370    2.1130 C.ar  446  PHE446     -0.0042
     39  CD2      -69.0470   -6.0020    1.6800 C.ar  446  PHE446     -0.0042
     40  CE1      -71.0870   -7.8490    2.0000 C.ar  446  PHE446     -0.0003
     41  CE2      -70.3840   -5.6000    1.5650 C.ar  446  PHE446     -0.0003
     42  CZ       -71.4050   -6.5240    1.7270 C.ar  446  PHE446     -0.0000
     43  N        -64.4200   -7.8680    3.5950 N.am  447  LYS447     -0.1963
     44  CA       -63.0820   -8.3910    3.2840 C.3   447  LYS447      0.1728
     45  C        -62.1540   -8.6570    4.4670 C.2   447  LYS447      0.2616
     46  O        -61.2720   -9.4920    4.3520 O.2   447  LYS447     -0.2715
     47  CB       -62.3620   -7.4560    2.3160 C.3   447  LYS447      0.0311
     48  CG       -63.0950   -7.2620    0.9910 C.3   447  LYS447      0.0038
     49  CD       -63.4620   -8.5900    0.3350 C.3   447  LYS447      0.0206
     50  CE       -63.9090   -8.3710   -1.1120 C.3   447  LYS447      0.1093
     51  NZ       -64.4800   -9.5760   -1.7630 N.3   447  LYS447     -0.1314
     52  N        -62.3390   -7.9800    5.5980 N.am  448  VAL448     -0.1964
     53  CA       -61.3780   -8.1160    6.6990 C.3   448  VAL448      0.1712
     54  C        -61.7830   -9.1830    7.7360 C.2   448  VAL448      0.2458
     55  O        -62.7450   -9.0110    8.4760 O.2   448  VAL448     -0.2730
     56  CB       -61.1640   -6.7490    7.4210 C.3   448  VAL448      0.0289
     57  CG1      -60.3280   -6.9240    8.7150 C.3   448  VAL448      0.0023
     58  CG2      -60.5270   -5.7090    6.4680 C.3   448  VAL448      0.0023
     59  N        -61.0500  -10.2970    7.7980 N.am  449  PRO449     -0.2716
     60  CA       -61.3830  -11.3260    8.7950 C.3   449  PRO449      0.1536
     61  C        -60.9000  -10.9480   10.2120 C.2   449  PRO449      0.2598
     62  O        -59.9850  -10.1480   10.3350 O.2   449  PRO449     -0.2715
     63  CB       -60.6540  -12.5590    8.2580 C.3   449  PRO449      0.0310
     64  CG       -59.4140  -11.9650    7.5960 C.3   449  PRO449      0.0237
     65  CD       -59.8780  -10.6640    6.9820 C.3   449  PRO449      0.0939
     66  N        -61.5150  -11.4970   11.2570 N.am  450  GLU450     -0.1964
     67  CA       -61.1780  -11.1230   12.6300 C.3   450  GLU450      0.1733
     68  C        -59.9110  -11.8390   13.0760 C.2   450  GLU450      0.2617
     69  O        -59.7690  -13.0280   12.8490 O.2   450  GLU450     -0.2715
     70  CB       -62.3320  -11.4330   13.5930 C.3   450  GLU450      0.0429
     71  CG       -62.1100  -10.9380   15.0290 C.3   450  GLU450      0.1163
     72  CD       -61.8690   -9.4330   15.1180 C.2   450  GLU450      0.3649
     73  OE1      -62.6670   -8.6490   14.5570 O.co2 450  GLU450     -0.2457
     74  OE2      -60.8600   -9.0240   15.7350 O.co2 450  GLU450     -0.2457
     75  N        -58.9870  -11.1140   13.7060 N.am  451  THR451     -0.1951
     76  CA       -57.6820  -11.6790   14.0490 C.3   451  THR451      0.1897
     77  C        -57.4340  -11.6660   15.5570 C.2   451  THR451      0.2313
     78  O        -56.3720  -12.1050   16.0290 O.2   451  THR451     -0.2863
     79  CB       -56.5290  -10.9190   13.3510 C.3   451  THR451      0.1794
     80  OG1      -56.5280   -9.5460   13.7720 O.3   451  THR451     -0.2208
     81  CG2      -56.6680  -10.9810   11.8190 C.3   451  THR451      0.0378
     82  N        -56.0720  -14.8030   17.9980 N.3   454  ARG454     -0.1245
     83  CA       -55.6940  -15.9540   17.1820 C.3   454  ARG454      0.1563
     84  C        -54.1910  -15.9940   16.9310 C.2   454  ARG454      0.2260
     85  O        -53.5680  -14.9600   16.6880 O.2   454  ARG454     -0.2867
     86  CB       -56.4490  -15.9380   15.8520 C.3   454  ARG454      0.0307
     87  CG       -57.0390  -17.2820   15.4570 C.3   454  ARG454      0.0489
     88  CD       -58.4440  -17.4530   16.0120 C.3   454  ARG454      0.2205
     89  NE       -58.9200  -18.8270   15.8840 N.pl3 454  ARG454     -0.0865
     90  CZ       -59.9130  -19.2020   15.0840 C.cat 454  ARG454      0.5346
     91  NH1      -60.5410  -18.3040   14.3370 N.pl3 454  ARG454      0.1354
     92  NH2      -60.2800  -20.4750   15.0310 N.pl3 454  ARG454      0.1354
     93  N        -52.6830  -19.8250   13.0760 N.3   458  ASP458     -0.1225
     94  CA       -54.0610  -20.0710   12.6910 C.3   458  ASP458      0.1805
     95  C        -54.5970  -18.9660   11.7560 C.2   458  ASP458      0.2597
     96  O        -55.4940  -19.2290   10.9480 O.2   458  ASP458     -0.2718
     97  CB       -54.9360  -20.2150   13.9270 C.3   458  ASP458      0.1424
     98  CG       -56.2080  -20.9940   13.6560 C.2   458  ASP458      0.3668
     99  OD1      -56.5460  -21.2410   12.4710 O.co2 458  ASP458     -0.2456
    100  OD2      -56.8780  -21.3750   14.6450 O.co2 458  ASP458     -0.2456
    101  N        -54.0350  -17.7500   11.8370 N.am  459  ILE459     -0.1980
    102  CA       -54.3700  -16.6630   10.8980 C.3   459  ILE459      0.1595
    103  C        -53.8710  -16.9660    9.4830 C.2   459  ILE459      0.2287
    104  O        -54.5720  -16.7300    8.5010 O.2   459  ILE459     -0.2864
    105  CB       -53.7680  -15.3070   11.3440 C.3   459  ILE459      0.0276
    106  CG1      -54.2740  -14.9130   12.7380 C.3   459  ILE459      0.0022
    107  CG2      -54.0290  -14.1950   10.2910 C.3   459  ILE459      0.0022
    108  CD1      -53.4560  -13.8000   13.4300 C.3   459  ILE459      0.0001
    109  N        -55.7250  -19.7980    7.6300 N.3   462  ALA462     -0.1231
    110  CA       -57.0310  -19.4020    7.1320 C.3   462  ALA462      0.1694
    111  C        -56.8710  -18.6860    5.7960 C.2   462  ALA462      0.2592
    112  O        -57.6820  -18.8660    4.8850 O.2   462  ALA462     -0.2718
    113  CB       -57.7550  -18.5300    8.1410 C.3   462  ALA462      0.0304
    114  N        -55.8100  -17.8930    5.6630 N.am  463  PHE463     -0.1976
    115  CA       -55.5430  -17.2370    4.3910 C.3   463  PHE463      0.1639
    116  C        -55.1560  -18.2400    3.3090 C.2   463  PHE463      0.2290
    117  O        -55.4800  -18.0500    2.1330 O.2   463  PHE463     -0.2864
    118  CB       -54.4500  -16.1850    4.5410 C.3   463  PHE463      0.0560
    119  CG       -54.9470  -14.8840    5.0860 C.ar  463  PHE463     -0.0200
    120  CD1      -55.8450  -14.1100    4.3520 C.ar  463  PHE463     -0.0042
    121  CD2      -54.5330  -14.4390    6.3370 C.ar  463  PHE463     -0.0042
    122  CE1      -56.3150  -12.9240    4.8530 C.ar  463  PHE463     -0.0003
    123  CE2      -55.0020  -13.2500    6.8420 C.ar  463  PHE463     -0.0003
    124  CZ       -55.8960  -12.4870    6.1030 C.ar  463  PHE463     -0.0000
    125  N        -58.3630  -20.1750    2.0940 N.3   466  GLN466     -0.1245
    126  CA       -59.1090  -19.3280    1.1710 C.3   466  GLN466      0.1566
    127  C        -58.4690  -19.2610   -0.2100 C.2   466  GLN466      0.2260
    128  O        -59.1620  -19.2860   -1.2300 O.2   466  GLN466     -0.2867
    129  CB       -59.2430  -17.9130    1.7460 C.3   466  GLN466      0.0367
    130  CG       -60.1630  -17.0080    0.9580 C.3   466  GLN466      0.0905
    131  CD       -59.9650  -15.5330    1.2610 C.2   466  GLN466      0.2608
    132  OE1      -59.1170  -15.1490    2.0780 O.2   466  GLN466     -0.2717
    133  NE2      -60.7670  -14.6920    0.6120 N.am  466  GLN466     -0.0878
@<TRIPOS>BOND
     1    51    50    1
     2   128   127    2
     3    50    49    1
     4     6     7    1
     5     6     5    1
     6     1     2    1
     7     8     7    2
     8     7     9   am
     9   127   126    1
    10     2     5    1
    11     2     3    1
    12    49    48    1
    13   133   131   am
    14   130   131    1
    15   130   129    1
    16    48    47    1
    17   126   129    1
    18   126   125    1
    19   131   132    2
    20     3     4    2
    21    41    39   ar
    22    41    42   ar
    23    39    37   ar
    24    42    40   ar
    25    37    36    1
    26    37    38   ar
    27    40    38   ar
    28    36    33    1
    29   117   116    2
    30    47    44    1
    31    44    43    1
    32    44    45    1
    33    35    34    2
    34   116   115    1
    35    34    33    1
    36    34    43   am
    37    33    32    1
    38   120   122   ar
    39   120   119   ar
    40    46    45    2
    41    32    23   am
    42   115   118    1
    43   115   114    1
    44    45    52   am
    45   118   119    1
    46   122   124   ar
    47   112   111    2
    48   119   121   ar
    49    28    30   ar
    50    28    26   ar
    51    52    53    1
    52    30    31   ar
    53   114   111   am
    54    23    24    2
    55    23    22    1
    56   111   110    1
    57    25    26    1
    58    25    22    1
    59   124   123   ar
    60    21    22    1
    61   121   123   ar
    62    26    27   ar
    63    58    56    1
    64    53    56    1
    65    53    54    1
    66    31    29   ar
    67    65    64    1
    68    65    59    1
    69   110   109    1
    70   110   113    1
    71    56    57    1
    72    64    63    1
    73    27    29   ar
    74    54    59   am
    75    54    55    2
    76    59    60    1
    77    63    60    1
    78   104   103    2
    79    19    18    1
    80    60    61    1
    81    20    18    1
    82   103   102    1
    83    18    17    2
    84    61    62    2
    85    61    66   am
    86   107   105    1
    87    17    16    1
    88   102   105    1
    89   102   101    1
    90    96    95    2
    91    16    15    1
    92    66    67    1
    93   105   106    1
    94    15    14    1
    95    95   101   am
    96    95    94    1
    97    81    79    1
    98    14    11    1
    99    99    98   ar
   100    13    12    2
   101    67    68    1
   102    67    70    1
   103    94    93    1
   104    94    97    1
   105    11    12    1
   106    11    10    1
   107   106   108    1
   108    69    68    2
   109    68    75   am
   110    79    80    1
   111    79    76    1
   112    70    71    1
   113    98    97    1
   114    98   100   ar
   115    75    76    1
   116    76    77    1
   117    91    90    1
   118    73    72   ar
   119    71    72    1
   120    92    90    1
   121    90    89    2
   122    72    74   ar
   123    87    86    1
   124    87    88    1
   125    77    78    2
   126    86    83    1
   127    89    88    1
   128    85    84    2
   129    84    83    1
   130    83    82    1
