@<TRIPOS>MOLECULE
tmp/4zwcA02.pdb
 166 157 0 0 0
SMALL
GASTEIGER

@<TRIPOS>ATOM
      1  N        -42.1860    9.8170   16.5220 N.3    22  PHE22      -0.1241
      2  CA       -42.8920   10.0360   15.2540 C.3    22  PHE22       0.1605
      3  C        -43.9830   11.0970   15.4300 C.2    22  PHE22       0.2264
      4  O        -44.0560   12.0560   14.6470 O.2    22  PHE22      -0.2867
      5  CB       -43.4530    8.7120   14.7350 C.3    22  PHE22       0.0534
      6  CG       -44.4710    8.8520   13.6150 C.ar   22  PHE22      -0.0203
      7  CD1      -44.2140    9.6450   12.4970 C.ar   22  PHE22      -0.0042
      8  CD2      -45.6680    8.1340   13.6590 C.ar   22  PHE22      -0.0042
      9  CE1      -45.1550    9.7550   11.4630 C.ar   22  PHE22      -0.0003
     10  CE2      -46.6050    8.2310   12.6140 C.ar   22  PHE22      -0.0003
     11  CZ       -46.3570    9.0360   11.5210 C.ar   22  PHE22      -0.0000
     12  N        -43.8500   14.9470   13.7820 N.3    26  THR26      -0.1203
     13  CA       -44.9650   15.2660   12.8970 C.3    26  THR26       0.1994
     14  C        -45.6710   16.5660   13.3330 C.2    26  THR26       0.2618
     15  O        -45.9560   17.4480   12.5210 O.2    26  THR26      -0.2717
     16  CB       -45.9880   14.1080   12.8540 C.3    26  THR26       0.1784
     17  OG1      -45.3810   12.9370   12.2890 O.3    26  THR26      -0.2211
     18  CG2      -47.2000   14.4910   12.0250 C.3    26  THR26       0.0376
     19  N        -45.9160   16.6940   14.6300 N.am   27  GLY27      -0.1956
     20  CA       -46.6830   17.8140   15.1330 C.3    27  GLY27       0.1869
     21  C        -45.9260   19.0570   15.5730 C.2    27  GLY27       0.2309
     22  O        -46.5530   20.1200   15.7700 O.2    27  GLY27      -0.2863
     23  N        -45.7050   22.8680   13.0100 N.3    30  ASN30      -0.1240
     24  CA       -46.7280   23.8950   12.7580 C.3    30  ASN30       0.1653
     25  C        -46.6260   25.2030   13.5640 C.2    30  ASN30       0.2266
     26  O        -46.6670   26.2810   12.9760 O.2    30  ASN30      -0.2867
     27  CB       -48.1050   23.2980   13.0000 C.3    30  ASN30       0.1155
     28  CG       -48.3670   22.0840   12.1410 C.2    30  ASN30       0.2627
     29  OD1      -48.5020   22.1850   10.9210 O.2    30  ASN30      -0.2716
     30  ND2      -48.3770   20.9120   12.7720 N.am   30  ASN30      -0.0877
     31  N        -50.0030    3.7280   18.8050 N.3   157  GLN157     -0.1245
     32  CA       -50.7650    4.9070   18.4090 C.3   157  GLN157      0.1566
     33  C        -50.8900    5.8890   19.5690 C.2   157  GLN157      0.2260
     34  O        -50.9290    7.1020   19.3530 O.2   157  GLN157     -0.2867
     35  CB       -52.1540    4.5190   17.8960 C.3   157  GLN157      0.0367
     36  CG       -53.1190    5.7190   17.7200 C.3   157  GLN157      0.0905
     37  CD       -52.8790    6.5300   16.4450 C.2   157  GLN157      0.2608
     38  OE1      -51.9130    6.3090   15.7070 O.2   157  GLN157     -0.2717
     39  NE2      -53.7640    7.4750   16.1860 N.am  157  GLN157     -0.0878
     40  N        -47.7560    7.8120   19.5510 N.3   160  ILE160     -0.1231
     41  CA       -47.8710    8.8400   18.5070 C.3   160  ILE160      0.1692
     42  C        -48.7010   10.0510   18.9530 C.2   160  ILE160      0.2591
     43  O        -48.2370   11.1840   18.8440 O.2   160  ILE160     -0.2718
     44  CB       -48.5020    8.2820   17.2140 C.3   160  ILE160      0.0266
     45  CG1      -47.6320    7.1710   16.6080 C.3   160  ILE160      0.0019
     46  CG2      -48.7640    9.4090   16.2060 C.3   160  ILE160      0.0020
     47  CD1      -48.3440    6.3260   15.5340 C.3   160  ILE160      0.0001
     48  N        -49.9130    9.8410   19.4550 N.am  161  VAL161     -0.1980
     49  CA       -50.7760   10.9880   19.7290 C.3   161  VAL161      0.1595
     50  C        -50.2460   11.8020   20.9200 C.2   161  VAL161      0.2287
     51  O        -50.4010   13.0130   20.9480 O.2   161  VAL161     -0.2864
     52  CB       -52.2740   10.5770   19.9900 C.3   161  VAL161      0.0276
     53  CG1      -52.8110    9.7240   18.8480 C.3   161  VAL161      0.0022
     54  CG2      -52.4560    9.8770   21.3400 C.3   161  VAL161      0.0022
     55  N        -47.5700   14.0020   19.5690 N.3   164  ILE164     -0.1245
     56  CA       -48.1650   15.1520   18.9070 C.3   164  ILE164      0.1561
     57  C        -48.5830   16.1940   19.9480 C.2   164  ILE164      0.2260
     58  O        -48.2720   17.3770   19.8100 O.2   164  ILE164     -0.2867
     59  CB       -49.3840   14.7450   18.0360 C.3   164  ILE164      0.0252
     60  CG1      -48.9410   13.8670   16.8530 C.3   164  ILE164      0.0019
     61  CG2      -50.1440   15.9820   17.5400 C.3   164  ILE164      0.0019
     62  CD1      -50.0950   13.3290   16.0150 C.3   164  ILE164      0.0001
     63  N        -47.1460   20.2170   20.5220 N.3   168  GLN168     -0.1245
     64  CA       -47.9930   21.4010   20.5210 C.3   168  GLN168      0.1566
     65  C        -47.8980   22.1980   21.8230 C.2   168  GLN168      0.2260
     66  O        -47.7560   23.4160   21.7810 O.2   168  GLN168     -0.2867
     67  CB       -49.4380   20.9840   20.2160 C.3   168  GLN168      0.0367
     68  CG       -49.5350   20.3560   18.8250 C.3   168  GLN168      0.0905
     69  CD       -50.8510   19.6460   18.5300 C.2   168  GLN168      0.2608
     70  OE1      -51.6480   19.3380   19.4270 O.2   168  GLN168     -0.2717
     71  NE2      -51.0800   19.3780   17.2500 N.am  168  GLN168     -0.0878
     72  N        -57.0900    4.9230    6.9350 N.3   278  GLN278     -0.1231
     73  CA       -56.6180    5.8540    7.9480 C.3   278  GLN278      0.1698
     74  C        -56.3370    7.2390    7.3280 C.2   278  GLN278      0.2592
     75  O        -56.8990    8.2440    7.7760 O.2   278  GLN278     -0.2718
     76  CB       -55.3820    5.2890    8.6520 C.3   278  GLN278      0.0381
     77  CG       -54.7720    6.2150    9.6820 C.3   278  GLN278      0.0905
     78  CD       -53.4330    5.7240   10.2180 C.2   278  GLN278      0.2608
     79  OE1      -52.3720    6.1140    9.7180 O.2   278  GLN278     -0.2717
     80  NE2      -53.4710    4.8790   11.2390 N.am  278  GLN278     -0.0878
     81  N        -55.4980    7.2910    6.2900 N.am  279  GLN279     -0.1979
     82  CA       -55.0640    8.5720    5.7180 C.3   279  GLN279      0.1601
     83  C        -56.0550    9.2090    4.7250 C.2   279  GLN279      0.2287
     84  O        -55.8380   10.3550    4.3150 O.2   279  GLN279     -0.2864
     85  CB       -53.7200    8.4230    5.0070 C.3   279  GLN279      0.0394
     86  CG       -52.5890    7.8550    5.8400 C.3   279  GLN279      0.0908
     87  CD       -52.0240    8.8090    6.9020 C.2   279  GLN279      0.2608
     88  OE1      -52.2860   10.0010    6.9130 O.2   279  GLN279     -0.2717
     89  NE2      -51.2150    8.2650    7.7800 N.am  279  GLN279     -0.0878
     90  N        -59.4720   12.7790    8.3250 N.3   283  ILE283     -0.1231
     91  CA       -58.8490   13.3280    9.5400 C.3   283  ILE283      0.1692
     92  C        -57.9290   14.5200    9.2400 C.2   283  ILE283      0.2592
     93  O        -57.9070   15.5010    9.9900 O.2   283  ILE283     -0.2718
     94  CB       -58.0500   12.2270   10.3100 C.3   283  ILE283      0.0266
     95  CG1      -57.6290   12.6850   11.7190 C.3   283  ILE283      0.0019
     96  CG2      -56.8340   11.7650    9.5180 C.3   283  ILE283      0.0020
     97  CD1      -58.7550   13.0210   12.6660 C.3   283  ILE283      0.0001
     98  N        -57.1890   14.4330    8.1360 N.am  284  ASN284     -0.1974
     99  CA       -56.3390   15.5160    7.6440 C.3   284  ASN284      0.1688
    100  C        -57.1190   16.8140    7.4100 C.2   284  ASN284      0.2292
    101  O        -56.7040   17.8890    7.8610 O.2   284  ASN284     -0.2864
    102  CB       -55.6600   15.0740    6.3450 C.3   284  ASN284      0.1181
    103  CG       -56.6670   14.7870    5.2320 C.2   284  ASN284      0.2629
    104  OD1      -56.9100   15.6400    4.3720 O.2   284  ASN284     -0.2716
    105  ND2      -57.2980   13.5950    5.2720 N.am  284  ASN284     -0.0877
    106  N        -58.2010   18.6020   10.6370 N.3   287  PHE287     -0.1241
    107  CA       -57.1420   19.3970   11.2830 C.3   287  PHE287      0.1605
    108  C        -56.8080   20.6850   10.5210 C.2   287  PHE287      0.2264
    109  O        -56.6100   21.7450   11.1200 O.2   287  PHE287     -0.2867
    110  CB       -55.8650   18.5690   11.4540 C.3   287  PHE287      0.0534
    111  CG       -55.9520   17.5200   12.5450 C.ar  287  PHE287     -0.0203
    112  CD1      -57.0280   17.4890   13.4310 C.ar  287  PHE287     -0.0042
    113  CD2      -54.9440   16.5760   12.6970 C.ar  287  PHE287     -0.0042
    114  CE1      -57.0980   16.5280   14.4360 C.ar  287  PHE287     -0.0003
    115  CE2      -55.0130   15.6150   13.6990 C.ar  287  PHE287     -0.0003
    116  CZ       -56.0890   15.5930   14.5680 C.ar  287  PHE287     -0.0000
    117  N        -58.1450   13.3930   21.4460 N.3   313  ASN313     -0.1240
    118  CA       -57.3310   12.4500   20.6810 C.3   313  ASN313      0.1653
    119  C        -56.6580   11.3740   21.5490 C.2   313  ASN313      0.2266
    120  O        -56.5340   10.2100   21.1480 O.2   313  ASN313     -0.2867
    121  CB       -56.2340   13.2040   19.9160 C.3   313  ASN313      0.1155
    122  CG       -55.8770   12.5470   18.5790 C.2   313  ASN313      0.2627
    123  OD1      -56.6940   11.8470   17.9830 O.2   313  ASN313     -0.2716
    124  ND2      -54.6170   12.6950   18.1610 N.am  313  ASN313     -0.0877
    125  N        -62.2160    8.4860   14.9200 N.3   375  PHE375     -0.1227
    126  CA       -60.9220    8.1270   14.3410 C.3   375  PHE375      0.1736
    127  C        -60.0600    7.2440   15.2780 C.2   375  PHE375      0.2595
    128  O        -59.4730    6.2530   14.8330 O.2   375  PHE375     -0.2718
    129  CB       -60.1500    9.3890   13.9650 C.3   375  PHE375      0.0547
    130  CG       -58.7800    9.1210   13.3690 C.ar  375  PHE375     -0.0202
    131  CD1      -58.6430    8.7260   12.0380 C.ar  375  PHE375     -0.0042
    132  CD2      -57.6270    9.2900   14.1360 C.ar  375  PHE375     -0.0042
    133  CE1      -57.3990    8.4950   11.4840 C.ar  375  PHE375     -0.0003
    134  CE2      -56.3780    9.0620   13.5890 C.ar  375  PHE375     -0.0003
    135  CZ       -56.2590    8.6640   12.2600 C.ar  375  PHE375     -0.0000
    136  N        -59.9990    7.5930   16.5630 N.am  376  GLU376     -0.1979
    137  CA       -59.1190    6.8750   17.4880 C.3   376  GLU376      0.1602
    138  C        -59.7040    5.5860   17.9990 C.2   376  GLU376      0.2287
    139  O        -58.9810    4.7750   18.5740 O.2   376  GLU376     -0.2864
    140  CB       -58.7400    7.7430   18.6900 C.3   376  GLU376      0.0415
    141  CG       -57.8290    8.9310   18.3440 C.3   376  GLU376      0.1163
    142  CD       -56.5930    8.5660   17.4710 C.2   376  GLU376      0.3649
    143  OE1      -56.2350    7.3730   17.3450 O.co2 376  GLU376     -0.2457
    144  OE2      -55.9660    9.5010   16.9150 O.co2 376  GLU376     -0.2457
    145  N        -51.8180    0.4040   12.2920 N.3   384  TRP384     -0.1241
    146  CA       -50.4120    0.3500   12.7040 C.3   384  TRP384      0.1605
    147  C        -49.9370   -1.0140   13.2550 C.2   384  TRP384      0.2264
    148  O        -48.7470   -1.3390   13.1550 O.2   384  TRP384     -0.2867
    149  CB       -50.1210    1.4400   13.7540 C.3   384  TRP384      0.0550
    150  CG       -49.9270    2.8360   13.1700 C.ar  384  TRP384      0.0003
    151  CD1      -50.5750    3.9690   13.5540 C.ar  384  TRP384      0.0946
    152  CD2      -49.0410    3.2250   12.0900 C.ar  384  TRP384      0.0152
    153  NE1      -50.1550    5.0310   12.7960 N.ar  384  TRP384     -0.2442
    154  CE2      -49.2120    4.6090   11.9000 C.ar  384  TRP384      0.0810
    155  CE3      -48.1240    2.5380   11.2810 C.ar  384  TRP384      0.0012
    156  CZ2      -48.4930    5.3310   10.9250 C.ar  384  TRP384      0.0191
    157  CZ3      -47.4150    3.2490   10.3130 C.ar  384  TRP384      0.0001
    158  CH2      -47.6020    4.6350   10.1450 C.ar  384  TRP384      0.0015
    159  N        -50.2660    9.6900    3.0940 N.3   411  ASN411     -0.1240
    160  CA       -50.2520   10.9070    3.9120 C.3   411  ASN411      0.1653
    161  C        -49.6170   12.0820    3.1600 C.2   411  ASN411      0.2266
    162  O        -50.1150   13.2120    3.2010 O.2   411  ASN411     -0.2867
    163  CB       -49.5130   10.6780    5.2380 C.3   411  ASN411      0.1155
    164  CG       -49.4420   11.9470    6.1000 C.2   411  ASN411      0.2627
    165  OD1      -48.5080   12.7420    5.9860 O.2   411  ASN411     -0.2716
    166  ND2      -50.4290   12.1380    6.9510 N.am  411  ASN411     -0.0877
@<TRIPOS>BOND
     1   159   160    1
     2   161   162    2
     3   161   160    1
     4   160   163    1
     5    84    83    2
     6   104   103    2
     7    83    82    1
     8    85    82    1
     9    85    86    1
    10   103   105   am
    11   103   102    1
    12   163   164    1
    13    82    81    1
    14    86    87    1
    15   165   164    2
    16   164   166   am
    17    81    74   am
    18   102    99    1
    19    87    88    2
    20    87    89   am
    21    72    73    1
    22    74    75    2
    23    74    73    1
    24   100    99    1
    25   100   101    2
    26    99    98    1
    27    73    76    1
    28    98    92   am
    29    90    91    1
    30    76    77    1
    31    92    91    1
    32    92    93    2
    33    96    94    1
    34    91    94    1
    35    77    78    1
    36    79    78    2
    37   158   157   ar
    38   158   156   ar
    39    78    80   am
    40    94    95    1
    41   157   155   ar
    42   108   109    2
    43   108   107    1
    44   106   107    1
    45    29    28    2
    46   156   154   ar
    47   155   152   ar
    48   107   110    1
    49   110   111    1
    50     9    11   ar
    51     9     7   ar
    52   133   131   ar
    53   133   135   ar
    54    11    10   ar
    55    95    97    1
    56   154   152   ar
    57   154   153   ar
    58    18    16    1
    59   131   130   ar
    60   152   150   ar
    61    28    30   am
    62    28    27    1
    63   135   134   ar
    64    17    16    1
    65   145   146    1
    66     7     6   ar
    67    15    14    2
    68   111   113   ar
    69   111   112   ar
    70    10     8   ar
    71   113   115   ar
    72   146   147    1
    73   146   149    1
    74    24    27    1
    75    24    23    1
    76    24    25    1
    77   153   151   ar
    78    16    13    1
    79    13    14    1
    80    13    12    1
    81    26    25    2
    82   148   147    2
    83   150   151   ar
    84   150   149    1
    85    14    19   am
    86   130   129    1
    87   130   132   ar
    88   112   114   ar
    89   134   132   ar
    90     6     8   ar
    91     6     5    1
    92   115   116   ar
    93   129   126    1
    94   126   125    1
    95   126   127    1
    96   114   116   ar
    97    19    20    1
    98     4     3    2
    99     5     2    1
   100   128   127    2
   101    20    21    1
   102     2     3    1
   103     2     1    1
   104   127   136   am
   105    47    45    1
   106    21    22    2
   107    38    37    2
   108    62    60    1
   109    39    37   am
   110    46    44    1
   111    37    36    1
   112   136   137    1
   113    45    44    1
   114    60    59    1
   115   144   142   ar
   116    44    41    1
   117    71    69   am
   118   143   142   ar
   119   142   141    1
   120   137   138    1
   121   137   140    1
   122    61    59    1
   123    36    35    1
   124    35    32    1
   125   123   122    2
   126   138   139    2
   127    59    56    1
   128   124   122   am
   129   141   140    1
   130    32    31    1
   131    32    33    1
   132    41    42    1
   133    41    40    1
   134    69    68    1
   135    69    70    2
   136   122   121    1
   137    68    67    1
   138    43    42    2
   139    53    52    1
   140    56    55    1
   141    56    57    1
   142    42    48   am
   143    34    33    2
   144    48    49    1
   145    49    52    1
   146    49    50    1
   147    58    57    2
   148   121   118    1
   149    52    54    1
   150    67    64    1
   151    64    63    1
   152    64    65    1
   153   118   117    1
   154   118   119    1
   155    50    51    2
   156   120   119    2
   157    66    65    2
