@<TRIPOS>MOLECULE
tmp/4zwiA00.pdb
 183 177 0 0 0
SMALL
GASTEIGER

@<TRIPOS>ATOM
      1  N         -3.4620    0.7620    3.6580 N.3    59  ASN59      -0.1240
      2  CA        -2.3590    1.6170    4.1000 C.3    59  ASN59       0.1653
      3  C         -1.0910    0.8150    4.3720 C.2    59  ASN59       0.2266
      4  O         -0.1200    1.3230    4.9390 O.2    59  ASN59      -0.2867
      5  CB        -2.7490    2.4280    5.3420 C.3    59  ASN59       0.1155
      6  CG        -3.0660    1.5580    6.5470 C.2    59  ASN59       0.2627
      7  OD1       -2.8300    0.3490    6.5510 O.2    59  ASN59      -0.2716
      8  ND2       -3.5940    2.1860    7.5950 N.am   59  ASN59      -0.0877
      9  N         -0.7530   -1.8340    6.3880 N.3    61  HIS61      -0.1241
     10  CA        -0.8180   -2.7070    7.5740 C.3    61  HIS61       0.1621
     11  C         -2.2300   -3.2310    7.7790 C.2    61  HIS61       0.2264
     12  O         -2.4250   -4.3060    8.3460 O.2    61  HIS61      -0.2867
     13  CB        -0.2890   -2.0410    8.8530 C.3    61  HIS61       0.0745
     14  CG        -0.6420   -0.5970    9.0120 C.ar   61  HIS61       0.0817
     15  ND1        0.1560    0.4180    8.5300 N.ar   61  HIS61      -0.2268
     16  CD2       -1.6640    0.0040    9.6630 C.ar   61  HIS61       0.1154
     17  CE1       -0.3820    1.5830    8.8420 C.ar   61  HIS61       0.1986
     18  NE2       -1.4850    1.3600    9.5340 N.ar   61  HIS61      -0.2212
     19  N         -8.3910    0.8320    5.9290 N.3    64  ASN64      -0.1240
     20  CA        -9.2260    1.7610    6.6680 C.3    64  ASN64       0.1653
     21  C        -10.4270    2.1420    5.8430 C.2    64  ASN64       0.2266
     22  O        -10.2920    2.4770    4.6630 O.2    64  ASN64      -0.2867
     23  CB        -8.4710    3.0420    7.0380 C.3    64  ASN64       0.1155
     24  CG        -7.3340    2.8010    8.0030 C.2    64  ASN64       0.2627
     25  OD1       -7.2740    1.7790    8.6720 O.2    64  ASN64      -0.2716
     26  ND2       -6.4300    3.7710    8.0890 N.am   64  ASN64      -0.0877
     27  N        -13.9360    8.5680   12.7970 N.3    88  ILE88      -0.1231
     28  CA       -13.0660    8.9670   11.6930 C.3    88  ILE88       0.1692
     29  C        -12.7850    7.7920   10.7600 C.2    88  ILE88       0.2591
     30  O        -12.7270    7.9570    9.5410 O.2    88  ILE88      -0.2718
     31  CB       -11.7270    9.5800   12.2160 C.3    88  ILE88       0.0266
     32  CG1      -10.7630    9.8460   11.0520 C.3    88  ILE88       0.0019
     33  CG2      -11.0910    8.6770   13.2930 C.3    88  ILE88       0.0020
     34  CD1       -9.5090   10.5940   11.4520 C.3    88  ILE88       0.0001
     35  N        -12.6430    6.5880   11.3130 N.am   89  GLN89      -0.1979
     36  CA       -12.3730    5.4200   10.4780 C.3    89  GLN89       0.1601
     37  C        -12.6210    4.1450   11.2480 C.2    89  GLN89       0.2287
     38  O        -12.6790    4.1650   12.4810 O.2    89  GLN89      -0.2864
     39  CB       -10.9300    5.4200    9.9670 C.3    89  GLN89       0.0394
     40  CG        -9.8870    5.5120   11.0730 C.3    89  GLN89       0.0908
     41  CD        -9.1050    4.2330   11.2930 C.2    89  GLN89       0.2608
     42  OE1       -9.6560    3.1370   11.3310 O.2    89  GLN89      -0.2717
     43  NE2       -7.8010    4.3770   11.4690 N.am   89  GLN89      -0.0878
     44  N        -11.2030   -0.1660   11.0380 N.3    91  HIS91      -0.1241
     45  CA       -10.3120   -1.1290   10.4080 C.3    91  HIS91       0.1621
     46  C        -10.3900   -2.4140   11.2000 C.2    91  HIS91       0.2264
     47  O        -11.0290   -2.4590   12.2560 O.2    91  HIS91      -0.2867
     48  CB        -8.8810   -0.6290   10.3880 C.3    91  HIS91       0.0745
     49  CG        -8.3450   -0.3550   11.7540 C.ar   91  HIS91       0.0817
     50  ND1       -8.4500    0.8780   12.3620 N.ar   91  HIS91      -0.2268
     51  CD2       -7.7410   -1.1690   12.6520 C.ar   91  HIS91       0.1154
     52  CE1       -7.9150    0.8150   13.5690 C.ar   91  HIS91       0.1986
     53  NE2       -7.4850   -0.4180   13.7720 N.ar   91  HIS91      -0.2212
     54  N         -8.0640   -6.1220   12.5180 N.3    93  HIS93      -0.1241
     55  CA        -6.8400   -6.9000   12.6700 C.3    93  HIS93       0.1621
     56  C         -7.2530   -8.3530   12.5400 C.2    93  HIS93       0.2264
     57  O         -8.2960   -8.7340   13.0530 O.2    93  HIS93      -0.2867
     58  CB        -6.1620   -6.6510   14.0210 C.3    93  HIS93       0.0745
     59  CG        -5.8820   -5.2070   14.2980 C.ar   93  HIS93       0.0817
     60  ND1       -4.6310   -4.6470   14.1440 N.ar   93  HIS93      -0.2268
     61  CD2       -6.6990   -4.2040   14.6990 C.ar   93  HIS93       0.1154
     62  CE1       -4.6880   -3.3600   14.4410 C.ar   93  HIS93       0.1986
     63  NE2       -5.9320   -3.0650   14.7820 N.ar   93  HIS93      -0.2212
     64  N        -11.9530   -2.3380   14.9460 N.3   115  HIS115     -0.1241
     65  CA       -11.7600   -1.1210   15.7140 C.3   115  HIS115      0.1621
     66  C        -12.4400    0.0390   15.0510 C.2   115  HIS115      0.2264
     67  O        -12.0650    0.4250   13.9360 O.2   115  HIS115     -0.2867
     68  CB       -10.2710   -0.8210   15.8800 C.3   115  HIS115      0.0745
     69  CG        -9.5620   -1.8230   16.7280 C.ar  115  HIS115      0.0817
     70  ND1       -8.1930   -1.9950   16.7090 N.ar  115  HIS115     -0.2268
     71  CD2      -10.0410   -2.7000   17.6410 C.ar  115  HIS115      0.1154
     72  CE1       -7.8630   -2.9430   17.5700 C.ar  115  HIS115      0.1986
     73  NE2       -8.9670   -3.3830   18.1490 N.ar  115  HIS115     -0.2212
     74  N        -12.7700    3.8680   15.3080 N.3   117  VAL117     -0.1245
     75  CA       -11.9190    4.8710   15.9270 C.3   117  VAL117      0.1561
     76  C        -12.6140    6.2260   15.9560 C.2   117  VAL117      0.2260
     77  O        -13.0360    6.7260   14.9020 O.2   117  VAL117     -0.2867
     78  CB       -10.5810    5.0100   15.1780 C.3   117  VAL117      0.0252
     79  CG1       -9.6550    5.9910   15.8930 C.3   117  VAL117      0.0019
     80  CG2       -9.9060    3.6430   15.0080 C.3   117  VAL117      0.0019
     81  N         -8.0990   15.2280   14.7530 N.3   126  PHE126     -0.1227
     82  CA        -7.5310   13.9420   15.1420 C.3   126  PHE126      0.1736
     83  C         -6.0630   14.0450   15.5590 C.2   126  PHE126      0.2596
     84  O         -5.6600   13.4360   16.5510 O.2   126  PHE126     -0.2718
     85  CB        -7.6760   12.9510   13.9890 C.3   126  PHE126      0.0547
     86  CG        -7.1460   11.5840   14.2870 C.ar  126  PHE126     -0.0202
     87  CD1       -7.8730   10.7020   15.0750 C.ar  126  PHE126     -0.0042
     88  CD2       -5.9290   11.1670   13.7680 C.ar  126  PHE126     -0.0042
     89  CE1       -7.3990    9.4370   15.3400 C.ar  126  PHE126     -0.0003
     90  CE2       -5.4460    9.8980   14.0300 C.ar  126  PHE126     -0.0003
     91  CZ        -6.1860    9.0290   14.8170 C.ar  126  PHE126     -0.0000
     92  N         -5.2800   14.8070   14.7950 N.am  127  GLY127     -0.1957
     93  CA        -3.8750   15.0290   15.1130 C.3   127  GLY127      0.1869
     94  C         -3.6500   15.5810   16.5110 C.2   127  GLY127      0.2309
     95  O         -2.7270   15.1780   17.2140 O.2   127  GLY127     -0.2863
     96  N         -4.7910   12.8340   19.4410 N.3   130  VAL130     -0.1231
     97  CA        -3.9390   11.6990   19.8160 C.3   130  VAL130      0.1692
     98  C         -2.8310   12.1150   20.7830 C.2   130  VAL130      0.2591
     99  O         -2.1530   11.2630   21.3560 O.2   130  VAL130     -0.2718
    100  CB        -3.3100   10.9890   18.5830 C.3   130  VAL130      0.0266
    101  CG1       -4.3930   10.3490   17.7290 C.3   130  VAL130      0.0020
    102  CG2       -2.4730   11.9480   17.7530 C.3   130  VAL130      0.0020
    103  N         -2.6550   13.4190   20.9870 N.am  131  GLN131     -0.1979
    104  CA        -1.6530   13.8880   21.9390 C.3   131  GLN131      0.1601
    105  C         -2.2420   14.0480   23.3520 C.2   131  GLN131      0.2287
    106  O         -1.5760   14.5320   24.2690 O.2   131  GLN131     -0.2864
    107  CB        -1.0450   15.1990   21.4450 C.3   131  GLN131      0.0394
    108  CG        -0.2860   15.0320   20.1240 C.3   131  GLN131      0.0908
    109  CD         0.8390   14.0050   20.2010 C.2   131  GLN131      0.2608
    110  OE1        1.3740   13.7170   21.2770 O.2   131  GLN131     -0.2717
    111  NE2        1.2080   13.4510   19.0480 N.am  131  GLN131     -0.0878
    112  N        -11.9760    4.1150   21.2470 N.3   138  VAL138     -0.1245
    113  CA       -12.0290    3.0620   20.2330 C.3   138  VAL138      0.1561
    114  C        -12.9700    1.9710   20.6930 C.2   138  VAL138      0.2260
    115  O        -12.8290    1.4420   21.7930 O.2   138  VAL138     -0.2867
    116  CB       -10.6510    2.4770   19.9400 C.3   138  VAL138      0.0252
    117  CG1      -10.7580    1.4350   18.8400 C.3   138  VAL138      0.0019
    118  CG2       -9.7110    3.5680   19.5020 C.3   138  VAL138      0.0019
    119  N         -3.0630    3.4140   21.3000 N.3   193  LEU193     -0.1231
    120  CA        -3.0380    2.8790   19.9320 C.3   193  LEU193      0.1693
    121  C         -2.3240    1.5440   19.9450 C.2   193  LEU193      0.2593
    122  O         -1.3350    1.3810   20.6660 O.2   193  LEU193     -0.2718
    123  CB        -2.3150    3.8310   18.9720 C.3   193  LEU193      0.0284
    124  CG        -2.8060    5.2720   18.8920 C.3   193  LEU193      0.0019
    125  CD1       -1.8680    6.1050   18.0260 C.3   193  LEU193      0.0001
    126  CD2       -4.2210    5.3080   18.3530 C.3   193  LEU193      0.0001
    127  N         -2.7860    0.5870   19.1510 N.am  194  THR194     -0.1939
    128  CA        -2.0880   -0.6980   19.1280 C.3   194  THR194      0.2028
    129  C         -1.0720   -0.8000   17.9850 C.2   194  THR194      0.2643
    130  O         -0.4110   -1.8320   17.8170 O.2   194  THR194     -0.2714
    131  CB        -3.0790   -1.8660   19.0160 C.3   194  THR194      0.1808
    132  OG1       -3.7550   -1.7860   17.7570 O.3   194  THR194     -0.2208
    133  CG2       -4.0950   -1.8270   20.1840 C.3   194  THR194      0.0379
    134  N         -0.9590    0.2710   17.2010 N.am  195  THR195     -0.1937
    135  CA         0.0910    0.3980   16.1970 C.3   195  THR195      0.2013
    136  C          0.9320    1.6220   16.5040 C.2   195  THR195      0.2484
    137  O          0.4530    2.5540   17.1670 O.2   195  THR195     -0.2729
    138  CB        -0.4910    0.5330   14.7930 C.3   195  THR195      0.1807
    139  OG1       -1.3020    1.7150   14.7540 O.3   195  THR195     -0.2208
    140  CG2       -1.3350   -0.6780   14.4510 C.3   195  THR195      0.0379
    141  N          2.1950    1.6220   16.0450 N.am  196  PRO196     -0.2715
    142  CA         2.9960    2.8510   16.1270 C.3   196  PRO196      0.1521
    143  C          2.1900    4.0300   15.6020 C.2   196  PRO196      0.2440
    144  O          1.4910    3.8910   14.5990 O.2   196  PRO196     -0.2731
    145  CB         4.1960    2.5370   15.2410 C.3   196  PRO196      0.0310
    146  CG         4.3720    1.0250   15.4270 C.3   196  PRO196      0.0237
    147  CD         2.9590    0.4900   15.4830 C.3   196  PRO196      0.0939
    148  N          2.2720    5.1860   16.2680 N.am  197  PRO197     -0.2727
    149  CA         3.1890    5.5810   17.3510 C.3   197  PRO197      0.1402
    150  C          2.7860    5.1610   18.7880 C.2   197  PRO197      0.2269
    151  O          3.4410    5.6070   19.7390 O.2   197  PRO197     -0.2865
    152  CB         3.1940    7.1040   17.2310 C.3   197  PRO197      0.0296
    153  CG         1.8130    7.4280   16.7570 C.3   197  PRO197      0.0237
    154  CD         1.4060    6.3010   15.8440 C.3   197  PRO197      0.0939
    155  N          0.6180    5.8540   20.9410 N.3   199  LEU199     -0.1245
    156  CA         0.2780    6.9030   21.8900 C.3   199  LEU199      0.1561
    157  C         -0.8030    6.4610   22.8770 C.2   199  LEU199      0.2260
    158  O         -1.7970    5.7920   22.5190 O.2   199  LEU199     -0.2867
    159  CB        -0.1780    8.1600   21.1430 C.3   199  LEU199      0.0270
    160  CG         0.8420    8.7420   20.1640 C.3   199  LEU199      0.0019
    161  CD1        0.1640    9.6990   19.1870 C.3   199  LEU199      0.0001
    162  CD2        1.9540    9.4450   20.9350 C.3   199  LEU199      0.0001
    163  N         -6.0930    6.5050   24.3440 N.3   202  VAL202     -0.1245
    164  CA        -7.3290    5.7930   24.0200 C.3   202  VAL202      0.1561
    165  C         -8.1210    5.3120   25.2290 C.2   202  VAL202      0.2260
    166  O         -7.5850    4.6300   26.1020 O.2   202  VAL202     -0.2867
    167  CB        -7.0530    4.5390   23.1530 C.3   202  VAL202      0.0252
    168  CG1       -8.3500    3.7950   22.9070 C.3   202  VAL202      0.0019
    169  CG2       -6.3950    4.9190   21.8210 C.3   202  VAL202      0.0019
    170  N        -10.4880    2.5860   25.7860 N.3   204  TRP204     -0.1241
    171  CA       -10.9730    1.3970   25.1150 C.3   204  TRP204      0.1605
    172  C        -12.3380    0.9720   25.6090 C.2   204  TRP204      0.2264
    173  O        -12.6030    0.9300   26.8160 O.2   204  TRP204     -0.2867
    174  CB        -9.9660    0.2600   25.2880 C.3   204  TRP204      0.0550
    175  CG        -8.8630    0.3650   24.2820 C.ar  204  TRP204      0.0003
    176  CD1       -7.6220    0.9230   24.4620 C.ar  204  TRP204      0.0946
    177  CD2       -8.9100   -0.0880   22.9330 C.ar  204  TRP204      0.0152
    178  NE1       -6.8910    0.8300   23.2970 N.ar  204  TRP204     -0.2442
    179  CE2       -7.6560    0.2130   22.3440 C.ar  204  TRP204      0.0810
    180  CE3       -9.8850   -0.7300   22.1610 C.ar  204  TRP204      0.0012
    181  CZ2       -7.3570   -0.0950   21.0220 C.ar  204  TRP204      0.0191
    182  CZ3       -9.5860   -1.0340   20.8410 C.ar  204  TRP204      0.0001
    183  CH2       -8.3310   -0.7220   20.2850 C.ar  204  TRP204      0.0015
@<TRIPOS>BOND
     1     1     2    1
     2     2     3    1
     3     2     5    1
     4     3     4    2
     5    22    21    2
     6     5     6    1
     7    21    20    1
     8    19    20    1
     9     9    10    1
    10     6     7    2
    11     6     8   am
    12    20    23    1
    13    23    24    1
    14    10    11    1
    15    10    13    1
    16    11    12    2
    17    24    26   am
    18    24    25    2
    19    15    17   ar
    20    15    14   ar
    21    17    18   ar
    22    13    14    1
    23    14    16   ar
    24    18    16   ar
    25    30    29    2
    26    39    36    1
    27    39    40    1
    28    48    45    1
    29    48    49    1
    30    45    44    1
    31    45    46    1
    32    36    37    1
    33    36    35    1
    34    29    35   am
    35    29    28    1
    36    32    34    1
    37    32    31    1
    38    40    41    1
    39    46    47    2
    40    37    38    2
    41    41    42    2
    42    41    43   am
    43    28    31    1
    44    28    27    1
    45    49    50   ar
    46    49    51   ar
    47    31    33    1
    48    50    52   ar
    49    54    55    1
    50    56    55    1
    51    56    57    2
    52    51    53   ar
    53    55    58    1
    54    52    53   ar
    55    88    90   ar
    56    88    86   ar
    57    67    66    2
    58    85    86    1
    59    85    82    1
    60    58    59    1
    61    90    91   ar
    62    60    59   ar
    63    60    62   ar
    64    86    87   ar
    65    59    61   ar
    66    62    63   ar
    67   140   138    1
    68   144   143    2
    69    61    63   ar
    70    81    82    1
    71   139   138    1
    72   138   135    1
    73    92    93    1
    74    92    83   am
    75    91    89   ar
    76    77    76    2
    77    64    65    1
    78    80    78    1
    79    66    65    1
    80    87    89   ar
    81    93    94    1
    82    82    83    1
    83    78    79    1
    84    78    75    1
    85   145   146    1
    86   145   142    1
    87    74    75    1
    88   146   147    1
    89   147   141    1
    90    83    84    2
    91   143   142    1
    92   143   148   am
    93    65    68    1
    94   154   148    1
    95   154   153    1
    96    68    69    1
    97    75    76    1
    98   141   142    1
    99   141   136   am
   100   135   136    1
   101   135   134    1
   102   148   149    1
   103   136   137    2
   104    94    95    2
   105    70    69   ar
   106    70    72   ar
   107    69    71   ar
   108   153   152    1
   109   134   129   am
   110   152   149    1
   111   149   150    1
   112    72    73   ar
   113    71    73   ar
   114   101   100    1
   115   102   100    1
   116   132   131    1
   117   130   129    2
   118   129   128    1
   119   125   124    1
   120   126   124    1
   121   100    97    1
   122   150   151    2
   123   117   116    1
   124   124   123    1
   125   123   120    1
   126   131   128    1
   127   131   133    1
   128   111   109   am
   129   128   127    1
   130   127   121   am
   131   161   160    1
   132    96    97    1
   133   118   116    1
   134    97    98    1
   135   120   121    1
   136   120   119    1
   137   116   113    1
   138   121   122    2
   139   108   109    1
   140   108   107    1
   141   160   162    1
   142   160   159    1
   143   109   110    2
   144   113   114    1
   145   113   112    1
   146   183   182   ar
   147   183   181   ar
   148   114   115    2
   149    98   103   am
   150    98    99    2
   151   182   180   ar
   152   155   156    1
   153   103   104    1
   154   181   179   ar
   155   159   156    1
   156   107   104    1
   157   169   167    1
   158   156   157    1
   159   104   105    1
   160   180   177   ar
   161   179   177   ar
   162   179   178   ar
   163   158   157    2
   164   168   167    1
   165   177   175   ar
   166   167   164    1
   167   178   176   ar
   168   105   106    2
   169   164   163    1
   170   164   165    1
   171   175   176   ar
   172   175   174    1
   173   171   174    1
   174   171   172    1
   175   171   170    1
   176   165   166    2
   177   172   173    2
