@<TRIPOS>MOLECULE
tmp/4zwpB00.pdb
 134 127 0 0 0
SMALL
GASTEIGER

@<TRIPOS>ATOM
      1  N         60.4690  -28.7060  156.2330 N.3   206  PHE206     -0.1227
      2  CA        61.7330  -28.1610  156.7250 C.3   206  PHE206      0.1736
      3  C         61.6020  -26.6340  156.8990 C.2   206  PHE206      0.2596
      4  O         60.5950  -26.0390  156.4810 O.2   206  PHE206     -0.2718
      5  CB        62.8930  -28.5260  155.7820 C.3   206  PHE206      0.0547
      6  CG        62.6870  -28.0910  154.3260 C.ar  206  PHE206     -0.0202
      7  CD1       62.1130  -28.9480  153.3960 C.ar  206  PHE206     -0.0042
      8  CD2       63.1110  -26.8440  153.8930 C.ar  206  PHE206     -0.0042
      9  CE1       61.9460  -28.5720  152.0640 C.ar  206  PHE206     -0.0003
     10  CE2       62.9390  -26.4560  152.5790 C.ar  206  PHE206     -0.0003
     11  CZ        62.3500  -27.3230  151.6580 C.ar  206  PHE206     -0.0000
     12  N         62.6010  -26.0050  157.5270 N.am  207  GLY207     -0.1957
     13  CA        62.6130  -24.5580  157.6740 C.3   207  GLY207      0.1869
     14  C         62.9340  -23.8800  156.3430 C.2   207  GLY207      0.2309
     15  O         64.0040  -24.1060  155.7500 O.2   207  GLY207     -0.2863
     16  N         64.1430  -21.7540  153.3500 N.3   209  ILE209     -0.1245
     17  CA        65.2000  -20.8450  152.9650 C.3   209  ILE209      0.1561
     18  C         64.6520  -19.7950  152.0180 C.2   209  ILE209      0.2260
     19  O         64.3060  -20.0910  150.8630 O.2   209  ILE209     -0.2867
     20  CB        66.3700  -21.5750  152.2930 C.3   209  ILE209      0.0252
     21  CG1       66.9160  -22.6450  153.2420 C.3   209  ILE209      0.0019
     22  CG2       67.4430  -20.5760  151.8760 C.3   209  ILE209      0.0019
     23  CD1       67.8940  -23.5840  152.5840 C.3   209  ILE209      0.0001
     24  N         74.1610  -21.6640  152.1460 N.3   219  LEU219     -0.1231
     25  CA        73.4230  -22.8850  151.8510 C.3   219  LEU219      0.1693
     26  C         72.3760  -23.2070  152.9040 C.2   219  LEU219      0.2592
     27  O         71.2800  -23.6520  152.5770 O.2   219  LEU219     -0.2718
     28  CB        74.3860  -24.0550  151.6990 C.3   219  LEU219      0.0284
     29  CG        75.2830  -23.8940  150.4750 C.3   219  LEU219      0.0019
     30  CD1       76.2130  -25.0790  150.3120 C.3   219  LEU219      0.0001
     31  CD2       74.4340  -23.6930  149.2290 C.3   219  LEU219      0.0001
     32  N         72.7130  -22.9640  154.1650 N.am  220  HIS220     -0.1976
     33  CA        71.8100  -23.2770  155.2650 C.3   220  HIS220      0.1656
     34  C         71.3510  -22.0110  155.9790 C.2   220  HIS220      0.2291
     35  O         71.3570  -21.9280  157.2050 O.2   220  HIS220     -0.2864
     36  CB        72.4780  -24.2600  156.2310 C.3   220  HIS220      0.0771
     37  CG        72.4180  -25.6820  155.7600 C.ar  220  HIS220      0.0820
     38  ND1       72.9800  -26.7320  156.4570 N.ar  220  HIS220     -0.2267
     39  CD2       71.8520  -26.2270  154.6530 C.ar  220  HIS220      0.1154
     40  CE1       72.7660  -27.8600  155.8000 C.ar  220  HIS220      0.1986
     41  NE2       72.0840  -27.5810  154.7030 N.ar  220  HIS220     -0.2212
     42  N         64.0160  -21.8950  148.8420 N.3   238  ASP238     -0.1239
     43  CA        63.9650  -23.3300  148.9840 C.3   238  ASP238      0.1674
     44  C         62.9000  -23.5900  150.0470 C.2   238  ASP238      0.2266
     45  O         63.0530  -23.2330  151.2260 O.2   238  ASP238     -0.2867
     46  CB        65.3320  -23.8970  149.3880 C.3   238  ASP238      0.1410
     47  CG        65.4050  -25.4140  149.2960 C.2   238  ASP238      0.3668
     48  OD1       64.3630  -26.0890  149.2470 O.co2 238  ASP238     -0.2456
     49  OD2       66.5230  -25.9410  149.2600 O.co2 238  ASP238     -0.2456
     50  N         59.9380  -30.5640  148.1170 N.3   249  ASP249     -0.1239
     51  CA        61.2310  -29.9080  148.3360 C.3   249  ASP249      0.1674
     52  C         61.6350  -29.1800  147.0600 C.2   249  ASP249      0.2266
     53  O         62.2890  -29.7580  146.1950 O.2   249  ASP249     -0.2867
     54  CB        62.2880  -30.9470  148.7430 C.3   249  ASP249      0.1410
     55  CG        63.6350  -30.3400  149.0690 C.2   249  ASP249      0.3668
     56  OD1       63.7790  -29.1030  149.0620 O.co2 249  ASP249     -0.2456
     57  OD2       64.5580  -31.1210  149.3490 O.co2 249  ASP249     -0.2456
     58  N         77.7220  -29.2920  147.1180 N.3   326  HIS326     -0.1241
     59  CA        76.8450  -30.2980  147.7130 C.3   326  HIS326      0.1621
     60  C         76.3850  -31.3590  146.6980 C.2   326  HIS326      0.2264
     61  O         76.8870  -31.4010  145.5800 O.2   326  HIS326     -0.2867
     62  CB        75.6410  -29.6060  148.3580 C.3   326  HIS326      0.0745
     63  CG        74.7920  -28.8470  147.3880 C.ar  326  HIS326      0.0817
     64  ND1       74.0370  -29.4680  146.4170 N.ar  326  HIS326     -0.2268
     65  CD2       74.5800  -27.5180  147.2370 C.ar  326  HIS326      0.1154
     66  CE1       73.3960  -28.5540  145.7090 C.ar  326  HIS326      0.1986
     67  NE2       73.7110  -27.3620  146.1830 N.ar  326  HIS326     -0.2212
     68  N         68.5570  -36.2310  146.2380 N.3   330  HIS330     -0.1241
     69  CA        68.2910  -37.2490  147.2300 C.3   330  HIS330      0.1621
     70  C         66.8950  -37.8030  147.0250 C.2   330  HIS330      0.2264
     71  O         66.0340  -37.1270  146.4290 O.2   330  HIS330     -0.2867
     72  CB        68.4160  -36.6390  148.6290 C.3   330  HIS330      0.0745
     73  CG        67.6160  -35.3880  148.7850 C.ar  330  HIS330      0.0817
     74  ND1       66.3250  -35.3830  149.2570 N.ar  330  HIS330     -0.2268
     75  CD2       67.8940  -34.1050  148.4450 C.ar  330  HIS330      0.1154
     76  CE1       65.8520  -34.1480  149.2400 C.ar  330  HIS330      0.1986
     77  NE2       66.7870  -33.3560  148.7450 N.ar  330  HIS330     -0.2212
     78  N         62.1300  -35.5650  154.2870 N.3   336  VAL336     -0.1231
     79  CA        62.5880  -34.6750  153.2150 C.3   336  VAL336      0.1692
     80  C         63.8110  -35.2570  152.5050 C.2   336  VAL336      0.2592
     81  O         63.8100  -35.4250  151.2720 O.2   336  VAL336     -0.2718
     82  CB        62.9180  -33.2820  153.7350 C.3   336  VAL336      0.0266
     83  CG1       63.3860  -32.4050  152.5810 C.3   336  VAL336      0.0020
     84  CG2       61.6870  -32.6670  154.4100 C.3   336  VAL336      0.0020
     85  N         64.8330  -35.5780  153.2940 N.am  337  HIS337     -0.1976
     86  CA        65.9560  -36.3990  152.8330 C.3   337  HIS337      0.1656
     87  C         65.6500  -37.8560  153.1620 C.2   337  HIS337      0.2291
     88  O         66.0710  -38.3790  154.2090 O.2   337  HIS337     -0.2864
     89  CB        67.2780  -35.9610  153.4810 C.3   337  HIS337      0.0771
     90  CG        67.6040  -34.5190  153.2490 C.ar  337  HIS337      0.0820
     91  ND1       68.0420  -33.6810  154.2520 N.ar  337  HIS337     -0.2267
     92  CD2       67.5560  -33.7660  152.1250 C.ar  337  HIS337      0.1154
     93  CE1       68.2610  -32.4790  153.7530 C.ar  337  HIS337      0.1986
     94  NE2       67.9720  -32.4990  152.4660 N.ar  337  HIS337     -0.2212
     95  N         75.3770  -38.1770  148.8280 N.3   355  ARG355     -0.1245
     96  CA        74.2320  -38.6550  149.5950 C.3   355  ARG355      0.1563
     97  C         73.5630  -39.8810  148.9570 C.2   355  ARG355      0.2260
     98  O         73.5670  -40.9780  149.5290 O.2   355  ARG355     -0.2867
     99  CB        73.2050  -37.5300  149.7650 C.3   355  ARG355      0.0307
    100  CG        72.0130  -37.9010  150.6440 C.3   355  ARG355      0.0489
    101  CD        71.2550  -36.6700  151.1370 C.3   355  ARG355      0.2205
    102  NE        72.1550  -35.5670  151.4710 N.pl3 355  ARG355     -0.0865
    103  CZ        71.8250  -34.5220  152.2300 C.cat 355  ARG355      0.5346
    104  NH1       70.6120  -34.4380  152.7580 N.pl3 355  ARG355      0.1354
    105  NH2       72.7130  -33.5650  152.4730 N.pl3 355  ARG355      0.1354
    106  N         68.7570  -30.9830  142.0880 N.3   369  GLU369     -0.1245
    107  CA        69.0660  -29.6210  142.5130 C.3   369  GLU369      0.1567
    108  C         70.5090  -29.1510  142.2590 C.2   369  GLU369      0.2260
    109  O         71.2400  -28.8290  143.2060 O.2   369  GLU369     -0.2867
    110  CB        68.7290  -29.4480  143.9990 C.3   369  GLU369      0.0388
    111  CG        68.9910  -30.6460  144.8880 C.3   369  GLU369      0.1160
    112  CD        68.6430  -30.3510  146.3450 C.2   369  GLU369      0.3649
    113  OE1       68.7640  -29.1760  146.7470 O.co2 369  GLU369     -0.2457
    114  OE2       68.2340  -31.2740  147.0830 O.co2 369  GLU369     -0.2457
    115  N         70.2900  -21.9890  142.8650 N.3   406  ARG406     -0.1245
    116  CA        69.8520  -23.3810  142.9310 C.3   406  ARG406      0.1563
    117  C         68.4490  -23.5400  142.3430 C.2   406  ARG406      0.2260
    118  O         67.5660  -22.7010  142.5410 O.2   406  ARG406     -0.2867
    119  CB        69.8980  -23.9170  144.3670 C.3   406  ARG406      0.0307
    120  CG        69.6110  -25.4010  144.4560 C.3   406  ARG406      0.0489
    121  CD        69.9250  -25.9670  145.8350 C.3   406  ARG406      0.2205
    122  NE        69.0800  -25.4180  146.8950 N.pl3 406  ARG406     -0.0865
    123  CZ        69.5220  -24.6030  147.8420 C.cat 406  ARG406      0.5346
    124  NH1       70.7970  -24.2470  147.8500 N.pl3 406  ARG406      0.1354
    125  NH2       68.6960  -24.1470  148.7740 N.pl3 406  ARG406      0.1354
    126  N         65.5910  -26.6810  141.8540 N.3   408  GLU408     -0.1245
    127  CA        65.3340  -27.9850  142.4250 C.3   408  GLU408      0.1567
    128  C         63.9020  -28.4430  142.1380 C.2   408  GLU408      0.2260
    129  O         62.9380  -27.7230  142.4450 O.2   408  GLU408     -0.2867
    130  CB        65.6160  -27.9310  143.9300 C.3   408  GLU408      0.0388
    131  CG        65.0420  -29.0830  144.7100 C.3   408  GLU408      0.1160
    132  CD        65.4570  -29.0550  146.1740 C.2   408  GLU408      0.3649
    133  OE1       65.6030  -27.9500  146.7230 O.co2 408  GLU408     -0.2457
    134  OE2       65.6460  -30.1360  146.7780 O.co2 408  GLU408     -0.2457
@<TRIPOS>BOND
     1   126   127    1
     2   106   107    1
     3   128   127    1
     4   128   129    2
     5   108   107    1
     6   108   109    2
     7   117   118    2
     8   117   116    1
     9   127   130    1
    10   107   110    1
    11   115   116    1
    12   116   119    1
    13   130   131    1
    14   110   111    1
    15   119   120    1
    16   120   121    1
    17   131   132    1
    18   111   112    1
    19    61    60    2
    20    66    67   ar
    21    66    64   ar
    22   121   122    1
    23   132   133   ar
    24   132   134   ar
    25    67    65   ar
    26    53    52    2
    27    68    69    1
    28   112   113   ar
    29   112   114   ar
    30    64    63   ar
    31    71    70    2
    32    60    59    1
    33   122   123    2
    34    70    69    1
    35    52    51    1
    36    58    59    1
    37    69    72    1
    38    65    63   ar
    39    63    62    1
    40    59    62    1
    41   123   124    1
    42   123   125    1
    43    50    51    1
    44    51    54    1
    45    75    77   ar
    46    75    73   ar
    47    72    73    1
    48    54    55    1
    49    77    76   ar
    50    73    74   ar
    51    95    96    1
    52    42    43    1
    53    97    98    2
    54    97    96    1
    55    43    46    1
    56    43    44    1
    57    56    55   ar
    58    55    57   ar
    59    31    29    1
    60    76    74   ar
    61    48    47   ar
    62    49    47   ar
    63    47    46    1
    64    96    99    1
    65    99   100    1
    66    44    45    2
    67    30    29    1
    68    29    28    1
    69   100   101    1
    70    19    18    2
    71   101   102    1
    72    81    80    2
    73   102   103    2
    74    11     9   ar
    75    11    10   ar
    76    28    25    1
    77    25    24    1
    78    25    26    1
    79    22    20    1
    80    18    17    1
    81     9     7   ar
    82    92    94   ar
    83    92    90   ar
    84   103   105    1
    85   103   104    1
    86    20    17    1
    87    20    21    1
    88    94    93   ar
    89    80    79    1
    90    80    85   am
    91    27    26    2
    92    10     8   ar
    93    83    82    1
    94    23    21    1
    95    86    87    1
    96    86    85    1
    97    86    89    1
    98    26    32   am
    99    17    16    1
   100    87    88    2
   101    79    82    1
   102    79    78    1
   103    90    89    1
   104    90    91   ar
   105     7     6   ar
   106    82    84    1
   107    93    91   ar
   108     8     6   ar
   109    32    33    1
   110     6     5    1
   111    39    41   ar
   112    39    37   ar
   113    41    40   ar
   114    33    34    1
   115    33    36    1
   116    15    14    2
   117    37    36    1
   118    37    38   ar
   119     5     2    1
   120    40    38   ar
   121    34    35    2
   122     1     2    1
   123    14    13    1
   124     4     3    2
   125     2     3    1
   126     3    12   am
   127    12    13    1
