@<TRIPOS>MOLECULE
tmp/4zwxA00.pdb
 189 186 0 0 0
SMALL
GASTEIGER

@<TRIPOS>ATOM
      1  N         14.6650    1.6660   76.8490 N.3     1  HIS1       -0.1226
      2  CA        14.7040    1.7080   78.3150 C.3     1  HIS1        0.1752
      3  C         13.9220    0.5340   78.9640 C.2     1  HIS1        0.2596
      4  O         14.0220   -0.6340   78.5910 O.2     1  HIS1       -0.2718
      5  CB        14.0360    2.9710   78.9670 C.3     1  HIS1        0.0759
      6  CG        14.4410    4.3020   78.4000 C.ar    1  HIS1        0.0818
      7  ND1       14.0420    5.5010   78.9830 N.ar    1  HIS1       -0.2268
      8  CD2       14.9520    4.6420   77.1930 C.ar    1  HIS1        0.1154
      9  CE1       14.4430    6.5080   78.2260 C.ar    1  HIS1        0.1986
     10  NE2       14.9780    6.0200   77.1200 N.ar    1  HIS1       -0.2212
     11  N         13.0650    0.9290   79.9080 N.am    2  TRP2       -0.1976
     12  CA        12.3960   -0.0360   80.7620 C.3     2  TRP2        0.1640
     13  C         11.3530   -0.8120   79.9780 C.2     2  TRP2        0.2290
     14  O         10.8290   -0.3710   78.9530 O.2     2  TRP2       -0.2864
     15  CB        11.6890    0.6170   81.9450 C.3     2  TRP2        0.0576
     16  CG        10.5320    1.4970   81.5960 C.ar    2  TRP2        0.0006
     17  CD1       10.5750    2.8310   81.3140 C.ar    2  TRP2        0.0946
     18  CD2        9.1450    1.1040   81.4900 C.ar    2  TRP2        0.0152
     19  NE1        9.3050    3.2920   81.0480 N.ar    2  TRP2       -0.2442
     20  CE2        8.4110    2.2590   81.1510 C.ar    2  TRP2        0.0810
     21  CE3        8.4580   -0.1060   81.6640 C.ar    2  TRP2        0.0012
     22  CZ2        7.0390    2.2450   80.9710 C.ar    2  TRP2        0.0191
     23  CZ3        7.0680   -0.1150   81.4770 C.ar    2  TRP2        0.0001
     24  CH2        6.3800    1.0570   81.1430 C.ar    2  TRP2        0.0015
     25  N         14.3970    4.6810   88.4710 N.3    17  PHE17      -0.1241
     26  CA        13.2690    5.2410   89.2170 C.3    17  PHE17       0.1605
     27  C         13.3820    4.7360   90.6520 C.2    17  PHE17       0.2264
     28  O         12.7180    3.7790   91.0440 O.2    17  PHE17      -0.2867
     29  CB        11.9370    4.8460   88.5660 C.3    17  PHE17       0.0534
     30  CG        11.8850    5.2120   87.1070 C.ar   17  PHE17      -0.0203
     31  CD1       11.5670    6.4970   86.7160 C.ar   17  PHE17      -0.0042
     32  CD2       12.2540    4.2890   86.1380 C.ar   17  PHE17      -0.0042
     33  CE1       11.5690    6.8430   85.3790 C.ar   17  PHE17      -0.0003
     34  CE2       12.2570    4.6290   84.7910 C.ar   17  PHE17      -0.0003
     35  CZ        11.9100    5.9150   84.4200 C.ar   17  PHE17      -0.0000
     36  N          4.0350   -0.6970   75.9400 N.3    61  HIS61      -0.1241
     37  CA         3.9360   -1.4270   77.1970 C.3    61  HIS61       0.1621
     38  C          2.5330   -1.9380   77.4900 C.2    61  HIS61       0.2264
     39  O          2.3810   -2.8540   78.3070 O.2    61  HIS61      -0.2867
     40  CB         4.4580   -0.5950   78.3900 C.3    61  HIS61       0.0745
     41  CG         3.8810    0.7830   78.5210 C.ar   61  HIS61       0.0817
     42  ND1        2.7640    1.0560   79.2850 N.ar   61  HIS61      -0.2268
     43  CD2        4.3190    1.9780   78.0600 C.ar   61  HIS61       0.1154
     44  CE1        2.5210    2.3540   79.2610 C.ar   61  HIS61       0.1986
     45  NE2        3.4460    2.9360   78.5180 N.ar   61  HIS61      -0.2212
     46  N         -9.1840    9.6440   82.1090 N.3    88  LEU88      -0.1231
     47  CA        -8.1830    9.9240   81.0770 C.3    88  LEU88       0.1693
     48  C         -8.0990    8.8010   80.0480 C.2    88  LEU88       0.2591
     49  O         -8.1340    9.0460   78.8350 O.2    88  LEU88      -0.2718
     50  CB        -6.7940   10.0730   81.7140 C.3    88  LEU88       0.0284
     51  CG        -5.6390   10.4250   80.7760 C.3    88  LEU88       0.0019
     52  CD1       -6.0760   11.4520   79.7500 C.3    88  LEU88       0.0001
     53  CD2       -4.4740   10.9810   81.5390 C.3    88  LEU88       0.0001
     54  N         -7.9810    7.5660   80.5300 N.am   89  GLN89      -0.1979
     55  CA        -7.7070    6.4140   79.6810 C.3    89  GLN89       0.1601
     56  C         -8.0000    5.1410   80.4610 C.2    89  GLN89       0.2287
     57  O         -7.9760    5.1360   81.6920 O.2    89  GLN89      -0.2864
     58  CB        -6.2480    6.3340   79.2650 C.3    89  GLN89       0.0394
     59  CG        -5.4280    6.4070   80.5610 C.3    89  GLN89       0.0908
     60  CD        -4.3860    5.3330   80.6290 C.2    89  GLN89       0.2608
     61  OE1       -4.7760    4.1730   80.5430 O.2    89  GLN89      -0.2717
     62  NE2       -3.1430    5.6560   80.9650 N.am   89  GLN89      -0.0878
     63  N         -6.4820    0.9060   80.2570 N.3    91  HIS91      -0.1241
     64  CA        -5.5510   -0.0220   79.6170 C.3    91  HIS91       0.1621
     65  C         -5.6030   -1.3410   80.3700 C.2    91  HIS91       0.2264
     66  O         -6.3100   -1.4690   81.3820 O.2    91  HIS91      -0.2867
     67  CB        -4.1090    0.4940   79.6230 C.3    91  HIS91       0.0745
     68  CG        -3.5930    0.7410   80.9990 C.ar   91  HIS91       0.0817
     69  ND1       -3.7980    1.9290   81.6720 N.ar   91  HIS91      -0.2268
     70  CD2       -3.0080   -0.0990   81.8850 C.ar   91  HIS91       0.1154
     71  CE1       -3.2900    1.8320   82.8890 C.ar   91  HIS91       0.1986
     72  NE2       -2.8060    0.6100   83.0410 N.ar   91  HIS91      -0.2212
     73  N         -3.2800   -5.0360   81.7620 N.3    93  HIS93      -0.1241
     74  CA        -2.1090   -5.8600   82.0090 C.3    93  HIS93       0.1621
     75  C         -2.5460   -7.3150   81.8920 C.2    93  HIS93       0.2264
     76  O         -3.6200   -7.6740   82.3950 O.2    93  HIS93      -0.2867
     77  CB        -1.5780   -5.5760   83.4190 C.3    93  HIS93       0.0745
     78  CG        -1.2140   -4.1380   83.6460 C.ar   93  HIS93       0.0817
     79  ND1        0.0000   -3.6110   83.2600 N.ar   93  HIS93      -0.2268
     80  CD2       -1.9620   -3.0870   84.0740 C.ar   93  HIS93       0.1154
     81  CE1        0.0300   -2.3160   83.5480 C.ar   93  HIS93       0.1986
     82  NE2       -1.1640   -1.9640   84.0040 N.ar   93  HIS93      -0.2212
     83  N         -7.2550   -1.2700   84.1960 N.3   116  HIS116     -0.1241
     84  CA        -7.0340   -0.0360   84.9430 C.3   116  HIS116      0.1621
     85  C         -7.7270    1.1170   84.2370 C.2   116  HIS116      0.2264
     86  O         -7.3830    1.4410   83.0960 O.2   116  HIS116     -0.2867
     87  CB        -5.5380    0.2390   85.0800 C.3   116  HIS116      0.0745
     88  CG        -4.8320   -0.7540   85.9470 C.ar  116  HIS116      0.0817
     89  ND1       -3.4680   -0.9640   85.8950 N.ar  116  HIS116     -0.2268
     90  CD2       -5.2990   -1.5540   86.9310 C.ar  116  HIS116      0.1154
     91  CE1       -3.1310   -1.8710   86.7940 C.ar  116  HIS116      0.1986
     92  NE2       -4.2190   -2.2400   87.4420 N.ar  116  HIS116     -0.2212
     93  N         -8.0080    4.9560   84.5230 N.3   118  VAL118     -0.1245
     94  CA        -7.1220    5.9350   85.1450 C.3   118  VAL118      0.1561
     95  C         -7.8180    7.2940   85.1730 C.2   118  VAL118      0.2260
     96  O         -8.2570    7.8010   84.1260 O.2   118  VAL118     -0.2867
     97  CB        -5.7930    6.0160   84.3790 C.3   118  VAL118      0.0252
     98  CG1       -4.8900    7.0780   84.9910 C.3   118  VAL118      0.0019
     99  CG2       -5.1300    4.6420   84.2930 C.3   118  VAL118      0.0019
    100  N         -3.0700   16.4010   84.0680 N.3   127  VAL127     -0.1231
    101  CA        -2.5770   15.1400   84.6010 C.3   127  VAL127      0.1692
    102  C         -1.1010   15.2400   84.9640 C.2   127  VAL127      0.2592
    103  O         -0.6590   14.6060   85.9190 O.2   127  VAL127     -0.2718
    104  CB        -2.8850   13.9940   83.6060 C.3   127  VAL127      0.0266
    105  CG1       -2.1740   14.2140   82.2910 C.3   127  VAL127      0.0020
    106  CG2       -2.5040   12.6610   84.2090 C.3   127  VAL127      0.0020
    107  N         -0.3170   16.0420   84.2400 N.am  128  GLY128     -0.1957
    108  CA         1.0870   16.2090   84.5990 C.3   128  GLY128      0.1869
    109  C          1.2780   16.8100   85.9820 C.2   128  GLY128      0.2309
    110  O          2.1840   16.4180   86.7160 O.2   128  GLY128     -0.2863
    111  N          0.1050   14.0050   88.7750 N.3   131  VAL131     -0.1245
    112  CA         1.0140   12.9000   89.0840 C.3   131  VAL131      0.1561
    113  C          2.0720   13.2990   90.0990 C.2   131  VAL131      0.2260
    114  O          2.7260   12.4230   90.6920 O.2   131  VAL131     -0.2867
    115  CB         1.6850   12.3040   87.8260 C.3   131  VAL131      0.0252
    116  CG1        0.6270   11.7590   86.8620 C.3   131  VAL131      0.0019
    117  CG2        2.5800   13.3010   87.1450 C.3   131  VAL131      0.0019
    118  N         -4.1730   11.0350   91.4460 N.3   137  LEU137     -0.1245
    119  CA        -4.8160   10.0670   90.5750 C.3   137  LEU137      0.1561
    120  C         -5.7020    9.1260   91.3760 C.2   137  LEU137      0.2260
    121  O         -5.4480    8.8550   92.5460 O.2   137  LEU137     -0.2867
    122  CB        -3.7810    9.2480   89.7940 C.3   137  LEU137      0.0270
    123  CG        -3.3940    9.8110   88.4210 C.3   137  LEU137      0.0019
    124  CD1       -2.7640   11.1720   88.5030 C.3   137  LEU137      0.0001
    125  CD2       -2.4580    8.8400   87.6870 C.3   137  LEU137      0.0001
    126  N         -7.1460    5.2170   90.3910 N.3   139  VAL139     -0.1245
    127  CA        -7.2050    4.1720   89.3730 C.3   139  VAL139      0.1561
    128  C         -8.2010    3.1340   89.8520 C.2   139  VAL139      0.2260
    129  O         -8.0870    2.6350   90.9780 O.2   139  VAL139     -0.2867
    130  CB        -5.8360    3.5210   89.0850 C.3   139  VAL139      0.0252
    131  CG1       -6.0030    2.4700   87.9500 C.3   139  VAL139      0.0019
    132  CG2       -4.8210    4.5550   88.6440 C.3   139  VAL139      0.0019
    133  N          1.7070    4.6630   90.6170 N.3   194  LEU194     -0.1231
    134  CA         1.6680    4.1060   89.2660 C.3   194  LEU194      0.1693
    135  C          2.3790    2.7580   89.2710 C.2   194  LEU194      0.2593
    136  O          3.3930    2.5860   89.9450 O.2   194  LEU194     -0.2718
    137  CB         2.4130    5.0210   88.2840 C.3   194  LEU194      0.0284
    138  CG         2.1350    6.5230   88.2640 C.3   194  LEU194      0.0019
    139  CD1        3.0460    7.1520   87.2260 C.3   194  LEU194      0.0001
    140  CD2        0.6730    6.9080   88.0440 C.3   194  LEU194      0.0001
    141  N          1.8990    1.8020   88.4650 N.am  195  THR195     -0.1939
    142  CA         2.6120    0.5340   88.3940 C.3   195  THR195      0.2028
    143  C          3.5860    0.4860   87.2330 C.2   195  THR195      0.2643
    144  O          4.2460   -0.5410   87.0340 O.2   195  THR195     -0.2714
    145  CB         1.6560   -0.6470   88.2760 C.3   195  THR195      0.1808
    146  OG1        0.9740   -0.5770   87.0200 O.3   195  THR195     -0.2208
    147  CG2        0.6430   -0.6040   89.4070 C.3   195  THR195      0.0379
    148  N          3.6640    1.5490   86.4480 N.am  196  THR196     -0.1937
    149  CA         4.6970    1.6820   85.4510 C.3   196  THR196      0.2013
    150  C          5.5470    2.9110   85.7640 C.2   196  THR196      0.2484
    151  O          5.0770    3.8440   86.4200 O.2   196  THR196     -0.2729
    152  CB         4.0810    1.8050   84.0520 C.3   196  THR196      0.1807
    153  OG1        3.1500    2.8830   84.0540 O.3   196  THR196     -0.2208
    154  CG2        3.3470    0.5430   83.6430 C.3   196  THR196      0.0379
    155  N          6.8080    2.9380   85.3220 N.am  197  PRO197     -0.2715
    156  CA         7.6300    4.1410   85.4620 C.3   197  PRO197      0.1521
    157  C          6.8810    5.3580   84.9430 C.2   197  PRO197      0.2440
    158  O          6.2380    5.2950   83.8790 O.2   197  PRO197     -0.2731
    159  CB         8.8560    3.8180   84.5960 C.3   197  PRO197      0.0310
    160  CG         8.9960    2.3200   84.7240 C.3   197  PRO197      0.0237
    161  CD         7.5810    1.7910   84.8030 C.3   197  PRO197      0.0939
    162  N          6.9640    6.4780   85.6720 N.am  198  PRO198     -0.2727
    163  CA         7.8920    6.7810   86.7690 C.3   198  PRO198      0.1402
    164  C          7.5070    6.2790   88.1590 C.2   198  PRO198      0.2269
    165  O          8.1690    6.6820   89.1290 O.2   198  PRO198     -0.2865
    166  CB         7.9120    8.3060   86.7760 C.3   198  PRO198      0.0296
    167  CG         6.5260    8.6820   86.2900 C.3   198  PRO198      0.0237
    168  CD         6.1570    7.6460   85.2740 C.3   198  PRO198      0.0939
    169  N         -1.3850    7.7150   93.5890 N.3   203  VAL203     -0.1245
    170  CA        -2.5960    6.9900   93.2250 C.3   203  VAL203      0.1561
    171  C         -3.3620    6.5720   94.4790 C.2   203  VAL203      0.2260
    172  O         -2.8070    5.9120   95.3700 O.2   203  VAL203     -0.2867
    173  CB        -2.2730    5.7580   92.3710 C.3   203  VAL203      0.0252
    174  CG1       -3.5820    5.0230   92.0070 C.3   203  VAL203      0.0019
    175  CG2       -1.4930    6.1750   91.1180 C.3   203  VAL203      0.0019
    176  N         -5.7720    3.8180   94.9930 N.3   205  TRP205     -0.1241
    177  CA        -6.2580    2.6170   94.3300 C.3   205  TRP205      0.1605
    178  C         -7.6320    2.2130   94.8340 C.2   205  TRP205      0.2264
    179  O         -7.8990    2.1920   96.0400 O.2   205  TRP205     -0.2867
    180  CB        -5.2670    1.4590   94.5100 C.3   205  TRP205      0.0550
    181  CG        -4.1450    1.5490   93.5320 C.ar  205  TRP205      0.0003
    182  CD1       -2.9030    2.0970   93.7200 C.ar  205  TRP205      0.0946
    183  CD2       -4.1930    1.1100   92.1770 C.ar  205  TRP205      0.0152
    184  NE1       -2.1740    2.0120   92.5540 N.ar  205  TRP205     -0.2442
    185  CE2       -2.9470    1.4140   91.5910 C.ar  205  TRP205      0.0810
    186  CE3       -5.1780    0.4900   91.3960 C.ar  205  TRP205      0.0012
    187  CZ2       -2.6530    1.1160   90.2570 C.ar  205  TRP205      0.0191
    188  CZ3       -4.8860    0.1760   90.0850 C.ar  205  TRP205      0.0001
    189  CH2       -3.6240    0.4860   89.5270 C.ar  205  TRP205      0.0015
@<TRIPOS>BOND
     1    36    37    1
     2     1     2    1
     3    10     8   ar
     4    10     9   ar
     5     8     6   ar
     6    37    38    1
     7    37    40    1
     8    38    39    2
     9    43    45   ar
    10    43    41   ar
    11     9     7   ar
    12     2     3    1
    13     2     5    1
    14    40    41    1
    15     6     5    1
    16     6     7   ar
    17    45    44   ar
    18    41    42   ar
    19     4     3    2
    20    49    48    2
    21    14    13    2
    22     3    11   am
    23    44    42   ar
    24    58    55    1
    25    58    59    1
    26    64    67    1
    27    64    63    1
    28    64    65    1
    29    67    68    1
    30    55    56    1
    31    55    54    1
    32    52    51    1
    33    11    12    1
    34    13    12    1
    35    48    54   am
    36    48    47    1
    37    65    66    2
    38    56    57    2
    39    61    60    2
    40    59    60    1
    41    60    62   am
    42    12    15    1
    43    51    53    1
    44    51    50    1
    45    22    24   ar
    46    22    20   ar
    47    68    69   ar
    48    68    70   ar
    49    19    20   ar
    50    19    17   ar
    51    47    50    1
    52    47    46    1
    53    24    23   ar
    54    20    18   ar
    55    17    16   ar
    56    23    21   ar
    57    18    16   ar
    58    18    21   ar
    59    16    15    1
    60    69    71   ar
    61    73    74    1
    62    70    72   ar
    63    75    74    1
    64    75    76    2
    65    74    77    1
    66   105   104    1
    67    71    72   ar
    68    86    85    2
    69    79    81   ar
    70    79    78   ar
    71    77    78    1
    72    81    82   ar
    73   104   106    1
    74   104   101    1
    75   154   152    1
    76    78    80   ar
    77   158   157    2
    78    82    80   ar
    79   152   153    1
    80   152   149    1
    81   100   101    1
    82    96    95    2
    83    83    84    1
    84    85    84    1
    85   107   108    1
    86   107   102   am
    87    99    97    1
    88    97    98    1
    89    97    94    1
    90    35    34   ar
    91    35    33   ar
    92    93    94    1
    93   159   160    1
    94   159   156    1
    95   108   109    1
    96   101   102    1
    97   160   161    1
    98    34    32   ar
    99   161   155    1
   100   157   156    1
   101   157   162   am
   102    84    87    1
   103   102   103    2
   104    87    88    1
   105    94    95    1
   106   168   162    1
   107   168   167    1
   108   155   156    1
   109   155   150   am
   110    33    31   ar
   111   149   150    1
   112   149   148    1
   113   162   163    1
   114   150   151    2
   115    89    88   ar
   116    89    91   ar
   117    88    90   ar
   118   109   110    2
   119    32    30   ar
   120   167   166    1
   121   148   143   am
   122    31    30   ar
   123   163   166    1
   124   163   164    1
   125    91    92   ar
   126   116   115    1
   127    90    92   ar
   128   146   145    1
   129   144   143    2
   130    30    29    1
   131   117   115    1
   132   139   138    1
   133   143   142    1
   134   125   123    1
   135   115   112    1
   136   131   130    1
   137   140   138    1
   138   164   165    2
   139   138   137    1
   140   145   142    1
   141   145   147    1
   142   137   134    1
   143   142   141    1
   144   123   124    1
   145   123   122    1
   146   141   135   am
   147    25    26    1
   148    29    26    1
   149   132   130    1
   150   111   112    1
   151   112   113    1
   152   130   127    1
   153    26    27    1
   154   134   135    1
   155   134   133    1
   156   135   136    2
   157   127   128    1
   158   127   126    1
   159   189   188   ar
   160   189   187   ar
   161   122   119    1
   162   128   129    2
   163   188   186   ar
   164   113   114    2
   165   187   185   ar
   166   119   120    1
   167   119   118    1
   168    27    28    2
   169   175   173    1
   170   120   121    2
   171   186   183   ar
   172   185   183   ar
   173   185   184   ar
   174   174   173    1
   175   183   181   ar
   176   173   170    1
   177   184   182   ar
   178   170   169    1
   179   170   171    1
   180   181   182   ar
   181   181   180    1
   182   177   180    1
   183   177   178    1
   184   177   176    1
   185   171   172    2
   186   178   179    2
