@<TRIPOS>MOLECULE
tmp/4zwyA00.pdb
 202 199 0 0 0
SMALL
GASTEIGER

@<TRIPOS>ATOM
      1  N         11.2370    0.0500    8.2040 N.3     1  HIS1       -0.1226
      2  CA         9.9750    0.4930    8.7920 C.3     1  HIS1        0.1752
      3  C          9.3690   -0.6160    9.6580 C.2     1  HIS1        0.2596
      4  O          9.6290   -1.7940    9.4100 O.2     1  HIS1       -0.2718
      5  CB         9.0070    0.8960    7.6730 C.3     1  HIS1        0.0759
      6  CG         7.9280    1.8410    8.1020 C.ar    1  HIS1        0.0818
      7  ND1        6.6030    1.4680    8.1920 N.ar    1  HIS1       -0.2268
      8  CD2        7.9730    3.1500    8.4450 C.ar    1  HIS1        0.1154
      9  CE1        5.8810    2.5050    8.5800 C.ar    1  HIS1        0.1986
     10  NE2        6.6890    3.5370    8.7420 N.ar    1  HIS1       -0.2212
     11  N          8.4810   -0.2560   10.5680 N.am    2  TRP2       -0.1976
     12  CA         7.8070   -1.2460   11.3890 C.3     2  TRP2        0.1640
     13  C          6.7930   -2.0320   10.5780 C.2     2  TRP2        0.2290
     14  O          6.2700   -1.5530    9.5690 O.2     2  TRP2       -0.2864
     15  CB         7.1270   -0.5780   12.5860 C.3     2  TRP2        0.0576
     16  CG         5.9580    0.2760   12.2090 C.ar    2  TRP2        0.0006
     17  CD1        5.9750    1.6070   11.8830 C.ar    2  TRP2        0.0946
     18  CD2        4.5940   -0.1420   12.1180 C.ar    2  TRP2        0.0152
     19  NE1        4.7040    2.0380   11.5930 N.ar    2  TRP2       -0.2442
     20  CE2        3.8380    0.9830   11.7270 C.ar    2  TRP2        0.0810
     21  CE3        3.9400   -1.3630   12.3220 C.ar    2  TRP2        0.0012
     22  CZ2        2.4590    0.9290   11.5490 C.ar    2  TRP2        0.0191
     23  CZ3        2.5650   -1.4140   12.1410 C.ar    2  TRP2        0.0001
     24  CH2        1.8420   -0.2720   11.7590 C.ar    2  TRP2        0.0015
     25  N          9.9400    3.3670   18.9750 N.3    17  PHE17      -0.1241
     26  CA         8.8370    3.9380   19.7440 C.3    17  PHE17       0.1605
     27  C          8.9190    3.4490   21.1770 C.2    17  PHE17       0.2264
     28  O          8.2360    2.5010   21.5330 O.2    17  PHE17      -0.2867
     29  CB         7.4880    3.5600   19.1040 C.3    17  PHE17       0.0534
     30  CG         7.4270    3.8820   17.6460 C.ar   17  PHE17      -0.0203
     31  CD1        7.1080    5.1610   17.2250 C.ar   17  PHE17      -0.0042
     32  CD2        7.7670    2.9330   16.6950 C.ar   17  PHE17      -0.0042
     33  CE1        7.0970    5.4690   15.8730 C.ar   17  PHE17      -0.0003
     34  CE2        7.7520    3.2360   15.3510 C.ar   17  PHE17      -0.0003
     35  CZ         7.4190    4.5020   14.9420 C.ar   17  PHE17      -0.0000
     36  N         -0.6900   -1.9140    6.3530 N.3    61  HIS61      -0.1241
     37  CA        -0.7500   -2.6490    7.6160 C.3    61  HIS61       0.1621
     38  C         -2.1680   -3.1380    7.8870 C.2    61  HIS61       0.2264
     39  O         -2.3460   -4.0800    8.6520 O.2    61  HIS61      -0.2867
     40  CB        -0.3030   -1.7580    8.7860 C.3    61  HIS61       0.0745
     41  CG         1.0030   -1.0570    8.5650 C.ar   61  HIS61       0.0817
     42  ND1        2.2210   -1.6770    8.7430 N.ar   61  HIS61      -0.2268
     43  CD2        1.2810    0.2190    8.2080 C.ar   61  HIS61       0.1154
     44  CE1        3.1930   -0.8190    8.4930 C.ar   61  HIS61       0.1986
     45  NE2        2.6490    0.3400    8.1630 N.ar   61  HIS61      -0.2212
     46  N        -12.6200    6.4890   11.1760 N.3    89  GLN89      -0.1245
     47  CA       -12.3390    5.3270   10.3380 C.3    89  GLN89       0.1566
     48  C        -12.5670    4.0510   11.1020 C.2    89  GLN89       0.2260
     49  O        -12.5650    4.0530   12.3260 O.2    89  GLN89      -0.2867
     50  CB       -10.8890    5.3490    9.8030 C.3    89  GLN89       0.0367
     51  CG        -9.7980    5.5020   10.8820 C.3    89  GLN89       0.0905
     52  CD        -9.0430    4.2090   11.1810 C.2    89  GLN89       0.2608
     53  OE1       -9.6110    3.1110   11.1640 O.2    89  GLN89      -0.2717
     54  NE2       -7.7600    4.3440   11.4870 N.am   89  GLN89      -0.0878
     55  N        -11.1550   -0.2440   10.8650 N.3    91  HIS91      -0.1241
     56  CA       -10.2520   -1.1950   10.2400 C.3    91  HIS91       0.1621
     57  C        -10.3120   -2.4650   11.0580 C.2    91  HIS91       0.2264
     58  O        -10.9150   -2.4980   12.1330 O.2    91  HIS91      -0.2867
     59  CB        -8.8160   -0.6590   10.1940 C.3    91  HIS91       0.0745
     60  CG        -8.2620   -0.3990   11.5530 C.ar   91  HIS91       0.0817
     61  ND1       -8.4200    0.8070   12.2010 N.ar   91  HIS91      -0.2268
     62  CD2       -7.6290   -1.2180   12.4250 C.ar   91  HIS91       0.1154
     63  CE1       -7.8920    0.7250   13.4090 C.ar   91  HIS91       0.1986
     64  NE2       -7.3970   -0.4930   13.5630 N.ar   91  HIS91      -0.2212
     65  N         -7.9850   -6.1620   12.4030 N.3    93  HIS93      -0.1241
     66  CA        -6.7820   -6.9810   12.5330 C.3    93  HIS93       0.1621
     67  C         -7.2000   -8.4300   12.4190 C.2    93  HIS93       0.2264
     68  O         -8.2420   -8.8010   12.9630 O.2    93  HIS93      -0.2867
     69  CB        -6.0930   -6.7340   13.8760 C.3    93  HIS93       0.0745
     70  CG        -5.8320   -5.2860   14.1580 C.ar   93  HIS93       0.0817
     71  ND1       -4.6020   -4.6960   13.9480 N.ar   93  HIS93      -0.2268
     72  CD2       -6.6550   -4.3040   14.5990 C.ar   93  HIS93       0.1154
     73  CE1       -4.6740   -3.4140   14.2730 C.ar   93  HIS93       0.1986
     74  NE2       -5.9130   -3.1480   14.6560 N.ar   93  HIS93      -0.2212
     75  N        -11.9130   -2.4110   14.7660 N.3   116  HIS116     -0.1241
     76  CA       -11.6880   -1.1830   15.5170 C.3   116  HIS116      0.1621
     77  C        -12.3630   -0.0050   14.8560 C.2   116  HIS116      0.2264
     78  O        -11.9880    0.3700   13.7420 O.2   116  HIS116     -0.2867
     79  CB       -10.1960   -0.9080   15.6300 C.3   116  HIS116      0.0745
     80  CG        -9.5040   -1.8760   16.5270 C.ar  116  HIS116      0.0817
     81  ND1       -8.1440   -2.1100   16.4930 N.ar  116  HIS116     -0.2268
     82  CD2      -10.0000   -2.6860   17.4910 C.ar  116  HIS116      0.1154
     83  CE1       -7.8320   -3.0070   17.4060 C.ar  116  HIS116      0.1986
     84  NE2       -8.9410   -3.3760   18.0280 N.ar  116  HIS116     -0.2212
     85  N        -12.6850    3.7620   15.1460 N.3   118  VAL118     -0.1245
     86  CA       -11.8470    4.7860   15.7670 C.3   118  VAL118      0.1561
     87  C        -12.5580    6.1310   15.8060 C.2   118  VAL118      0.2260
     88  O        -13.0170    6.6170   14.7700 O.2   118  VAL118     -0.2867
     89  CB       -10.5200    4.9180   15.0010 C.3   118  VAL118      0.0252
     90  CG1       -9.6180    5.9740   15.6550 C.3   118  VAL118      0.0019
     91  CG2       -9.8180    3.5480   14.8810 C.3   118  VAL118      0.0019
     92  N         -8.1500   15.3120   14.6530 N.3   127  PHE127     -0.1227
     93  CA        -7.5910   14.0270   15.0260 C.3   127  PHE127      0.1736
     94  C         -6.1250   14.1220   15.4390 C.2   127  PHE127      0.2596
     95  O         -5.7080   13.4930   16.4180 O.2   127  PHE127     -0.2718
     96  CB        -7.7630   13.0580   13.8640 C.3   127  PHE127      0.0547
     97  CG        -7.2640   11.6880   14.1470 C.ar  127  PHE127     -0.0202
     98  CD1       -8.0480   10.7820   14.8380 C.ar  127  PHE127     -0.0042
     99  CD2       -6.0110   11.3010   13.7200 C.ar  127  PHE127     -0.0042
    100  CE1       -7.5930    9.5110   15.0960 C.ar  127  PHE127     -0.0003
    101  CE2       -5.5540   10.0350   13.9720 C.ar  127  PHE127     -0.0003
    102  CZ        -6.3410    9.1350   14.6620 C.ar  127  PHE127     -0.0000
    103  N         -5.3370   14.8960   14.6910 N.am  128  GLY128     -0.1957
    104  CA        -3.9290   15.0560   15.0130 C.3   128  GLY128      0.1869
    105  C         -3.6960   15.6510   16.3950 C.2   128  GLY128      0.2309
    106  O         -2.7530   15.2760   17.0820 O.2   128  GLY128     -0.2863
    107  N         -4.7700   12.8420   19.2530 N.3   131  VAL131     -0.1231
    108  CA        -3.8810   11.7280   19.6210 C.3   131  VAL131      0.1692
    109  C         -2.7770   12.1630   20.5840 C.2   131  VAL131      0.2591
    110  O         -2.0880   11.3100   21.1480 O.2   131  VAL131     -0.2718
    111  CB        -3.2360   11.0330   18.3860 C.3   131  VAL131      0.0266
    112  CG1       -4.3100   10.4470   17.4890 C.3   131  VAL131      0.0020
    113  CG2       -2.3200   11.9840   17.6150 C.3   131  VAL131      0.0020
    114  N         -2.6210   13.4720   20.7900 N.am  132  GLN132     -0.1979
    115  CA        -1.6500   13.9820   21.7540 C.3   132  GLN132      0.1601
    116  C         -2.2450   14.1240   23.1590 C.2   132  GLN132      0.2287
    117  O         -1.5860   14.6400   24.0660 O.2   132  GLN132     -0.2864
    118  CB        -1.0940   15.3340   21.2780 C.3   132  GLN132      0.0394
    119  CG        -0.5890   15.2940   19.8430 C.3   132  GLN132      0.0908
    120  CD         0.0230   16.6010   19.3930 C.2   132  GLN132      0.2608
    121  OE1        0.9140   17.1460   20.0470 O.2   132  GLN132     -0.2717
    122  NE2       -0.4680   17.1260   18.2740 N.am  132  GLN132     -0.0878
    123  N         -8.8500    9.7930   22.0600 N.3   137  LEU137     -0.1245
    124  CA        -9.5340    8.8230   21.2150 C.3   137  LEU137      0.1561
    125  C        -10.4070    7.8830   22.0130 C.2   137  LEU137      0.2260
    126  O        -10.1460    7.6180   23.1840 O.2   137  LEU137     -0.2867
    127  CB        -8.5400    7.9860   20.4110 C.3   137  LEU137      0.0270
    128  CG        -7.6160    8.6110   19.3700 C.3   137  LEU137      0.0019
    129  CD1       -7.0230    7.5280   18.4490 C.3   137  LEU137      0.0001
    130  CD2       -8.2480    9.7280   18.5680 C.3   137  LEU137      0.0001
    131  N        -11.7870    4.0230   21.0210 N.3   139  VAL139     -0.1245
    132  CA       -11.8780    2.9790   20.0180 C.3   139  VAL139      0.1561
    133  C        -12.8300    1.9080   20.5120 C.2   139  VAL139      0.2260
    134  O        -12.6940    1.4020   21.6280 O.2   139  VAL139     -0.2867
    135  CB       -10.5080    2.3560   19.6760 C.3   139  VAL139      0.0252
    136  CG1      -10.6940    1.3300   18.5490 C.3   139  VAL139      0.0019
    137  CG2       -9.5450    3.4360   19.2430 C.3   139  VAL139      0.0019
    138  N         -2.9070    3.4480   21.1260 N.3   194  LEU194     -0.1231
    139  CA        -2.9250    2.9070   19.7770 C.3   194  LEU194      0.1693
    140  C         -2.1960    1.5780   19.8080 C.2   194  LEU194      0.2593
    141  O         -1.1990    1.4310   20.5290 O.2   194  LEU194     -0.2718
    142  CB        -2.2280    3.8370   18.7860 C.3   194  LEU194      0.0284
    143  CG        -2.4960    5.3370   18.8380 C.3   194  LEU194      0.0019
    144  CD1       -1.6690    6.0320   17.7640 C.3   194  LEU194      0.0001
    145  CD2       -3.9700    5.6420   18.6610 C.3   194  LEU194      0.0001
    146  N         -2.6460    0.6200   19.0090 N.am  195  THR195     -0.1939
    147  CA        -1.9690   -0.6720   18.9580 C.3   195  THR195      0.2028
    148  C         -0.9620   -0.7480   17.8150 C.2   195  THR195      0.2643
    149  O         -0.3060   -1.7650   17.6470 O.2   195  THR195     -0.2714
    150  CB        -2.9700   -1.8350   18.8080 C.3   195  THR195      0.1808
    151  OG1       -3.6080   -1.7650   17.5260 O.3   195  THR195     -0.2208
    152  CG2       -4.0180   -1.7980   19.9230 C.3   195  THR195      0.0379
    153  N         -0.8530    0.3240   17.0330 N.am  196  THR196     -0.1937
    154  CA         0.1860    0.4560   16.0140 C.3   196  THR196      0.2013
    155  C          1.0500    1.6570   16.3340 C.2   196  THR196      0.2484
    156  O          0.5620    2.6220   16.9230 O.2   196  THR196     -0.2729
    157  CB        -0.3960    0.6450   14.6150 C.3   196  THR196      0.1807
    158  OG1       -1.3430    1.7180   14.6520 O.3   196  THR196     -0.2208
    159  CG2       -1.0970   -0.6110   14.1570 C.3   196  THR196      0.0379
    160  N          2.3350    1.6090   15.9400 N.am  197  PRO197     -0.2715
    161  CA         3.1870    2.7940   16.0370 C.3   197  PRO197      0.1521
    162  C          2.4440    3.9960   15.4650 C.2   197  PRO197      0.2440
    163  O          1.8090    3.8650   14.4120 O.2   197  PRO197     -0.2731
    164  CB         4.4010    2.4150   15.1870 C.3   197  PRO197      0.0310
    165  CG         4.5170    0.9350   15.3920 C.3   197  PRO197      0.0237
    166  CD         3.0650    0.4520   15.3890 C.3   197  PRO197      0.0939
    167  N          2.5130    5.1500   16.1320 N.am  198  PRO198     -0.2727
    168  CA         3.3980    5.5030   17.2520 C.3   198  PRO198      0.1402
    169  C          2.9590    5.0860   18.6650 C.2   198  PRO198      0.2269
    170  O          3.5850    5.5320   19.6270 O.2   198  PRO198     -0.2865
    171  CB         3.4530    7.0290   17.1600 C.3   198  PRO198      0.0296
    172  CG         2.1370    7.4110   16.5820 C.3   198  PRO198      0.0237
    173  CD         1.7820    6.3210   15.6080 C.3   198  PRO198      0.0939
    174  N          0.6970    5.8020   20.7300 N.3   200  LEU200     -0.1245
    175  CA         0.3950    6.8890   21.6480 C.3   200  LEU200      0.1561
    176  C         -0.6590    6.5000   22.6790 C.2   200  LEU200      0.2260
    177  O         -1.6300    5.7990   22.3650 O.2   200  LEU200     -0.2867
    178  CB        -0.0590    8.1230   20.8640 C.3   200  LEU200      0.0270
    179  CG         1.0030    8.6670   19.9100 C.3   200  LEU200      0.0019
    180  CD1        0.4210    9.7350   18.9850 C.3   200  LEU200      0.0001
    181  CD2        2.1790    9.2270   20.7050 C.3   200  LEU200      0.0001
    182  N         -5.9520    6.5300   24.1360 N.3   203  VAL203     -0.1245
    183  CA        -7.2070    5.8360   23.8270 C.3   203  VAL203      0.1561
    184  C         -7.9950    5.3670   25.0410 C.2   203  VAL203      0.2260
    185  O         -7.4520    4.7060   25.9190 O.2   203  VAL203     -0.2867
    186  CB        -6.9510    4.5890   22.9530 C.3   203  VAL203      0.0252
    187  CG1       -8.2670    3.8970   22.6030 C.3   203  VAL203      0.0019
    188  CG2       -6.1770    4.9630   21.6810 C.3   203  VAL203      0.0019
    189  N        -10.3790    2.5920   25.5920 N.3   205  TRP205     -0.1241
    190  CA       -10.8180    1.3730   24.9190 C.3   205  TRP205      0.1605
    191  C        -12.1810    0.9330   25.4120 C.2   205  TRP205      0.2264
    192  O        -12.4250    0.8810   26.6140 O.2   205  TRP205     -0.2867
    193  CB        -9.7850    0.2440   25.1240 C.3   205  TRP205      0.0550
    194  CG        -8.6960    0.3480   24.1130 C.ar  205  TRP205      0.0003
    195  CD1       -7.4630    0.9520   24.2710 C.ar  205  TRP205      0.0946
    196  CD2       -8.7620   -0.0750   22.7540 C.ar  205  TRP205      0.0152
    197  NE1       -6.7740    0.9180   23.0860 N.ar  205  TRP205     -0.2442
    198  CE2       -7.5410    0.2770   22.1440 C.ar  205  TRP205      0.0810
    199  CE3       -9.7360   -0.7360   21.9900 C.ar  205  TRP205      0.0012
    200  CZ2       -7.2750    0.0040   20.8030 C.ar  205  TRP205      0.0191
    201  CZ3       -9.4710   -1.0140   20.6680 C.ar  205  TRP205      0.0001
    202  CH2       -8.2460   -0.6580   20.0870 C.ar  205  TRP205      0.0015
@<TRIPOS>BOND
     1    36    37    1
     2    37    38    1
     3    37    40    1
     4     5     6    1
     5     5     2    1
     6    38    39    2
     7     6     7   ar
     8     6     8   ar
     9    45    43   ar
    10    45    44   ar
    11     7     9   ar
    12     1     2    1
    13    43    41   ar
    14     8    10   ar
    15    44    42   ar
    16    41    42   ar
    17    41    40    1
    18     9    10   ar
    19     2     3    1
    20     4     3    2
    21    14    13    2
    22     3    11   am
    23    50    47    1
    24    50    51    1
    25    59    56    1
    26    59    60    1
    27    56    55    1
    28    56    57    1
    29    47    48    1
    30    47    46    1
    31    11    12    1
    32    13    12    1
    33    51    52    1
    34    57    58    2
    35    48    49    2
    36    53    52    2
    37    52    54   am
    38    12    15    1
    39    22    20   ar
    40    22    24   ar
    41    60    61   ar
    42    60    62   ar
    43    19    20   ar
    44    19    17   ar
    45    20    18   ar
    46    24    23   ar
    47    17    16   ar
    48    18    16   ar
    49    18    21   ar
    50    23    21   ar
    51    61    63   ar
    52    16    15    1
    53    65    66    1
    54    67    66    1
    55    67    68    2
    56    62    64   ar
    57    66    69    1
    58    63    64   ar
    59    99   101   ar
    60    99    97   ar
    61    78    77    2
    62    96    97    1
    63    96    93    1
    64    69    70    1
    65    71    70   ar
    66    71    73   ar
    67   101   102   ar
    68    97    98   ar
    69   159   157    1
    70    70    72   ar
    71    73    74   ar
    72   163   162    2
    73    72    74   ar
    74   157   158    1
    75   157   154    1
    76    92    93    1
    77   102   100   ar
    78   103   104    1
    79   103    94   am
    80    75    76    1
    81    88    87    2
    82    98   100   ar
    83    77    76    1
    84    91    89    1
    85    35    34   ar
    86    35    33   ar
    87    89    90    1
    88    89    86    1
    89   104   105    1
    90    93    94    1
    91    85    86    1
    92   164   165    1
    93   164   161    1
    94    34    32   ar
    95   166   165    1
    96   166   160    1
    97    94    95    2
    98   162   161    1
    99   162   167   am
   100    76    79    1
   101   173   167    1
   102   173   172    1
   103    79    80    1
   104    86    87    1
   105    33    31   ar
   106   160   161    1
   107   160   155   am
   108   154   155    1
   109   154   153    1
   110   167   168    1
   111   155   156    2
   112   105   106    2
   113    81    80   ar
   114    81    83   ar
   115    80    82   ar
   116   172   171    1
   117    32    30   ar
   118   153   148   am
   119   171   168    1
   120    31    30   ar
   121   168   169    1
   122    83    84   ar
   123   112   111    1
   124    82    84   ar
   125   151   150    1
   126   113   111    1
   127    30    29    1
   128   149   148    2
   129   144   143    1
   130   148   147    1
   131   122   120   am
   132   111   108    1
   133   129   128    1
   134   136   135    1
   135   130   128    1
   136   145   143    1
   137   169   170    2
   138   142   143    1
   139   142   139    1
   140   150   147    1
   141   150   152    1
   142   147   146    1
   143    25    26    1
   144   180   179    1
   145   146   140   am
   146    29    26    1
   147   137   135    1
   148   107   108    1
   149   128   127    1
   150   120   119    1
   151   120   121    2
   152   108   109    1
   153   135   132    1
   154    26    27    1
   155   139   140    1
   156   139   138    1
   157   140   141    2
   158   119   118    1
   159   179   181    1
   160   179   178    1
   161   132   133    1
   162   132   131    1
   163   202   201   ar
   164   202   200   ar
   165   127   124    1
   166   133   134    2
   167   109   114   am
   168   109   110    2
   169   201   199   ar
   170   174   175    1
   171   114   115    1
   172   200   198   ar
   173   178   175    1
   174    27    28    2
   175   124   125    1
   176   124   123    1
   177   118   115    1
   178   175   176    1
   179   188   186    1
   180   115   116    1
   181   199   196   ar
   182   125   126    2
   183   198   196   ar
   184   198   197   ar
   185   177   176    2
   186   187   186    1
   187   196   194   ar
   188   186   183    1
   189   197   195   ar
   190   116   117    2
   191   183   182    1
   192   183   184    1
   193   194   195   ar
   194   194   193    1
   195   190   193    1
   196   190   191    1
   197   190   189    1
   198   184   185    2
   199   191   192    2
