@<TRIPOS>MOLECULE
tmp/4zwzA00.pdb
 170 164 0 0 0
SMALL
GASTEIGER

@<TRIPOS>ATOM
      1  N         17.8190    0.4660    3.6300 N.3    59  ASN59      -0.1240
      2  CA        18.8540    1.3550    4.1570 C.3    59  ASN59       0.1653
      3  C         20.1310    0.6370    4.5670 C.2    59  ASN59       0.2266
      4  O         20.9470    1.1900    5.2970 O.2    59  ASN59      -0.2867
      5  CB        18.3050    2.1570    5.3360 C.3    59  ASN59       0.1155
      6  CG        17.8680    1.2790    6.5030 C.2    59  ASN59       0.2627
      7  OD1       18.3620    0.1670    6.6810 O.2    59  ASN59      -0.2716
      8  ND2       16.9340    1.7840    7.3050 N.am   59  ASN59      -0.0877
      9  N         20.6280   -1.8370    6.5590 N.3    61  HIS61      -0.1226
     10  CA        20.5140   -2.6270    7.7850 C.3    61  HIS61       0.1752
     11  C         19.0930   -3.1180    8.0650 C.2    61  HIS61       0.2596
     12  O         18.8870   -3.9710    8.9280 O.2    61  HIS61      -0.2718
     13  CB        21.0400   -1.8340    8.9940 C.3    61  HIS61       0.0759
     14  CG        20.4520   -0.4630    9.1490 C.ar   61  HIS61       0.0818
     15  ND1       21.0170    0.6550    8.5750 N.ar   61  HIS61      -0.2268
     16  CD2       19.3750   -0.0250    9.8470 C.ar   61  HIS61       0.1154
     17  CE1       20.3050    1.7220    8.8990 C.ar   61  HIS61       0.1986
     18  NE2       19.3060    1.3380    9.6710 N.ar   61  HIS61      -0.2212
     19  N         18.1220   -2.5790    7.3390 N.am   62  SER62      -0.1952
     20  CA        16.7280   -2.9840    7.4540 C.3    62  SER62       0.1924
     21  C         15.9990   -2.4460    6.2310 C.2    62  SER62       0.2314
     22  O         16.6290   -1.9050    5.3280 O.2    62  SER62      -0.2863
     23  CB        16.0940   -2.4430    8.7380 C.3    62  SER62       0.2116
     24  OG        14.7250   -2.8310    8.8510 O.3    62  SER62      -0.2180
     25  N         12.6370    0.2150    5.6560 N.3    64  GLN64      -0.1245
     26  CA        11.7250    1.0420    6.4230 C.3    64  GLN64       0.1566
     27  C         10.6840    1.7120    5.5510 C.2    64  GLN64       0.2260
     28  O         10.9450    2.0610    4.3940 O.2    64  GLN64      -0.2867
     29  CB        12.4800    2.1020    7.2410 C.3    64  GLN64       0.0367
     30  CG        13.2240    3.1570    6.4530 C.3    64  GLN64       0.0905
     31  CD        13.8740    4.1880    7.3650 C.2    64  GLN64       0.2608
     32  OE1       14.9930    4.0000    7.8360 O.2    64  GLN64      -0.2717
     33  NE2       13.1720    5.2820    7.6100 N.am   64  GLN64      -0.0878
     34  N          7.3590    8.5110   12.5920 N.3    88  LEU88      -0.1231
     35  CA         8.2970    8.8640   11.5270 C.3    88  LEU88       0.1693
     36  C          8.5010    7.7120   10.5390 C.2    88  LEU88       0.2591
     37  O          8.5080    7.9130    9.3260 O.2    88  LEU88      -0.2718
     38  CB         9.6440    9.2790   12.1240 C.3    88  LEU88       0.0284
     39  CG        10.8070    9.3630   11.1430 C.3    88  LEU88       0.0019
     40  CD1       10.5280   10.4300   10.1020 C.3    88  LEU88       0.0001
     41  CD2       12.0730    9.6780   11.8890 C.3    88  LEU88       0.0001
     42  N          8.6820    6.5010   11.0660 N.am   89  GLN89      -0.1979
     43  CA         8.9480    5.3510   10.2100 C.3    89  GLN89       0.1601
     44  C          8.7230    4.0480   10.9530 C.2    89  GLN89       0.2287
     45  O          8.7090    4.0330   12.1780 O.2    89  GLN89      -0.2864
     46  CB        10.3830    5.4020    9.6830 C.3    89  GLN89       0.0394
     47  CG        11.4210    5.5600   10.8020 C.3    89  GLN89       0.0908
     48  CD        12.1580    4.2700   11.1200 C.2    89  GLN89       0.2608
     49  OE1       11.6060    3.1800   11.0140 O.2    89  GLN89      -0.2717
     50  NE2       13.4190    4.3970   11.5130 N.am   89  GLN89      -0.0878
     51  N         10.1330   -0.2150   10.7460 N.3    91  HIS91      -0.1241
     52  CA        11.0910   -1.1140   10.1300 C.3    91  HIS91       0.1621
     53  C         11.0570   -2.4090   10.9170 C.2    91  HIS91       0.2264
     54  O         10.3780   -2.4900   11.9450 O.2    91  HIS91      -0.2867
     55  CB        12.4970   -0.5130   10.1420 C.3    91  HIS91       0.0745
     56  CG        13.0110   -0.2540   11.5220 C.ar   91  HIS91       0.0817
     57  ND1       12.7730    0.9260   12.1910 N.ar   91  HIS91      -0.2268
     58  CD2       13.6990   -1.0420   12.3810 C.ar   91  HIS91       0.1154
     59  CE1       13.3170    0.8630   13.3960 C.ar   91  HIS91       0.1986
     60  NE2       13.8890   -0.3180   13.5340 N.ar   91  HIS91      -0.2212
     61  N         13.2980   -6.1560   12.2850 N.3    93  HIS93      -0.1241
     62  CA        14.5080   -6.9170   12.5220 C.3    93  HIS93       0.1621
     63  C         14.0800   -8.3670   12.4150 C.2    93  HIS93       0.2264
     64  O         13.0130   -8.7180   12.9110 O.2    93  HIS93      -0.2867
     65  CB        15.1070   -6.6110   13.8990 C.3    93  HIS93       0.0745
     66  CG        15.3970   -5.1570   14.1220 C.ar   93  HIS93       0.0817
     67  ND1       16.6430   -4.6110   13.9220 N.ar   93  HIS93      -0.2268
     68  CD2       14.5910   -4.1370   14.5000 C.ar   93  HIS93       0.1154
     69  CE1       16.6050   -3.3160   14.1960 C.ar   93  HIS93       0.1986
     70  NE2       15.3700   -3.0040   14.5430 N.ar   93  HIS93      -0.2212
     71  N          9.3440   -2.2920   14.6310 N.3   116  HIS116     -0.1241
     72  CA         9.5770   -1.0700   15.3850 C.3   116  HIS116      0.1621
     73  C          8.8810    0.1030   14.7170 C.2   116  HIS116      0.2264
     74  O          9.2140    0.4480   13.5810 O.2   116  HIS116     -0.2867
     75  CB        11.0800   -0.7960   15.5130 C.3   116  HIS116      0.0745
     76  CG        11.7710   -1.7450   16.4350 C.ar  116  HIS116      0.0817
     77  ND1       13.1370   -1.9600   16.4170 N.ar  116  HIS116     -0.2268
     78  CD2       11.2820   -2.5380   17.4160 C.ar  116  HIS116      0.1154
     79  CE1       13.4510   -2.8460   17.3420 C.ar  116  HIS116      0.1986
     80  NE2       12.3450   -3.2100   17.9680 N.ar  116  HIS116     -0.2212
     81  N          8.7100    3.8750   15.0130 N.3   118  VAL118     -0.1245
     82  CA         9.5380    4.9100   15.6190 C.3   118  VAL118      0.1561
     83  C          8.7980    6.2530   15.6330 C.2   118  VAL118      0.2260
     84  O          8.3350    6.7250   14.5860 O.2   118  VAL118     -0.2867
     85  CB        10.8810    5.0460   14.8560 C.3   118  VAL118      0.0252
     86  CG1       11.7980    6.0370   15.5450 C.3   118  VAL118      0.0019
     87  CG2       11.5640    3.6980   14.7110 C.3   118  VAL118      0.0019
     88  N         13.3640   15.1730   14.5480 N.3   127  VAL127     -0.1231
     89  CA        13.8430   13.9080   15.0830 C.3   127  VAL127      0.1692
     90  C         15.3290   13.9930   15.4210 C.2   127  VAL127      0.2592
     91  O         15.7810   13.3600   16.3670 O.2   127  VAL127     -0.2718
     92  CB        13.5670   12.7290   14.1040 C.3   127  VAL127      0.0266
     93  CG1       14.3430   12.8950   12.7960 C.3   127  VAL127      0.0020
     94  CG2       13.8800   11.3970   14.7750 C.3   127  VAL127      0.0020
     95  N         16.0740   14.8140   14.6820 N.am  128  GLY128     -0.1957
     96  CA        17.4920   15.0000   14.9370 C.3   128  GLY128      0.1869
     97  C         17.7500   15.5630   16.3230 C.2   128  GLY128      0.2309
     98  O         18.6930   15.1750   17.0110 O.2   128  GLY128     -0.2863
     99  N         16.6410   12.8170   19.1540 N.3   131  VAL131     -0.1245
    100  CA        17.5680   11.7310   19.4680 C.3   131  VAL131      0.1561
    101  C         18.6370   12.2330   20.4690 C.2   131  VAL131      0.2260
    102  O         19.2860   11.4160   21.1310 O.2   131  VAL131     -0.2867
    103  CB        18.2310   11.1070   18.2070 C.3   131  VAL131      0.0252
    104  CG1       17.1890   10.3780   17.3490 C.3   131  VAL131      0.0019
    105  CG2       18.9730   12.1370   17.4170 C.3   131  VAL131      0.0019
    106  N         12.4560    9.9570   21.9120 N.3   137  LEU137     -0.1245
    107  CA        11.8300    8.9790   21.0390 C.3   137  LEU137      0.1561
    108  C         10.9450    8.0160   21.8250 C.2   137  LEU137      0.2260
    109  O         11.2170    7.7170   22.9870 O.2   137  LEU137     -0.2867
    110  CB        12.8950    8.1930   20.2600 C.3   137  LEU137      0.0270
    111  CG        13.2460    8.7020   18.8580 C.3   137  LEU137      0.0019
    112  CD1       13.7730   10.1200   18.8880 C.3   137  LEU137      0.0001
    113  CD2       14.2650    7.7740   18.1930 C.3   137  LEU137      0.0001
    114  N          9.5000    4.1830   20.9010 N.3   139  VAL139     -0.1245
    115  CA         9.4140    3.1440   19.8910 C.3   139  VAL139      0.1561
    116  C          8.4550    2.0710   20.3620 C.2   139  VAL139      0.2260
    117  O          8.5880    1.5400   21.4690 O.2   139  VAL139     -0.2867
    118  CB        10.7870    2.5120   19.5590 C.3   139  VAL139      0.0252
    119  CG1       10.6260    1.4790   18.4360 C.3   139  VAL139      0.0019
    120  CG2       11.7680    3.5900   19.1160 C.3   139  VAL139      0.0019
    121  N         18.3330    3.5010   21.0730 N.3   194  LEU194     -0.1231
    122  CA        18.2850    2.9530   19.7220 C.3   194  LEU194      0.1693
    123  C         19.0290    1.6300   19.7500 C.2   194  LEU194      0.2593
    124  O         20.0060    1.4800   20.4910 O.2   194  LEU194     -0.2718
    125  CB        18.9260    3.9050   18.7060 C.3   194  LEU194      0.0284
    126  CG        18.4250    5.3430   18.6460 C.3   194  LEU194      0.0019
    127  CD1       19.3430    6.1530   17.7370 C.3   194  LEU194      0.0001
    128  CD2       16.9890    5.3760   18.1580 C.3   194  LEU194      0.0001
    129  N         18.5780    0.6670   18.9510 N.am  195  THR195     -0.1939
    130  CA        19.2410   -0.6290   18.9140 C.3   195  THR195      0.2028
    131  C         20.2300   -0.7540   17.7550 C.2   195  THR195      0.2643
    132  O         20.8440   -1.8020   17.5890 O.2   195  THR195     -0.2714
    133  CB        18.2340   -1.7890   18.8010 C.3   195  THR195      0.1808
    134  OG1       17.6170   -1.7770   17.4990 O.3   195  THR195     -0.2208
    135  CG2       17.1790   -1.7090   19.9000 C.3   195  THR195      0.0379
    136  N         20.3540    0.2920   16.9440 N.am  196  THR196     -0.1937
    137  CA        21.4360    0.3960   15.9680 C.3   196  THR196      0.2013
    138  C         22.2670    1.6200   16.3040 C.2   196  THR196      0.2484
    139  O         21.7860    2.5210   16.9870 O.2   196  THR196     -0.2729
    140  CB        20.9250    0.5320   14.5110 C.3   196  THR196      0.1807
    141  OG1       20.2190    1.7660   14.3750 O.3   196  THR196     -0.2208
    142  CG2       20.0080   -0.6060   14.1300 C.3   196  THR196      0.0379
    143  N         23.5170    1.6610   15.8290 N.am  197  PRO197     -0.2715
    144  CA        24.2520    2.9260   15.9150 C.3   197  PRO197      0.1521
    145  C         23.3810    4.0880   15.4320 C.2   197  PRO197      0.2440
    146  O         22.6430    3.9360   14.4530 O.2   197  PRO197     -0.2731
    147  CB        25.4500    2.6880   14.9950 C.3   197  PRO197      0.0310
    148  CG        25.7010    1.2200   15.1130 C.3   197  PRO197      0.0237
    149  CD        24.3370    0.5730   15.2690 C.3   197  PRO197      0.0939
    150  N         23.4550    5.2410   16.1070 N.am  198  PRO198     -0.2727
    151  CA        24.4180    5.5970   17.1510 C.3   198  PRO198      0.1402
    152  C         24.0690    5.1380   18.5700 C.2   198  PRO198      0.2269
    153  O         24.7410    5.5750   19.5110 O.2   198  PRO198     -0.2865
    154  CB        24.4270    7.1190   17.0840 C.3   198  PRO198      0.0296
    155  CG        23.0180    7.4600   16.7100 C.3   198  PRO198      0.0237
    156  CD        22.5550    6.3640   15.7810 C.3   198  PRO198      0.0939
    157  N         10.8620    2.7300   25.4860 N.3   205  TRP205     -0.1241
    158  CA        10.4160    1.5230   24.8130 C.3   205  TRP205      0.1605
    159  C          9.0460    1.1270   25.3080 C.2   205  TRP205      0.2264
    160  O          8.7830    1.1200   26.5020 O.2   205  TRP205     -0.2867
    161  CB        11.4120    0.3800   25.0160 C.3   205  TRP205      0.0550
    162  CG        12.5240    0.4720   24.0250 C.ar  205  TRP205      0.0003
    163  CD1       13.7620    1.0200   24.2190 C.ar  205  TRP205      0.0946
    164  CD2       12.4770    0.0530   22.6640 C.ar  205  TRP205      0.0152
    165  NE1       14.4970    0.9490   23.0570 N.ar  205  TRP205     -0.2442
    166  CE2       13.7280    0.3550   22.0860 C.ar  205  TRP205      0.0810
    167  CE3       11.4990   -0.5690   21.8750 C.ar  205  TRP205      0.0012
    168  CZ2       14.0280    0.0650   20.7550 C.ar  205  TRP205      0.0191
    169  CZ3       11.7980   -0.8710   20.5630 C.ar  205  TRP205      0.0001
    170  CH2       13.0540   -0.5520   20.0100 C.ar  205  TRP205      0.0015
@<TRIPOS>BOND
     1     1     2    1
     2     2     3    1
     3     2     5    1
     4    28    27    2
     5     3     4    2
     6    22    21    2
     7     5     6    1
     8    27    26    1
     9    25    26    1
    10    21    20    1
    11    26    29    1
    12    30    29    1
    13    30    31    1
    14     6     7    2
    15     6     8   am
    16     9    10    1
    17    19    20    1
    18    19    11   am
    19    31    33   am
    20    31    32    2
    21    20    23    1
    22    10    11    1
    23    10    13    1
    24    11    12    2
    25    15    17   ar
    26    15    14   ar
    27    23    24    1
    28    17    18   ar
    29    13    14    1
    30    14    16   ar
    31    37    36    2
    32    18    16   ar
    33    46    43    1
    34    46    47    1
    35    40    39    1
    36    52    55    1
    37    52    51    1
    38    52    53    1
    39    55    56    1
    40    43    44    1
    41    43    42    1
    42    36    42   am
    43    36    35    1
    44    47    48    1
    45    53    54    2
    46    44    45    2
    47    49    48    2
    48    48    50   am
    49    39    41    1
    50    39    38    1
    51    56    57   ar
    52    56    58   ar
    53    35    38    1
    54    35    34    1
    55    57    59   ar
    56    61    62    1
    57    58    60   ar
    58    63    62    1
    59    63    64    2
    60    62    65    1
    61    93    92    1
    62    59    60   ar
    63    74    73    2
    64    65    66    1
    65    67    66   ar
    66    67    69   ar
    67    92    94    1
    68    92    89    1
    69    66    68   ar
    70   142   140    1
    71    69    70   ar
    72   141   140    1
    73   146   145    2
    74    68    70   ar
    75   140   137    1
    76    88    89    1
    77    84    83    2
    78    71    72    1
    79    95    96    1
    80    95    90   am
    81    87    85    1
    82    73    72    1
    83    85    86    1
    84    85    82    1
    85    96    97    1
    86   147   148    1
    87   147   144    1
    88    81    82    1
    89    89    90    1
    90   148   149    1
    91   149   143    1
    92    72    75    1
    93    90    91    2
    94   145   144    1
    95   145   150   am
    96    75    76    1
    97    82    83    1
    98   156   150    1
    99   156   155    1
   100   143   144    1
   101   143   138   am
   102   137   138    1
   103   137   136    1
   104   150   151    1
   105   138   139    2
   106    97    98    2
   107    77    76   ar
   108    77    79   ar
   109    76    78   ar
   110   155   154    1
   111   136   131   am
   112   154   151    1
   113   151   152    1
   114    79    80   ar
   115   104   103    1
   116    78    80   ar
   117   105   103    1
   118   134   133    1
   119   132   131    2
   120   127   126    1
   121   131   130    1
   122   128   126    1
   123   113   111    1
   124   103   100    1
   125   119   118    1
   126   152   153    2
   127   126   125    1
   128   125   122    1
   129   133   130    1
   130   133   135    1
   131   111   112    1
   132   111   110    1
   133   130   129    1
   134   129   123   am
   135   120   118    1
   136    99   100    1
   137   100   101    1
   138   118   115    1
   139   122   123    1
   140   122   121    1
   141   123   124    2
   142   115   116    1
   143   115   114    1
   144   170   169   ar
   145   170   168   ar
   146   110   107    1
   147   116   117    2
   148   101   102    2
   149   169   167   ar
   150   168   166   ar
   151   107   108    1
   152   107   106    1
   153   108   109    2
   154   167   164   ar
   155   166   164   ar
   156   166   165   ar
   157   164   162   ar
   158   165   163   ar
   159   162   163   ar
   160   162   161    1
   161   158   161    1
   162   158   159    1
   163   158   157    1
   164   159   160    2
