@<TRIPOS>MOLECULE
tmp/4zx0A00.pdb
 187 184 0 0 0
SMALL
GASTEIGER

@<TRIPOS>ATOM
      1  N          8.6380   -0.3590   10.8830 N.3     2  TRP2       -0.1241
      2  CA         7.7280   -1.3250   11.5410 C.3     2  TRP2        0.1605
      3  C          6.7050   -2.0900   10.6710 C.2     2  TRP2        0.2264
      4  O          6.1820   -1.6010    9.6590 O.2     2  TRP2       -0.2867
      5  CB         6.9750   -0.6300   12.6780 C.3     2  TRP2        0.0550
      6  CG         5.7680    0.1450   12.2620 C.ar    2  TRP2        0.0003
      7  CD1        5.7250    1.4660   11.9040 C.ar    2  TRP2        0.0946
      8  CD2        4.4190   -0.3290   12.2080 C.ar    2  TRP2        0.0152
      9  NE1        4.4380    1.8350   11.6070 N.ar    2  TRP2       -0.2442
     10  CE2        3.6140    0.7480   11.7810 C.ar    2  TRP2        0.0810
     11  CE3        3.8090   -1.5680   12.4630 C.ar    2  TRP2        0.0012
     12  CZ2        2.2380    0.6370   11.6200 C.ar    2  TRP2        0.0191
     13  CZ3        2.4320   -1.6760   12.2940 C.ar    2  TRP2        0.0001
     14  CH2        1.6670   -0.5800   11.8780 C.ar    2  TRP2        0.0015
     15  N          4.7370   -6.4710   10.7860 N.3     4  TYR4       -0.1241
     16  CA         4.3420   -7.6370   11.5720 C.3     4  TYR4        0.1605
     17  C          5.1800   -8.8740   11.2520 C.2     4  TYR4        0.2264
     18  O          4.8020  -10.0010   11.5670 O.2     4  TYR4       -0.2867
     19  CB         2.8550   -7.9370   11.3610 C.3     4  TYR4        0.0534
     20  CG         1.9350   -6.8410   11.8760 C.ar    4  TYR4       -0.0201
     21  CD1        1.5470   -6.8050   13.2130 C.ar    4  TYR4       -0.0009
     22  CD2        1.4610   -5.8500   11.0270 C.ar    4  TYR4       -0.0009
     23  CE1        0.7180   -5.8030   13.6860 C.ar    4  TYR4        0.0417
     24  CE2        0.6190   -4.8460   11.4880 C.ar    4  TYR4        0.0417
     25  CZ         0.2540   -4.8370   12.8300 C.ar    4  TYR4        0.1957
     26  OH        -0.5780   -3.8510   13.3150 O.3     4  TYR4       -0.2866
     27  N         -3.3590    0.2720    3.4810 N.3    59  ASN59      -0.1240
     28  CA        -2.1990    1.1040    3.8410 C.3    59  ASN59       0.1653
     29  C         -0.9510    0.2750    4.1330 C.2    59  ASN59       0.2266
     30  O          0.0300    0.7810    4.6900 O.2    59  ASN59      -0.2867
     31  CB        -2.5240    1.9930    5.0510 C.3    59  ASN59       0.1155
     32  CG        -2.6610    1.2090    6.3450 C.2    59  ASN59       0.2627
     33  OD1       -2.7320   -0.0170    6.3430 O.2    59  ASN59      -0.2716
     34  ND2       -2.7140    1.9240    7.4630 N.am   59  ASN59      -0.0877
     35  N         -0.7570   -2.1940    6.2220 N.3    61  HIS61      -0.1226
     36  CA        -0.8470   -2.7990    7.5640 C.3    61  HIS61       0.1752
     37  C         -2.2160   -3.4230    7.8110 C.2    61  HIS61       0.2595
     38  O         -2.3390   -4.3900    8.5530 O.2    61  HIS61      -0.2718
     39  CB        -0.5840   -1.7740    8.6710 C.3    61  HIS61       0.0759
     40  CG         0.7420   -1.0900    8.5660 C.ar   61  HIS61       0.0818
     41  ND1        1.9370   -1.7550    8.7440 N.ar   61  HIS61      -0.2268
     42  CD2        1.0590    0.2040    8.3310 C.ar   61  HIS61       0.1154
     43  CE1        2.9360   -0.9020    8.6030 C.ar   61  HIS61       0.1986
     44  NE2        2.4340    0.2910    8.3420 N.ar   61  HIS61      -0.2212
     45  N         -3.2410   -2.8360    7.2020 N.am   62  ALA62      -0.1980
     46  CA        -4.6200   -3.3030    7.3260 C.3    62  ALA62       0.1597
     47  C         -5.4050   -2.6680    6.1770 C.2    62  ALA62       0.2287
     48  O         -4.8140   -1.9810    5.3520 O.2    62  ALA62      -0.2864
     49  CB        -5.2120   -2.9160    8.6810 C.3    62  ALA62       0.0319
     50  N         -8.5700    0.0990    5.6910 N.3    64  ASN64      -0.1240
     51  CA        -9.2210    1.1180    6.4920 C.3    64  ASN64       0.1653
     52  C        -10.3930    1.7170    5.7560 C.2    64  ASN64       0.2266
     53  O        -10.2490    2.1560    4.6210 O.2    64  ASN64      -0.2867
     54  CB        -8.2220    2.2020    6.8500 C.3    64  ASN64       0.1155
     55  CG        -6.9650    1.6280    7.4490 C.2    64  ASN64       0.2627
     56  OD1       -6.8710    1.4870    8.6490 O.2    64  ASN64      -0.2716
     57  ND2       -6.0080    1.2520    6.6050 N.am   64  ASN64      -0.0877
     58  N        -13.9670    8.3130   12.8550 N.3    88  ILE88      -0.1231
     59  CA       -13.0900    8.7380   11.7690 C.3    88  ILE88       0.1692
     60  C        -12.7970    7.5730   10.8120 C.2    88  ILE88       0.2591
     61  O        -12.7390    7.7590    9.5950 O.2    88  ILE88      -0.2718
     62  CB       -11.7660    9.3560   12.3120 C.3    88  ILE88       0.0266
     63  CG1      -10.8090    9.6880   11.1610 C.3    88  ILE88       0.0019
     64  CG2      -11.0800    8.4350   13.3200 C.3    88  ILE88       0.0020
     65  CD1       -9.5850   10.4750   11.5920 C.3    88  ILE88       0.0001
     66  N        -12.6610    6.3630   11.3480 N.am   89  GLN89      -0.1979
     67  CA       -12.4260    5.2070   10.4920 C.3    89  GLN89       0.1601
     68  C        -12.6320    3.9030   11.2340 C.2    89  GLN89       0.2287
     69  O        -12.6970    3.8890   12.4670 O.2    89  GLN89      -0.2864
     70  CB       -11.0060    5.2380    9.9010 C.3    89  GLN89       0.0394
     71  CG        -9.8950    5.1260   10.9280 C.3    89  GLN89       0.0908
     72  CD        -9.2050    3.7710   10.8850 C.2    89  GLN89       0.2608
     73  OE1       -9.6840    2.8090   11.4710 O.2    89  GLN89      -0.2717
     74  NE2       -8.0800    3.6940   10.1780 N.am   89  GLN89      -0.0878
     75  N        -11.1490   -0.4050   10.9710 N.3    91  HIS91      -0.1241
     76  CA       -10.2430   -1.3540   10.3510 C.3    91  HIS91       0.1621
     77  C        -10.3170   -2.6530   11.1380 C.2    91  HIS91       0.2264
     78  O        -10.9830   -2.7220   12.1740 O.2    91  HIS91      -0.2867
     79  CB        -8.8110   -0.8290   10.3390 C.3    91  HIS91       0.0745
     80  CG        -8.2760   -0.5920   11.7140 C.ar   91  HIS91       0.0817
     81  ND1       -8.4350    0.6040   12.3800 N.ar   91  HIS91      -0.2268
     82  CD2       -7.6540   -1.4280   12.5800 C.ar   91  HIS91       0.1154
     83  CE1       -7.9020    0.5050   13.5860 C.ar   91  HIS91       0.1986
     84  NE2       -7.4290   -0.7210   13.7330 N.ar   91  HIS91      -0.2212
     85  N         -7.9980   -6.3490   12.4520 N.3    93  HIS93      -0.1241
     86  CA        -6.8050   -7.1750   12.5880 C.3    93  HIS93       0.1621
     87  C         -7.2430   -8.6250   12.4710 C.2    93  HIS93       0.2264
     88  O         -8.2810   -8.9820   13.0170 O.2    93  HIS93      -0.2867
     89  CB        -6.1210   -6.9480   13.9370 C.3    93  HIS93       0.0745
     90  CG        -5.8390   -5.5070   14.2300 C.ar   93  HIS93       0.0817
     91  ND1       -4.6140   -4.9230   13.9740 N.ar   93  HIS93      -0.2268
     92  CD2       -6.6300   -4.5260   14.7260 C.ar   93  HIS93       0.1154
     93  CE1       -4.6550   -3.6500   14.3290 C.ar   93  HIS93       0.1986
     94  NE2       -5.8720   -3.3770   14.7640 N.ar   93  HIS93      -0.2212
     95  N        -11.9340   -2.6220   14.8880 N.3   116  HIS116     -0.1241
     96  CA       -11.7270   -1.3960   15.6520 C.3   116  HIS116      0.1621
     97  C        -12.3970   -0.2230   14.9720 C.2   116  HIS116      0.2264
     98  O        -12.0380    0.1230   13.8430 O.2   116  HIS116     -0.2867
     99  CB       -10.2320   -1.1110   15.8020 C.3   116  HIS116      0.0745
    100  CG        -9.5270   -2.0900   16.6820 C.ar  116  HIS116      0.0817
    101  ND1       -8.1640   -2.2970   16.6330 N.ar  116  HIS116     -0.2268
    102  CD2      -10.0090   -2.9270   17.6300 C.ar  116  HIS116      0.1154
    103  CE1       -7.8350   -3.2160   17.5250 C.ar  116  HIS116      0.1986
    104  NE2       -8.9360   -3.6130   18.1420 N.ar  116  HIS116     -0.2212
    105  N        -12.6320    3.5930   15.2830 N.3   118  VAL118     -0.1245
    106  CA       -11.8440    4.6320   15.9460 C.3   118  VAL118      0.1561
    107  C        -12.5900    5.9620   15.9910 C.2   118  VAL118      0.2260
    108  O        -13.0890    6.4330   14.9580 O.2   118  VAL118     -0.2867
    109  CB       -10.4980    4.8360   15.2420 C.3   118  VAL118      0.0252
    110  CG1       -9.6640    5.9140   15.9570 C.3   118  VAL118      0.0019
    111  CG2       -9.7250    3.5090   15.1570 C.3   118  VAL118      0.0019
    112  N         -8.1280   15.0960   14.8700 N.3   127  PHE127     -0.1241
    113  CA        -7.5620   13.8180   15.2720 C.3   127  PHE127      0.1605
    114  C         -6.1120   13.9310   15.7210 C.2   127  PHE127      0.2264
    115  O         -5.7250   13.3360   16.7240 O.2   127  PHE127     -0.2867
    116  CB        -7.6810   12.8140   14.1190 C.3   127  PHE127      0.0534
    117  CG        -7.0610   11.4880   14.4140 C.ar  127  PHE127     -0.0203
    118  CD1       -7.7660   10.5200   15.1060 C.ar  127  PHE127     -0.0042
    119  CD2       -5.7630   11.2100   14.0060 C.ar  127  PHE127     -0.0042
    120  CE1       -7.1950    9.2970   15.3860 C.ar  127  PHE127     -0.0003
    121  CE2       -5.1850    9.9890   14.2850 C.ar  127  PHE127     -0.0003
    122  CZ        -5.9020    9.0270   14.9760 C.ar  127  PHE127     -0.0000
    123  N         -8.9350    9.5980   22.3180 N.3   137  LEU137     -0.1245
    124  CA        -9.6120    8.6340   21.4450 C.3   137  LEU137      0.1561
    125  C        -10.4910    7.6740   22.2180 C.2   137  LEU137      0.2260
    126  O        -10.2510    7.4030   23.3900 O.2   137  LEU137     -0.2867
    127  CB        -8.6050    7.8080   20.6400 C.3   137  LEU137      0.0270
    128  CG        -7.6470    8.5040   19.6690 C.3   137  LEU137      0.0019
    129  CD1       -6.9910    7.4690   18.7610 C.3   137  LEU137      0.0001
    130  CD2       -8.2890    9.5910   18.8460 C.3   137  LEU137      0.0001
    131  N        -11.8380    3.8180   21.1940 N.3   139  VAL139     -0.1245
    132  CA       -11.9040    2.8010   20.1650 C.3   139  VAL139      0.1561
    133  C        -12.8570    1.7130   20.6230 C.2   139  VAL139      0.2260
    134  O        -12.7370    1.1810   21.7320 O.2   139  VAL139     -0.2867
    135  CB       -10.5100    2.2040   19.8260 C.3   139  VAL139      0.0252
    136  CG1      -10.6290    1.2160   18.6640 C.3   139  VAL139      0.0019
    137  CG2       -9.5530    3.3090   19.4270 C.3   139  VAL139      0.0019
    138  N         -2.9740    3.1990   21.3600 N.3   194  LEU194     -0.1231
    139  CA        -2.9650    2.6780   20.0000 C.3   194  LEU194      0.1693
    140  C         -2.2190    1.3550   20.0090 C.2   194  LEU194      0.2593
    141  O         -1.2250    1.2060   20.7390 O.2   194  LEU194     -0.2718
    142  CB        -2.2840    3.6590   19.0390 C.3   194  LEU194      0.0284
    143  CG        -2.8200    5.0880   19.0330 C.3   194  LEU194      0.0019
    144  CD1       -1.9370    5.9700   18.1610 C.3   194  LEU194      0.0001
    145  CD2       -4.2610    5.1320   18.5480 C.3   194  LEU194      0.0001
    146  N         -2.6570    0.4070   19.1830 N.am  195  THR195     -0.1939
    147  CA        -1.9730   -0.8800   19.1380 C.3   195  THR195      0.2028
    148  C         -0.9860   -0.9870   17.9840 C.2   195  THR195      0.2643
    149  O         -0.3660   -2.0300   17.8150 O.2   195  THR195     -0.2714
    150  CB        -2.9500   -2.0550   19.0220 C.3   195  THR195      0.1808
    151  OG1       -3.5760   -2.0400   17.7320 O.3   195  THR195     -0.2208
    152  CG2       -4.0040   -2.0300   20.1580 C.3   195  THR195      0.0379
    153  N         -0.8660    0.0750   17.1860 N.am  196  THR196     -0.1937
    154  CA         0.2170    0.1990   16.1950 C.3   196  THR196      0.2013
    155  C          1.0780    1.3840   16.5630 C.2   196  THR196      0.2484
    156  O          0.6160    2.3000   17.2380 O.2   196  THR196     -0.2729
    157  CB        -0.2970    0.4320   14.7630 C.3   196  THR196      0.1807
    158  OG1       -0.8800    1.7420   14.6750 O.3   196  THR196     -0.2208
    159  CG2       -1.3150   -0.6280   14.3700 C.3   196  THR196      0.0379
    160  N          2.3330    1.3920   16.0960 N.am  197  PRO197     -0.2715
    161  CA         3.0810    2.6440   16.1790 C.3   197  PRO197      0.1521
    162  C          2.2240    3.7870   15.6280 C.2   197  PRO197      0.2440
    163  O          1.5700    3.6050   14.5910 O.2   197  PRO197     -0.2731
    164  CB         4.3080    2.3600   15.3080 C.3   197  PRO197      0.0310
    165  CG         4.5220    0.8520   15.4890 C.3   197  PRO197      0.0237
    166  CD         3.1160    0.2960   15.4930 C.3   197  PRO197      0.0939
    167  N          2.2310    4.9550   16.2870 N.am  198  PRO198     -0.2727
    168  CA         3.1420    5.3800   17.3620 C.3   198  PRO198      0.1402
    169  C          2.8040    4.9320   18.7870 C.2   198  PRO198      0.2269
    170  O          3.4860    5.3950   19.7080 O.2   198  PRO198     -0.2865
    171  CB         3.0640    6.9040   17.2720 C.3   198  PRO198      0.0296
    172  CG         1.6860    7.1690   16.8000 C.3   198  PRO198      0.0237
    173  CD         1.3790    6.0670   15.8230 C.3   198  PRO198      0.0939
    174  N        -10.4460    2.3560   25.7670 N.3   205  TRP205     -0.1241
    175  CA       -10.8860    1.1640   25.0610 C.3   205  TRP205      0.1605
    176  C        -12.2530    0.7180   25.5430 C.2   205  TRP205      0.2264
    177  O        -12.4990    0.6380   26.7410 O.2   205  TRP205     -0.2867
    178  CB        -9.8580    0.0350   25.2310 C.3   205  TRP205      0.0550
    179  CG        -8.7730    0.1590   24.2340 C.ar  205  TRP205      0.0003
    180  CD1       -7.5430    0.7290   24.4140 C.ar  205  TRP205      0.0946
    181  CD2       -8.8260   -0.2760   22.8760 C.ar  205  TRP205      0.0152
    182  NE1       -6.8390    0.6930   23.2340 N.ar  205  TRP205     -0.2442
    183  CE2       -7.5950    0.0660   22.2820 C.ar  205  TRP205      0.0810
    184  CE3       -9.8020   -0.9140   22.1030 C.ar  205  TRP205      0.0012
    185  CZ2       -7.3070   -0.2150   20.9490 C.ar  205  TRP205      0.0191
    186  CZ3       -9.5120   -1.2060   20.7840 C.ar  205  TRP205      0.0001
    187  CH2       -8.2720   -0.8550   20.2130 C.ar  205  TRP205      0.0015
@<TRIPOS>BOND
     1    27    28    1
     2    28    29    1
     3    28    31    1
     4    29    30    2
     5    53    52    2
     6    31    32    1
     7    48    47    2
     8    50    51    1
     9    52    51    1
    10    47    46    1
    11    35    36    1
    12    33    32    2
    13    32    34   am
    14    51    54    1
    15    57    55   am
    16    54    55    1
    17    45    46    1
    18    45    37   am
    19    46    49    1
    20    55    56    2
    21    36    37    1
    22    36    39    1
    23    37    38    2
    24    42    44   ar
    25    42    40   ar
    26    44    43   ar
    27    40    39    1
    28    40    41   ar
    29    43    41   ar
    30    61    60    2
    31     4     3    2
    32    70    67    1
    33    70    71    1
    34    74    72   am
    35    79    76    1
    36    79    80    1
    37    76    75    1
    38    76    77    1
    39    67    68    1
    40    67    66    1
    41     3     2    1
    42    15    16    1
    43    60    66   am
    44    60    59    1
    45     1     2    1
    46    72    71    1
    47    72    73    2
    48    22    24   ar
    49    22    20   ar
    50    77    78    2
    51    63    65    1
    52    63    62    1
    53    68    69    2
    54    17    18    2
    55    17    16    1
    56    19    16    1
    57    19    20    1
    58    24    25   ar
    59     2     5    1
    60     9    10   ar
    61     9     7   ar
    62    12    10   ar
    63    12    14   ar
    64    80    81   ar
    65    80    82   ar
    66    59    62    1
    67    59    58    1
    68    10     8   ar
    69    20    21   ar
    70    14    13   ar
    71     7     6   ar
    72     8     6   ar
    73     8    11   ar
    74     6     5    1
    75    13    11   ar
    76    62    64    1
    77    81    83   ar
    78    85    86    1
    79    87    86    1
    80    87    88    2
    81    82    84   ar
    82    86    89    1
    83    25    26    1
    84    25    23   ar
    85    21    23   ar
    86    83    84   ar
    87    98    97    2
    88    89    90    1
    89    91    90   ar
    90    91    93   ar
    91   119   121   ar
    92   119   117   ar
    93   116   117    1
    94   116   113    1
    95    90    92   ar
    96   121   122   ar
    97    93    94   ar
    98   159   157    1
    99   117   118   ar
   100   163   162    2
   101   158   157    1
   102    92    94   ar
   103   157   154    1
   104   112   113    1
   105    95    96    1
   106   108   107    2
   107    97    96    1
   108   122   120   ar
   109   118   120   ar
   110   111   109    1
   111   109   106    1
   112   109   110    1
   113   113   114    1
   114   105   106    1
   115   164   165    1
   116   164   161    1
   117   165   166    1
   118   166   160    1
   119   162   161    1
   120   162   167   am
   121    96    99    1
   122   114   115    2
   123    99   100    1
   124   173   167    1
   125   173   172    1
   126   106   107    1
   127   160   161    1
   128   160   155   am
   129   154   155    1
   130   154   153    1
   131   167   168    1
   132   155   156    2
   133   101   100   ar
   134   101   103   ar
   135   100   102   ar
   136   172   171    1
   137   153   148   am
   138   171   168    1
   139   168   169    1
   140   103   104   ar
   141   102   104   ar
   142   151   150    1
   143   149   148    2
   144   148   147    1
   145   144   143    1
   146   145   143    1
   147   136   135    1
   148   129   128    1
   149   169   170    2
   150   130   128    1
   151   150   147    1
   152   150   152    1
   153   143   142    1
   154   142   139    1
   155   147   146    1
   156   146   140   am
   157   137   135    1
   158   128   127    1
   159   135   132    1
   160   139   140    1
   161   139   138    1
   162   140   141    2
   163   132   133    1
   164   132   131    1
   165   187   186   ar
   166   187   185   ar
   167   133   134    2
   168   127   124    1
   169   186   184   ar
   170   185   183   ar
   171   124   125    1
   172   124   123    1
   173   184   181   ar
   174   125   126    2
   175   183   181   ar
   176   183   182   ar
   177   181   179   ar
   178   182   180   ar
   179   179   180   ar
   180   179   178    1
   181   175   178    1
   182   175   176    1
   183   175   174    1
   184   176   177    2
