@<TRIPOS>MOLECULE
tmp/4zx1A00.pdb
 178 173 0 0 0
SMALL
GASTEIGER

@<TRIPOS>ATOM
      1  N         12.6290    0.0120   80.2280 N.3     2  TRP2       -0.1241
      2  CA        12.0120   -0.9590   81.1140 C.3     2  TRP2        0.1605
      3  C         10.9860   -1.8020   80.3720 C.2     2  TRP2        0.2264
      4  O         10.4210   -1.3860   79.3610 O.2     2  TRP2       -0.2867
      5  CB        11.3380   -0.2680   82.3000 C.3     2  TRP2        0.0550
      6  CG        10.1470    0.5610   81.9270 C.ar    2  TRP2        0.0003
      7  CD1       10.1400    1.8870   81.5750 C.ar    2  TRP2        0.0946
      8  CD2        8.7810    0.1280   81.8900 C.ar    2  TRP2        0.0152
      9  NE1        8.8510    2.3010   81.3230 N.ar    2  TRP2       -0.2442
     10  CE2        8.0000    1.2410   81.5050 C.ar    2  TRP2        0.0810
     11  CE3        8.1430   -1.0900   82.1470 C.ar    2  TRP2        0.0012
     12  CZ2        6.6190    1.1690   81.3650 C.ar    2  TRP2        0.0191
     13  CZ3        6.7630   -1.1590   82.0050 C.ar    2  TRP2        0.0001
     14  CH2        6.0190   -0.0310   81.6240 C.ar    2  TRP2        0.0015
     15  N          0.7250    0.5580   73.5150 N.3    59  ASN59      -0.1240
     16  CA         1.7610    1.4430   74.0400 C.3    59  ASN59       0.1653
     17  C          3.0670    0.7120   74.3420 C.2    59  ASN59       0.2266
     18  O          3.9640    1.2710   74.9790 O.2    59  ASN59      -0.2867
     19  CB         1.2510    2.1730   75.2920 C.3    59  ASN59       0.1155
     20  CG         0.7910    1.2190   76.3930 C.2    59  ASN59       0.2627
     21  OD1        1.3790    0.1510   76.5960 O.2    59  ASN59      -0.2716
     22  ND2       -0.2630    1.6050   77.1120 N.am   59  ASN59      -0.0877
     23  N          3.6260   -1.7870   76.3390 N.3    61  HIS61      -0.1241
     24  CA         3.5420   -2.5630   77.5890 C.3    61  HIS61       0.1621
     25  C          2.1340   -3.0690   77.8870 C.2    61  HIS61       0.2264
     26  O          1.9480   -3.9140   78.7610 O.2    61  HIS61      -0.2867
     27  CB         4.0790   -1.7640   78.7930 C.3    61  HIS61       0.0745
     28  CG         3.5280   -0.3780   78.9310 C.ar   61  HIS61       0.0817
     29  ND1        2.3730   -0.0990   79.6310 N.ar   61  HIS61      -0.2268
     30  CD2        4.0040    0.8170   78.5050 C.ar   61  HIS61       0.1154
     31  CE1        2.1480    1.2030   79.6080 C.ar   61  HIS61       0.1986
     32  NE2        3.1210    1.7810   78.9270 N.ar   61  HIS61      -0.2212
     33  N         -4.3460    0.3490   75.5740 N.3    64  GLN64      -0.1245
     34  CA        -5.2160    1.2110   76.3510 C.3    64  GLN64       0.1566
     35  C         -6.2830    1.8420   75.4760 C.2    64  GLN64       0.2260
     36  O         -6.0710    2.0690   74.2790 O.2    64  GLN64      -0.2867
     37  CB        -4.4180    2.3000   77.0600 C.3    64  GLN64       0.0367
     38  CG        -3.8280    3.3360   76.1210 C.3    64  GLN64       0.0905
     39  CD        -2.9770    4.3410   76.8610 C.2    64  GLN64       0.2608
     40  OE1       -1.8170    4.0770   77.1730 O.2    64  GLN64      -0.2717
     41  NE2       -3.5560    5.4940   77.1690 N.am   64  GLN64      -0.0878
     42  N         -9.5540    8.6430   82.5570 N.3    88  LEU88      -0.1231
     43  CA        -8.6070    8.9880   81.4970 C.3    88  LEU88       0.1693
     44  C         -8.4430    7.8340   80.5090 C.2    88  LEU88       0.2591
     45  O         -8.4540    8.0300   79.2940 O.2    88  LEU88      -0.2718
     46  CB        -7.2390    9.3570   82.0960 C.3    88  LEU88       0.0284
     47  CG        -6.0580    9.4430   81.1140 C.3    88  LEU88       0.0019
     48  CD1       -6.3510   10.4230   79.9790 C.3    88  LEU88       0.0001
     49  CD2       -4.7590    9.8210   81.8130 C.3    88  LEU88       0.0001
     50  N         -8.2740    6.6240   81.0390 N.am   89  GLN89      -0.1979
     51  CA        -8.0560    5.4740   80.1800 C.3    89  GLN89       0.1601
     52  C         -8.2730    4.1820   80.9380 C.2    89  GLN89       0.2287
     53  O         -8.2970    4.1810   82.1760 O.2    89  GLN89      -0.2864
     54  CB        -6.6350    5.5090   79.5930 C.3    89  GLN89       0.0394
     55  CG        -5.5120    5.4760   80.6530 C.3    89  GLN89       0.0908
     56  CD        -4.8180    4.1130   80.7150 C.2    89  GLN89       0.2608
     57  OE1       -5.4330    3.1170   81.0700 O.2    89  GLN89      -0.2717
     58  NE2       -3.5430    4.0700   80.3520 N.am   89  GLN89      -0.0878
     59  N         -6.8490   -0.0800   80.6690 N.3    91  HIS91      -0.1241
     60  CA        -5.9040   -1.0000   80.0600 C.3    91  HIS91       0.1621
     61  C         -5.9610   -2.2930   80.8500 C.2    91  HIS91       0.2264
     62  O         -6.6610   -2.3710   81.8780 O.2    91  HIS91      -0.2867
     63  CB        -4.4800   -0.4320   80.0780 C.3    91  HIS91       0.0745
     64  CG        -3.9630   -0.2110   81.4620 C.ar   91  HIS91       0.0817
     65  ND1       -4.1490    0.9730   82.1440 N.ar   91  HIS91      -0.2268
     66  CD2       -3.3310   -1.0470   82.3190 C.ar   91  HIS91       0.1154
     67  CE1       -3.6190    0.8670   83.3520 C.ar   91  HIS91       0.1986
     68  NE2       -3.1250   -0.3520   83.4860 N.ar   91  HIS91      -0.2212
     69  N         -3.6560   -6.0210   82.2380 N.3    93  HIS93      -0.1241
     70  CA        -2.4660   -6.8140   82.4600 C.3    93  HIS93       0.1621
     71  C         -2.9020   -8.2680   82.3440 C.2    93  HIS93       0.2264
     72  O         -3.9600   -8.6260   82.8540 O.2    93  HIS93      -0.2867
     73  CB        -1.8640   -6.5310   83.8360 C.3    93  HIS93       0.0745
     74  CG        -1.5740   -5.0820   84.0790 C.ar   93  HIS93       0.0817
     75  ND1       -0.3220   -4.5450   83.8880 N.ar   93  HIS93      -0.2268
     76  CD2       -2.3690   -4.0560   84.4660 C.ar   93  HIS93       0.1154
     77  CE1       -0.3470   -3.2560   84.1820 C.ar   93  HIS93       0.1986
     78  NE2       -1.5840   -2.9260   84.5110 N.ar   93  HIS93      -0.2212
     79  N         -7.6120   -2.2270   84.5990 N.3   116  HIS116     -0.1241
     80  CA        -7.4040   -1.0060   85.3580 C.3   116  HIS116      0.1621
     81  C         -8.0920    0.1630   84.6840 C.2   116  HIS116      0.2264
     82  O         -7.7440    0.5210   83.5510 O.2   116  HIS116     -0.2867
     83  CB        -5.9150   -0.7200   85.5060 C.3   116  HIS116      0.0745
     84  CG        -5.2170   -1.6900   86.4030 C.ar  116  HIS116      0.0817
     85  ND1       -3.8470   -1.8570   86.4070 N.ar  116  HIS116     -0.2268
     86  CD2       -5.7060   -2.5390   87.3400 C.ar  116  HIS116      0.1154
     87  CE1       -3.5250   -2.7700   87.3070 C.ar  116  HIS116      0.1986
     88  NE2       -4.6330   -3.1950   87.8910 N.ar  116  HIS116     -0.2212
     89  N         -8.3160    3.9660   84.9640 N.3   118  VAL118     -0.1245
     90  CA        -7.4660    4.9900   85.5610 C.3   118  VAL118      0.1561
     91  C         -8.1630    6.3420   85.6020 C.2   118  VAL118      0.2260
     92  O         -8.5870    6.8640   84.5620 O.2   118  VAL118     -0.2867
     93  CB        -6.1440    5.1270   84.7940 C.3   118  VAL118      0.0252
     94  CG1       -5.2200    6.1320   85.4780 C.3   118  VAL118      0.0019
     95  CG2       -5.4650    3.7750   84.6500 C.3   118  VAL118      0.0019
     96  N         -3.5630   15.3630   84.6370 N.3   127  VAL127     -0.1231
     97  CA        -3.0710   14.0980   85.1740 C.3   127  VAL127      0.1692
     98  C         -1.5830   14.1560   85.5370 C.2   127  VAL127      0.2592
     99  O         -1.1570   13.5200   86.4940 O.2   127  VAL127     -0.2718
    100  CB        -3.3420   12.9240   84.1880 C.3   127  VAL127      0.0266
    101  CG1       -2.5810   13.1050   82.8940 C.3   127  VAL127      0.0020
    102  CG2       -3.0110   11.5860   84.8400 C.3   127  VAL127      0.0020
    103  N         -0.7980   14.9380   84.7970 N.am  128  GLY128     -0.1957
    104  CA         0.6030   15.1260   85.1190 C.3   128  GLY128      0.1869
    105  C          0.8170   15.7160   86.5030 C.2   128  GLY128      0.2309
    106  O          1.7490   15.3500   87.2180 O.2   128  GLY128     -0.2863
    107  N         -0.3050   13.0290   89.2940 N.3   131  VAL131     -0.1245
    108  CA         0.6070   11.9240   89.6060 C.3   131  VAL131      0.1561
    109  C          1.6820   12.3460   90.6320 C.2   131  VAL131      0.2260
    110  O          2.3490   11.4950   91.2360 O.2   131  VAL131     -0.2867
    111  CB         1.2740   11.3300   88.3500 C.3   131  VAL131      0.0252
    112  CG1        0.2370   10.6000   87.4940 C.3   131  VAL131      0.0019
    113  CG2        1.9880   12.3760   87.5660 C.3   131  VAL131      0.0019
    114  N         -4.5480   10.0390   91.9280 N.3   137  LEU137     -0.1245
    115  CA        -5.2250    9.0680   91.0680 C.3   137  LEU137      0.1561
    116  C         -6.0960    8.0970   91.8560 C.2   137  LEU137      0.2260
    117  O         -5.8300    7.7920   93.0140 O.2   137  LEU137     -0.2867
    118  CB        -4.2210    8.2520   90.2410 C.3   137  LEU137      0.0270
    119  CG        -3.2560    8.8940   89.2360 C.3   137  LEU137      0.0019
    120  CD1       -2.7720    7.8820   88.1980 C.3   137  LEU137      0.0001
    121  CD2       -3.8150   10.1170   88.5780 C.3   137  LEU137      0.0001
    122  N         -7.4720    4.2570   90.8610 N.3   139  VAL139     -0.1245
    123  CA        -7.5610    3.2160   89.8480 C.3   139  VAL139      0.1561
    124  C         -8.5070    2.1340   90.3210 C.2   139  VAL139      0.2260
    125  O         -8.3470    1.5960   91.4320 O.2   139  VAL139     -0.2867
    126  CB        -6.1870    2.5940   89.5120 C.3   139  VAL139      0.0252
    127  CG1       -6.3430    1.5890   88.3700 C.3   139  VAL139      0.0019
    128  CG2       -5.1840    3.6860   89.1230 C.3   139  VAL139      0.0019
    129  N          1.3480    3.6480   91.1020 N.3   194  LEU194     -0.1231
    130  CA         1.3540    3.0890   89.7490 C.3   194  LEU194      0.1693
    131  C          2.0730    1.7400   89.7650 C.2   194  LEU194      0.2593
    132  O          3.0660    1.5600   90.4890 O.2   194  LEU194     -0.2718
    133  CB         2.0510    4.0320   88.7620 C.3   194  LEU194      0.0284
    134  CG         1.6130    5.5000   88.7700 C.3   194  LEU194      0.0019
    135  CD1        2.4340    6.2890   87.7540 C.3   194  LEU194      0.0001
    136  CD2        0.1450    5.6210   88.4800 C.3   194  LEU194      0.0001
    137  N          1.6220    0.7960   88.9440 N.am  195  THR195     -0.1939
    138  CA         2.3130   -0.4900   88.8830 C.3   195  THR195      0.2028
    139  C          3.2980   -0.5760   87.7190 C.2   195  THR195      0.2643
    140  O          3.9440   -1.6060   87.5300 O.2   195  THR195     -0.2714
    141  CB         1.3330   -1.6660   88.7600 C.3   195  THR195      0.1808
    142  OG1        0.6970   -1.6100   87.4780 O.3   195  THR195     -0.2208
    143  CG2        0.2950   -1.6370   89.8960 C.3   195  THR195      0.0379
    144  N          3.3890    0.4930   86.9320 N.am  196  THR196     -0.1937
    145  CA         4.4270    0.6220   85.9150 C.3   196  THR196      0.2013
    146  C          5.2760    1.8480   86.2430 C.2   196  THR196      0.2484
    147  O          4.8050    2.7680   86.9370 O.2   196  THR196     -0.2729
    148  CB         3.8480    0.7720   84.4870 C.3   196  THR196      0.1807
    149  OG1        2.9960    1.9210   84.4350 O.3   196  THR196     -0.2208
    150  CG2        3.0610   -0.4580   84.0650 C.3   196  THR196      0.0379
    151  N          6.5230    1.8790   85.7460 N.am  197  PRO197     -0.2715
    152  CA         7.2900    3.1220   85.8810 C.3   197  PRO197      0.1521
    153  C          6.4570    4.3230   85.4210 C.2   197  PRO197      0.2440
    154  O          5.7220    4.2120   84.4220 O.2   197  PRO197     -0.2731
    155  CB         8.5000    2.8800   84.9760 C.3   197  PRO197      0.0310
    156  CG         8.7310    1.3920   85.0900 C.3   197  PRO197      0.0237
    157  CD         7.3140    0.7980   85.1270 C.3   197  PRO197      0.0939
    158  N          6.5540    5.4560   86.1310 N.am  198  PRO198     -0.2727
    159  CA         7.4980    5.7970   87.2100 C.3   198  PRO198      0.1402
    160  C          7.1490    5.2860   88.6210 C.2   198  PRO198      0.2269
    161  O          7.8160    5.7050   89.5810 O.2   198  PRO198     -0.2865
    162  CB         7.4690    7.3230   87.2000 C.3   198  PRO198      0.0296
    163  CG         6.0610    7.6420   86.7920 C.3   198  PRO198      0.0237
    164  CD         5.6760    6.5920   85.7880 C.3   198  PRO198      0.0939
    165  N         -6.1090    2.8190   95.4660 N.3   205  TRP205     -0.1241
    166  CA        -6.5600    1.6210   94.7780 C.3   205  TRP205      0.1605
    167  C         -7.9360    1.2030   95.2570 C.2   205  TRP205      0.2264
    168  O         -8.2100    1.1800   96.4610 O.2   205  TRP205     -0.2867
    169  CB        -5.5400    0.4800   94.9710 C.3   205  TRP205      0.0550
    170  CG        -4.4420    0.5800   93.9580 C.ar  205  TRP205      0.0003
    171  CD1       -3.2100    1.1520   94.1340 C.ar  205  TRP205      0.0946
    172  CD2       -4.4980    0.1520   92.5930 C.ar  205  TRP205      0.0152
    173  NE1       -2.4950    1.0980   92.9600 N.ar  205  TRP205     -0.2442
    174  CE2       -3.2640    0.4900   92.0000 C.ar  205  TRP205      0.0810
    175  CE3       -5.4780   -0.4850   91.8120 C.ar  205  TRP205      0.0012
    176  CZ2       -2.9710    0.2060   90.6580 C.ar  205  TRP205      0.0191
    177  CZ3       -5.1890   -0.7730   90.4820 C.ar  205  TRP205      0.0001
    178  CH2       -3.9410   -0.4300   89.9220 C.ar  205  TRP205      0.0015
@<TRIPOS>BOND
     1    15    16    1
     2    16    17    1
     3    16    19    1
     4    36    35    2
     5    17    18    2
     6    19    20    1
     7    35    34    1
     8    33    34    1
     9    38    39    1
    10    38    37    1
    11    23    24    1
    12    34    37    1
    13    20    21    2
    14    20    22   am
    15    39    41   am
    16    39    40    2
    17    24    25    1
    18    24    27    1
    19    25    26    2
    20    30    32   ar
    21    30    28   ar
    22    27    28    1
    23    32    31   ar
    24    28    29   ar
    25    45    44    2
    26     4     3    2
    27    54    51    1
    28    54    55    1
    29    31    29   ar
    30    48    47    1
    31    60    63    1
    32    60    59    1
    33    60    61    1
    34    63    64    1
    35    51    52    1
    36    51    50    1
    37     1     2    1
    38    58    56   am
    39     3     2    1
    40    44    50   am
    41    44    43    1
    42    55    56    1
    43    56    57    2
    44    61    62    2
    45    52    53    2
    46    47    49    1
    47    47    46    1
    48     2     5    1
    49     9    10   ar
    50     9     7   ar
    51    12    10   ar
    52    12    14   ar
    53    64    65   ar
    54    64    66   ar
    55    43    46    1
    56    43    42    1
    57    10     8   ar
    58     7     6   ar
    59    14    13   ar
    60     8     6   ar
    61     8    11   ar
    62     6     5    1
    63    13    11   ar
    64    65    67   ar
    65    69    70    1
    66    66    68   ar
    67    71    70    1
    68    71    72    2
    69    70    73    1
    70   101   100    1
    71    67    68   ar
    72    82    81    2
    73    73    74    1
    74    75    74   ar
    75    75    77   ar
    76   150   148    1
    77    74    76   ar
    78    77    78   ar
    79   100   102    1
    80   100    97    1
    81   154   153    2
    82   149   148    1
    83    76    78   ar
    84   148   145    1
    85    92    91    2
    86    79    80    1
    87    96    97    1
    88    95    93    1
    89    81    80    1
    90    93    94    1
    91    93    90    1
    92   103   104    1
    93   103    98   am
    94    89    90    1
    95   155   156    1
    96   155   152    1
    97   156   157    1
    98   104   105    1
    99   157   151    1
   100    97    98    1
   101    80    83    1
   102   153   152    1
   103   153   158   am
   104    83    84    1
   105    98    99    2
   106    90    91    1
   107   151   152    1
   108   151   146   am
   109   164   158    1
   110   164   163    1
   111   145   146    1
   112   145   144    1
   113   158   159    1
   114   146   147    2
   115    84    85   ar
   116    84    86   ar
   117    85    87   ar
   118   105   106    2
   119   163   162    1
   120   144   139   am
   121   162   159    1
   122   159   160    1
   123    87    88   ar
   124    86    88   ar
   125   142   141    1
   126   112   111    1
   127   140   139    2
   128   113   111    1
   129   139   138    1
   130   135   134    1
   131   120   119    1
   132   111   108    1
   133   127   126    1
   134   136   134    1
   135   121   119    1
   136   160   161    2
   137   141   138    1
   138   141   143    1
   139   133   134    1
   140   133   130    1
   141   138   137    1
   142   137   131   am
   143   128   126    1
   144   119   118    1
   145   107   108    1
   146   126   123    1
   147   108   109    1
   148   130   131    1
   149   130   129    1
   150   131   132    2
   151   123   124    1
   152   123   122    1
   153   178   177   ar
   154   178   176   ar
   155   118   115    1
   156   124   125    2
   157   177   175   ar
   158   109   110    2
   159   176   174   ar
   160   115   116    1
   161   115   114    1
   162   175   172   ar
   163   116   117    2
   164   174   172   ar
   165   174   173   ar
   166   172   170   ar
   167   173   171   ar
   168   170   171   ar
   169   170   169    1
   170   166   169    1
   171   166   167    1
   172   166   165    1
   173   167   168    2
