@<TRIPOS>MOLECULE
tmp/4zx2A01.pdb
 80 77 0 0 0
SMALL
GASTEIGER

@<TRIPOS>ATOM
      1  N         -2.9750   -2.8210  -20.1850 N.3   140  THR140     -0.1218
      2  CA        -4.3560   -3.2740  -20.0480 C.3   140  THR140      0.1862
      3  C         -5.2750   -2.0750  -19.8650 C.2   140  THR140      0.2287
      4  O         -4.8470   -1.0120  -19.3930 O.2   140  THR140     -0.2866
      5  CB        -4.5570   -4.2180  -18.8390 C.3   140  THR140      0.1770
      6  OG1       -4.3220   -3.4870  -17.6380 O.3   140  THR140     -0.2211
      7  CG2       -3.6380   -5.4350  -18.9030 C.3   140  THR140      0.0375
      8  N         -7.9620   -1.4780  -17.8230 N.3   142  ASN142     -0.1225
      9  CA        -8.3010   -1.0150  -16.4850 C.3   142  ASN142      0.1785
     10  C         -7.1980   -0.1700  -15.8800 C.2   142  ASN142      0.2597
     11  O         -7.4540    0.8260  -15.2050 O.2   142  ASN142     -0.2718
     12  CB        -8.6270   -2.1830  -15.5570 C.3   142  ASN142      0.1169
     13  CG        -9.9560   -2.8390  -15.8710 C.2   142  ASN142      0.2627
     14  OD1      -10.7420   -2.3570  -16.6900 O.2   142  ASN142     -0.2716
     15  ND2      -10.2130   -3.9580  -15.1990 N.am  142  ASN142     -0.0877
     16  N         -5.9590   -0.5810  -16.1230 N.am  143  MET143     -0.1979
     17  CA        -4.8310    0.1580  -15.5930 C.3   143  MET143      0.1605
     18  C         -4.6410    1.4670  -16.3550 C.2   143  MET143      0.2287
     19  O         -4.4450    2.5090  -15.7410 O.2   143  MET143     -0.2864
     20  CB        -3.5690   -0.6970  -15.6100 C.3   143  MET143      0.0413
     21  CG        -3.7180   -1.9670  -14.7670 C.3   143  MET143      0.0598
     22  SD        -4.1040   -1.7040  -13.0250 S.3   143  MET143     -0.1393
     23  CE        -2.4870   -1.2600  -12.4370 C.3   143  MET143      0.0692
     24  N         -6.9250    4.4690  -15.3450 N.3   146  ILE146     -0.1245
     25  CA        -6.6770    5.1400  -14.0590 C.3   146  ILE146      0.1561
     26  C         -5.2970    5.7980  -13.9870 C.2   146  ILE146      0.2260
     27  O         -5.1290    6.8520  -13.3670 O.2   146  ILE146     -0.2867
     28  CB        -6.8080    4.1420  -12.8630 C.3   146  ILE146      0.0252
     29  CG1       -8.1830    3.4540  -12.8610 C.3   146  ILE146      0.0019
     30  CG2       -6.5360    4.8400  -11.5320 C.3   146  ILE146      0.0019
     31  CD1       -8.2800    2.2740  -11.9140 C.3   146  ILE146      0.0001
     32  N         -6.7700   -9.3800  -19.2240 N.3   209  PRO209     -0.2103
     33  CA        -6.5100  -10.5590  -18.3830 C.3   209  PRO209      0.1489
     34  C         -7.7150  -10.9460  -17.5290 C.2   209  PRO209      0.2418
     35  O         -8.4970  -10.0750  -17.1240 O.2   209  PRO209     -0.2734
     36  CB        -5.3420  -10.1220  -17.4870 C.3   209  PRO209      0.0282
     37  CG        -5.3500   -8.6320  -17.5450 C.3   209  PRO209      0.0208
     38  CD        -5.8780   -8.2540  -18.8960 C.3   209  PRO209      0.0893
     39  N         -7.8610  -12.2520  -17.2470 N.am  210  PRO210     -0.2718
     40  CA        -8.9090  -12.7030  -16.3450 C.3   210  PRO210      0.1535
     41  C         -8.5820  -12.2770  -14.9290 C.2   210  PRO210      0.2598
     42  O         -7.4360  -11.9180  -14.6290 O.2   210  PRO210     -0.2715
     43  CB        -8.8330  -14.2280  -16.4700 C.3   210  PRO210      0.0310
     44  CG        -7.3720  -14.4850  -16.7420 C.3   210  PRO210      0.0237
     45  CD        -6.9410  -13.3440  -17.6200 C.3   210  PRO210      0.0939
     46  N         -9.5690  -12.3490  -14.0410 N.am  211  ASP211     -0.1972
     47  CA        -9.3630  -11.9740  -12.6410 C.3   211  ASP211      0.1709
     48  C         -8.5010  -12.9600  -11.8680 C.2   211  ASP211      0.2293
     49  O         -7.9700  -12.6120  -10.8140 O.2   211  ASP211     -0.2864
     50  CB       -10.7050  -11.8170  -11.9310 C.3   211  ASP211      0.1436
     51  CG       -11.4950  -10.6260  -12.4290 C.2   211  ASP211      0.3671
     52  OD1      -10.9070   -9.7230  -13.0700 O.co2 211  ASP211     -0.2456
     53  OD2      -12.7140  -10.5900  -12.1550 O.co2 211  ASP211     -0.2456
     54  N         -3.4180  -14.0630  -15.6430 N.3   216  CYS216     -0.1235
     55  CA        -3.3820  -13.1220  -14.5400 C.3   216  CYS216      0.1677
     56  C         -2.0470  -13.2080  -13.7820 C.2   216  CYS216      0.2270
     57  O         -1.3800  -12.2000  -13.5560 O.2   216  CYS216     -0.2867
     58  CB        -4.5670  -13.3610  -13.6020 C.3   216  CYS216      0.0956
     59  SG        -4.5360  -12.3410  -12.1170 S.3   216  CYS216     -0.0801
     60  N          0.8470  -10.3980  -12.8890 N.3   220  TRP220     -0.1241
     61  CA         0.5420   -9.8210  -11.5760 C.3   220  TRP220      0.1605
     62  C          1.2420  -10.3750  -10.3600 C.2   220  TRP220      0.2264
     63  O          1.2820   -9.6830   -9.3450 O.2   220  TRP220     -0.2867
     64  CB        -0.9580   -9.8880  -11.3240 C.3   220  TRP220      0.0550
     65  CG        -1.7300   -8.7790  -11.9710 C.ar  220  TRP220      0.0003
     66  CD1       -2.4160   -8.8060  -13.1710 C.ar  220  TRP220      0.0946
     67  CD2       -1.9380   -7.4440  -11.4330 C.ar  220  TRP220      0.0152
     68  NE1       -3.0210   -7.5960  -13.4100 N.ar  220  TRP220     -0.2442
     69  CE2       -2.7710   -6.7400  -12.3980 C.ar  220  TRP220      0.0810
     70  CE3       -1.5310   -6.7890  -10.2790 C.ar  220  TRP220      0.0012
     71  CZ2       -3.1670   -5.4280  -12.1980 C.ar  220  TRP220      0.0191
     72  CZ3       -1.9360   -5.4740  -10.0820 C.ar  220  TRP220      0.0001
     73  CH2       -2.7310   -4.8120  -11.0230 C.ar  220  TRP220      0.0015
     74  N         -4.7620   -9.1150   -6.2040 N.3   236  VAL236     -0.1245
     75  CA        -4.8130   -9.7890   -7.5050 C.3   236  VAL236      0.1561
     76  C         -3.6890  -10.8260   -7.5110 C.2   236  VAL236      0.2260
     77  O         -2.5640  -10.4870   -7.1500 O.2   236  VAL236     -0.2867
     78  CB        -4.5610   -8.7890   -8.6750 C.3   236  VAL236      0.0252
     79  CG1       -4.6570   -9.4850  -10.0250 C.3   236  VAL236      0.0019
     80  CG2       -5.5200   -7.6040   -8.6210 C.3   236  VAL236      0.0019
@<TRIPOS>BOND
     1     1     2    1
     2     2     3    1
     3     2     5    1
     4     3     4    2
     5    32    38    1
     6    32    33    1
     7     7     5    1
     8    38    37    1
     9     5     6    1
    10    33    34    1
    11    33    36    1
    12     8     9    1
    13    45    39    1
    14    45    44    1
    15    37    36    1
    16    34    39   am
    17    34    35    2
    18    39    40    1
    19    44    43    1
    20    14    13    2
    21     9    10    1
    22     9    12    1
    23    43    40    1
    24    18    19    2
    25    18    17    1
    26    40    41    1
    27    16    10   am
    28    16    17    1
    29    10    11    2
    30    13    12    1
    31    13    15   am
    32    54    55    1
    33    20    17    1
    34    20    21    1
    35    24    25    1
    36    41    42    2
    37    41    46   am
    38    21    22    1
    39    55    56    1
    40    55    58    1
    41    25    26    1
    42    25    28    1
    43    46    47    1
    44    26    27    2
    45    56    57    2
    46    58    59    1
    47    68    66   ar
    48    68    69   ar
    49    66    65   ar
    50    52    51   ar
    51    22    23    1
    52    60    61    1
    53    28    29    1
    54    28    30    1
    55    29    31    1
    56    47    50    1
    57    47    48    1
    58    51    53   ar
    59    51    50    1
    60    69    71   ar
    61    69    67   ar
    62    71    73   ar
    63    65    67   ar
    64    65    64    1
    65    48    49    2
    66    61    64    1
    67    61    62    1
    68    67    70   ar
    69    73    72   ar
    70    62    63    2
    71    70    72   ar
    72    79    78    1
    73    78    80    1
    74    78    75    1
    75    76    75    1
    76    76    77    2
    77    75    74    1
