@<TRIPOS>MOLECULE
tmp/4zx2A00.pdb
 131 125 0 0 0
SMALL
GASTEIGER

@<TRIPOS>ATOM
      1  N         10.3880   -2.5420  -16.0700 N.3    76  ASP76      -0.1239
      2  CA         9.4020   -1.4830  -16.2500 C.3    76  ASP76       0.1674
      3  C         10.0810   -0.1880  -16.6680 C.2    76  ASP76       0.2266
      4  O         11.1460    0.1630  -16.1410 O.2    76  ASP76      -0.2867
      5  CB         8.6720   -1.1560  -14.9380 C.3    76  ASP76       0.1410
      6  CG         8.0510   -2.3610  -14.2310 C.2    76  ASP76       0.3668
      7  OD1        8.5430   -3.5010  -14.3500 O.co2  76  ASP76      -0.2456
      8  OD2        7.0740   -2.1260  -13.4830 O.co2  76  ASP76      -0.2456
      9  N          7.6080    2.6800  -17.6960 N.3    78  HIS78      -0.1241
     10  CA         6.5900    3.6240  -17.2140 C.3    78  HIS78       0.1621
     11  C          6.6500    5.0240  -17.7680 C.2    78  HIS78       0.2264
     12  O          6.6110    6.0020  -17.0290 O.2    78  HIS78      -0.2867
     13  CB         6.5500    3.6390  -15.6870 C.3    78  HIS78       0.0745
     14  CG         5.8470    2.4520  -15.1100 C.ar   78  HIS78       0.0817
     15  ND1        4.5580    2.1780  -15.3890 N.ar   78  HIS78      -0.2268
     16  CD2        6.2880    1.4490  -14.2470 C.ar   78  HIS78       0.1154
     17  CE1        4.1870    1.0550  -14.7360 C.ar   78  HIS78       0.1986
     18  NE2        5.2460    0.6040  -14.0450 N.ar   78  HIS78      -0.2212
     19  N          5.1180   -3.0330  -18.7370 N.3   105  ASP105     -0.1239
     20  CA         4.9340   -1.7630  -18.0260 C.3   105  ASP105      0.1674
     21  C          5.7230   -0.6300  -18.6800 C.2   105  ASP105      0.2266
     22  O          6.5550    0.0430  -18.0570 O.2   105  ASP105     -0.2867
     23  CB         5.2320   -1.8980  -16.5250 C.3   105  ASP105      0.1410
     24  CG         4.1000   -2.5850  -15.7580 C.2   105  ASP105      0.3668
     25  OD1        3.1800   -3.1330  -16.3870 O.co2 105  ASP105     -0.2456
     26  OD2        4.1520   -2.5880  -14.5090 O.co2 105  ASP105     -0.2456
     27  N          1.8580    5.9950  -15.2670 N.3   109  ARG109     -0.1245
     28  CA         2.6930    6.5760  -14.2080 C.3   109  ARG109      0.1563
     29  C          3.5150    7.7420  -14.7470 C.2   109  ARG109      0.2260
     30  O          3.2880    8.8880  -14.3300 O.2   109  ARG109     -0.2867
     31  CB         3.5690    5.5280  -13.4820 C.3   109  ARG109      0.0307
     32  CG         2.8200    4.2950  -12.9830 C.3   109  ARG109      0.0489
     33  CD         1.8570    4.6490  -11.8610 C.3   109  ARG109      0.2205
     34  NE         1.4580    3.4750  -11.0840 N.pl3 109  ARG109     -0.0865
     35  CZ         0.7400    3.5350   -9.9610 C.cat 109  ARG109      0.5346
     36  NH1        0.3320    4.7110   -9.4800 N.pl3 109  ARG109      0.1354
     37  NH2        0.4360    2.4120   -9.3120 N.pl3 109  ARG109      0.1354
     38  N          1.3020   -5.7580  -16.5320 N.3   137  ASN137     -0.1225
     39  CA        -0.0510   -5.5140  -16.0230 C.3   137  ASN137      0.1785
     40  C         -0.5940   -4.1450  -16.4250 C.2   137  ASN137      0.2597
     41  O         -1.8150   -3.9610  -16.4640 O.2   137  ASN137     -0.2718
     42  CB        -0.1900   -5.7680  -14.5100 C.3   137  ASN137      0.1169
     43  CG         0.6420   -4.8380  -13.6740 C.2   137  ASN137      0.2627
     44  OD1        1.8210   -4.6520  -13.9320 O.2   137  ASN137     -0.2716
     45  ND2        0.0250   -4.2430  -12.6480 N.am  137  ASN137     -0.0877
     46  N          0.2970   -3.2130  -16.7530 N.am  138  HIS138     -0.1975
     47  CA        -0.1400   -1.9040  -17.2280 C.3   138  HIS138      0.1656
     48  C         -0.5050   -1.8230  -18.6810 C.2   138  HIS138      0.2291
     49  O         -1.0590   -0.8090  -19.0980 O.2   138  HIS138     -0.2864
     50  CB         0.8640   -0.8250  -16.8520 C.3   138  HIS138      0.0771
     51  CG         0.6790   -0.3240  -15.4460 C.ar  138  HIS138      0.0820
     52  ND1       -0.1460    0.7040  -15.1550 N.ar  138  HIS138     -0.2267
     53  CD2        1.2050   -0.7650  -14.2350 C.ar  138  HIS138      0.1154
     54  CE1       -0.1220    0.9280  -13.8350 C.ar  138  HIS138      0.1986
     55  NE2        0.7060    0.0380  -13.2700 N.ar  138  HIS138     -0.2212
     56  N         -5.9590   -0.5810  -16.1230 N.3   143  MET143     -0.1245
     57  CA        -4.8310    0.1580  -15.5930 C.3   143  MET143      0.1570
     58  C         -4.6410    1.4670  -16.3550 C.2   143  MET143      0.2261
     59  O         -4.4450    2.5090  -15.7410 O.2   143  MET143     -0.2867
     60  CB        -3.5690   -0.6970  -15.6100 C.3   143  MET143      0.0387
     61  CG        -3.7180   -1.9670  -14.7670 C.3   143  MET143      0.0595
     62  SD        -4.1040   -1.7040  -13.0250 S.3   143  MET143     -0.1393
     63  CE        -2.4870   -1.2600  -12.4370 C.3   143  MET143      0.0692
     64  N         -1.6280   -7.0660   -3.3160 N.3   234  ARG234     -0.1245
     65  CA        -2.2830   -6.2420   -4.3330 C.3   234  ARG234      0.1563
     66  C         -3.7620   -6.5610   -4.5150 C.2   234  ARG234      0.2260
     67  O         -4.4800   -5.8050   -5.1680 O.2   234  ARG234     -0.2867
     68  CB        -1.5870   -6.4000   -5.6860 C.3   234  ARG234      0.0307
     69  CG        -0.0930   -6.1550   -5.6610 C.3   234  ARG234      0.0489
     70  CD         0.4570   -6.5370   -7.0170 C.3   234  ARG234      0.2205
     71  NE         1.9110   -6.5130   -7.1180 N.pl3 234  ARG234     -0.0865
     72  CZ         2.6190   -5.5570   -7.7150 C.cat 234  ARG234      0.5346
     73  NH1        2.0160   -4.4720   -8.2190 N.pl3 234  ARG234      0.1354
     74  NH2        3.9310   -5.6970   -7.8120 N.pl3 234  ARG234      0.1354
     75  N          8.1100   -5.6530  -12.3270 N.3   261  HIS261     -0.1226
     76  CA         6.8370   -5.4750  -11.5860 C.3   261  HIS261      0.1752
     77  C          6.9610   -4.9730  -10.1540 C.2   261  HIS261      0.2596
     78  O          5.9490   -4.6680   -9.5260 O.2   261  HIS261     -0.2718
     79  CB         6.0740   -6.8080  -11.7010 C.3   261  HIS261      0.0759
     80  CG         4.6360   -6.8340  -11.2050 C.ar  261  HIS261      0.0818
     81  ND1        3.6580   -5.9860  -11.6360 N.ar  261  HIS261     -0.2268
     82  CD2        4.0100   -7.7710  -10.3850 C.ar  261  HIS261      0.1154
     83  CE1        2.4880   -6.3490  -11.0570 C.ar  261  HIS261      0.1986
     84  NE2        2.7130   -7.4390  -10.2990 N.ar  261  HIS261     -0.2212
     85  N          8.1850   -4.8430   -9.6330 N.am  262  GLU262     -0.1965
     86  CA         8.4080   -4.2500   -8.3040 C.3   262  GLU262      0.1733
     87  C          9.6280   -3.3590   -8.3690 C.2   262  GLU262      0.2616
     88  O         10.6210   -3.6900   -9.0150 O.2   262  GLU262     -0.2715
     89  CB         8.6320   -5.3230   -7.2320 C.3   262  GLU262      0.0429
     90  CG         7.4070   -6.1610   -6.9450 C.3   262  GLU262      0.1163
     91  CD         7.6380   -7.1500   -5.8360 C.2   262  GLU262      0.3649
     92  OE1        8.3130   -8.1630   -6.0710 O.co2 262  GLU262     -0.2457
     93  OE2        7.1330   -6.9100   -4.7170 O.co2 262  GLU262     -0.2457
     94  N          9.5540   -2.2250   -7.6850 N.am  263  VAL263     -0.1977
     95  CA        10.6810   -1.3120   -7.6190 C.3   263  VAL263      0.1596
     96  C         11.6830   -1.8310   -6.5890 C.2   263  VAL263      0.2287
     97  O         11.3000   -2.3870   -5.5430 O.2   263  VAL263     -0.2864
     98  CB        10.2220    0.1450   -7.3490 C.3   263  VAL263      0.0276
     99  CG1        9.4430    0.2540   -6.0500 C.3   263  VAL263      0.0022
    100  CG2       11.3900    1.1230   -7.3840 C.3   263  VAL263      0.0022
    101  N         14.2300   -3.7670  -12.8030 N.3   280  PHE280     -0.1241
    102  CA        13.3320   -2.6170  -12.8510 C.3   280  PHE280      0.1605
    103  C         14.0790   -1.4720  -13.5230 C.2   280  PHE280      0.2264
    104  O         15.1710   -1.1110  -13.0770 O.2   280  PHE280     -0.2867
    105  CB        12.9250   -2.2300  -11.4290 C.3   280  PHE280      0.0534
    106  CG        11.8320   -1.2090  -11.3650 C.ar  280  PHE280     -0.0203
    107  CD1       10.5020   -1.5860  -11.5570 C.ar  280  PHE280     -0.0042
    108  CD2       12.1110    0.1380  -11.1180 C.ar  280  PHE280     -0.0042
    109  CE1        9.4820   -0.6570  -11.4810 C.ar  280  PHE280     -0.0003
    110  CE2       11.0890    1.0680  -11.0500 C.ar  280  PHE280     -0.0003
    111  CZ         9.7750    0.6740  -11.2330 C.ar  280  PHE280     -0.0000
    112  N         11.7150    6.5780   -9.8590 N.3   285  TYR285     -0.1241
    113  CA        10.3670    6.3240  -10.3260 C.3   285  TYR285      0.1605
    114  C          9.4030    7.4060   -9.8520 C.2   285  TYR285      0.2264
    115  O          9.3860    7.7830   -8.6680 O.2   285  TYR285     -0.2867
    116  CB         9.9480    4.9290   -9.8570 C.3   285  TYR285      0.0534
    117  CG         8.4810    4.6150   -9.9860 C.ar  285  TYR285     -0.0201
    118  CD1        7.9300    4.2060  -11.2020 C.ar  285  TYR285     -0.0009
    119  CD2        7.6460    4.7090   -8.8810 C.ar  285  TYR285     -0.0009
    120  CE1        6.5770    3.9130  -11.3010 C.ar  285  TYR285      0.0417
    121  CE2        6.3000    4.4250   -8.9670 C.ar  285  TYR285      0.0417
    122  CZ         5.7670    4.0240  -10.1750 C.ar  285  TYR285      0.1957
    123  OH         4.4290    3.7240  -10.2490 O.3   285  TYR285     -0.2866
    124  N         10.8730    8.3150   -5.9880 N.3   289  MET289     -0.1245
    125  CA        11.3270    7.0770   -5.3420 C.3   289  MET289      0.1570
    126  C         12.8230    7.0830   -5.0180 C.2   289  MET289      0.2261
    127  O         13.2700    6.4180   -4.0820 O.2   289  MET289     -0.2867
    128  CB        11.0050    5.8930   -6.2590 C.3   289  MET289      0.0387
    129  CG        10.8350    4.5380   -5.5900 C.3   289  MET289      0.0595
    130  SD         9.1130    4.0000   -5.5870 S.3   289  MET289     -0.1393
    131  CE         8.6010    4.5830   -3.9750 C.3   289  MET289      0.0692
@<TRIPOS>BOND
     1    49    48    2
     2    19    20    1
     3    48    47    1
     4    21    22    2
     5    21    20    1
     6    20    23    1
     7    11    10    1
     8    11    12    2
     9     9    10    1
    10    47    50    1
    11    47    46    1
    12    10    13    1
    13    50    51    1
    14    46    40   am
    15     3     2    1
    16     3     4    2
    17    38    39    1
    18    23    24    1
    19    41    40    2
    20    40    39    1
    21    25    24   ar
    22    58    59    2
    23    58    57    1
    24     2     1    1
    25     2     5    1
    26    56    57    1
    27    39    42    1
    28    24    26   ar
    29    13    14    1
    30    60    57    1
    31    60    61    1
    32    51    52   ar
    33    51    53   ar
    34    15    14   ar
    35    15    17   ar
    36    27    28    1
    37    52    54   ar
    38    14    16   ar
    39     5     6    1
    40    61    62    1
    41    29    30    2
    42    29    28    1
    43    17    18   ar
    44    42    43    1
    45     7     6   ar
    46    16    18   ar
    47    53    55   ar
    48     6     8   ar
    49    28    31    1
    50    44    43    2
    51    54    55   ar
    52    43    45   am
    53   103   104    2
    54   103   102    1
    55    31    32    1
    56    62    63    1
    57    32    33    1
    58   102   101    1
    59   102   105    1
    60    75    76    1
    61    33    34    1
    62    79    76    1
    63    79    80    1
    64    81    80   ar
    65    81    83   ar
    66    76    77    1
    67   107   109   ar
    68   107   106   ar
    69   109   111   ar
    70   105   106    1
    71   106   108   ar
    72   120   118   ar
    73   120   122   ar
    74   111   110   ar
    75    80    82   ar
    76   118   117   ar
    77   108   110   ar
    78    34    35    2
    79    83    84   ar
    80    82    84   ar
    81   113   112    1
    82   113   116    1
    83   113   114    1
    84   123   122    1
    85   122   121   ar
    86    77    85   am
    87    77    78    2
    88   117   116    1
    89   117   119   ar
    90    35    36    1
    91    35    37    1
    92   114   115    2
    93    85    86    1
    94    88    87    2
    95   121   119   ar
    96    87    86    1
    97    87    94   am
    98    86    89    1
    99    73    72    1
   100    74    72    1
   101    72    71    2
   102    94    95    1
   103    95    98    1
   104    95    96    1
   105   100    98    1
   106    98    99    1
   107    89    90    1
   108    71    70    1
   109    70    69    1
   110    90    91    1
   111    96    97    2
   112   128   129    1
   113   128   125    1
   114    92    91   ar
   115   124   125    1
   116    91    93   ar
   117    68    69    1
   118    68    65    1
   119   129   130    1
   120   130   131    1
   121   125   126    1
   122    67    66    2
   123   126   127    2
   124    66    65    1
   125    65    64    1
