@<TRIPOS>MOLECULE
tmp/4zx3A00.pdb
 155 146 0 0 0
SMALL
GASTEIGER

@<TRIPOS>ATOM
      1  N         88.9120  129.7740   19.5850 N.3   122  GLN122     -0.1245
      2  CA        88.4600  128.5120   19.0090 C.3   122  GLN122      0.1566
      3  C         87.0970  128.1880   19.6030 C.2   122  GLN122      0.2260
      4  O         86.9880  127.8940   20.7950 O.2   122  GLN122     -0.2867
      5  CB        89.4570  127.3830   19.2810 C.3   122  GLN122      0.0367
      6  CG        88.9290  125.9910   18.9470 C.3   122  GLN122      0.0905
      7  CD        88.5710  125.8340   17.4800 C.2   122  GLN122      0.2608
      8  OE1       89.2180  126.4090   16.6050 O.2   122  GLN122     -0.2717
      9  NE2       87.5300  125.0570   17.2060 N.am  122  GLN122     -0.0878
     10  N         84.3240  126.1820   17.9200 N.3   124  GLU124     -0.1245
     11  CA        83.7340  124.8680   17.6720 C.3   124  GLU124      0.1567
     12  C         84.3290  123.8630   18.6580 C.2   124  GLU124      0.2260
     13  O         85.5490  123.7970   18.8170 O.2   124  GLU124     -0.2867
     14  CB        83.9600  124.4060   16.2260 C.3   124  GLU124      0.0388
     15  CG        83.3470  123.0400   15.9340 C.3   124  GLU124      0.1160
     16  CD        83.3170  122.6760   14.4610 C.2   124  GLU124      0.3649
     17  OE1       84.1450  123.2010   13.6910 O.co2 124  GLU124     -0.2457
     18  OE2       82.4630  121.8500   14.0760 O.co2 124  GLU124     -0.2457
     19  N         93.7280  120.9160   17.1740 N.3   264  VAL264     -0.1231
     20  CA        93.5590  120.1040   15.9750 C.3   264  VAL264      0.1692
     21  C         94.3570  120.6790   14.8050 C.2   264  VAL264      0.2593
     22  O         95.3640  121.3510   15.0130 O.2   264  VAL264     -0.2718
     23  CB        92.0730  119.9850   15.5960 C.3   264  VAL264      0.0266
     24  CG1       91.3220  119.2290   16.6820 C.3   264  VAL264      0.0020
     25  CG2       91.4570  121.3680   15.3930 C.3   264  VAL264      0.0020
     26  N         93.9110  120.4060   13.5820 N.am  265  GLY265     -0.1942
     27  CA        94.5960  120.8800   12.3890 C.3   265  GLY265      0.2014
     28  C         94.2750  122.3210   12.0330 C.2   265  GLY265      0.2639
     29  O         95.1780  123.1470   11.9090 O.2   265  GLY265     -0.2714
     30  N         92.9910  122.6230   11.8570 N.am  266  ALA266     -0.1963
     31  CA        92.5510  123.9940   11.5960 C.3   266  ALA266      0.1728
     32  C         91.0540  124.1630   11.8170 C.2   266  ALA266      0.2616
     33  O         90.3360  123.1940   12.0550 O.2   266  ALA266     -0.2715
     34  CB        92.9120  124.4130   10.1850 C.3   266  ALA266      0.0334
     35  N         90.5920  125.4050   11.7160 N.am  267  MET267     -0.1963
     36  CA        89.1940  125.7310   11.9620 C.3   267  MET267      0.1736
     37  C         88.6730  126.6740   10.8810 C.2   267  MET267      0.2616
     38  O         89.3670  127.6070   10.4810 O.2   267  MET267     -0.2715
     39  CB        89.0330  126.3550   13.3480 C.3   267  MET267      0.0427
     40  CG        87.6130  126.7290   13.6850 C.3   267  MET267      0.0599
     41  SD        86.5140  125.3040   13.5950 S.3   267  MET267     -0.1393
     42  CE        84.9850  126.1310   13.1390 C.3   267  MET267      0.0692
     43  N         87.4500  126.4330   10.4170 N.am  268  GLU268     -0.1977
     44  CA        86.9350  127.1180    9.2340 C.3   268  GLU268      0.1602
     45  C         86.1430  128.4030    9.5120 C.2   268  GLU268      0.2287
     46  O         85.1990  128.7150    8.7820 O.2   268  GLU268     -0.2864
     47  CB        86.0600  126.1510    8.4230 C.3   268  GLU268      0.0415
     48  CG        84.6960  125.8140    9.0410 C.3   268  GLU268      0.1163
     49  CD        84.7120  124.5680    9.9010 C.2   268  GLU268      0.3649
     50  OE1       85.7990  124.1740   10.3730 O.co2 268  GLU268     -0.2457
     51  OE2       83.6270  123.9820   10.1040 O.co2 268  GLU268     -0.2457
     52  N        100.1150  117.7930    3.7720 N.3   294  ARG294     -0.1245
     53  CA        99.3270  118.1940    4.9320 C.3   294  ARG294      0.1563
     54  C         98.6960  119.5770    4.7490 C.2   294  ARG294      0.2260
     55  O         97.4900  119.7440    4.9270 O.2   294  ARG294     -0.2867
     56  CB       100.2020  118.1790    6.1880 C.3   294  ARG294      0.0307
     57  CG        99.5070  118.6640    7.4440 C.3   294  ARG294      0.0489
     58  CD        98.2930  117.8160    7.7710 C.3   294  ARG294      0.2205
     59  NE        97.7610  118.1370    9.0920 N.pl3 294  ARG294     -0.0865
     60  CZ        96.7240  117.5230    9.6510 C.cat 294  ARG294      0.5346
     61  NH1       96.0960  116.5500    9.0040 N.pl3 294  ARG294      0.1354
     62  NH2       96.3140  117.8870   10.8580 N.pl3 294  ARG294      0.1354
     63  N         94.6920  120.5120    4.4010 N.3   298  VAL298     -0.1245
     64  CA        94.0650  121.2730    5.4770 C.3   298  VAL298      0.1561
     65  C         93.5670  122.6370    4.9870 C.2   298  VAL298      0.2260
     66  O         92.4480  123.0390    5.3030 O.2   298  VAL298     -0.2867
     67  CB        95.0270  121.4600    6.6620 C.3   298  VAL298      0.0252
     68  CG1       94.4080  122.3660    7.7070 C.3   298  VAL298      0.0019
     69  CG2       95.3700  120.1050    7.2750 C.3   298  VAL298      0.0019
     70  N         90.6690  121.7240    2.9170 N.3   301  HIS301     -0.1226
     71  CA        89.5850  121.3480    3.8190 C.3   301  HIS301      0.1752
     72  C         88.8270  122.5560    4.3650 C.2   301  HIS301      0.2595
     73  O         87.6040  122.6180    4.2770 O.2   301  HIS301     -0.2718
     74  CB        90.1340  120.5180    4.9820 C.3   301  HIS301      0.0759
     75  CG        89.0850  120.0240    5.9250 C.ar  301  HIS301      0.0818
     76  ND1       88.5730  118.7430    5.8670 N.ar  301  HIS301     -0.2268
     77  CD2       88.4500  120.6320    6.9550 C.ar  301  HIS301      0.1154
     78  CE1       87.6720  118.5870    6.8170 C.ar  301  HIS301      0.1986
     79  NE2       87.5760  119.7200    7.4930 N.ar  301  HIS301     -0.2212
     80  N         89.5510  123.5180    4.9290 N.am  302  GLU302     -0.1979
     81  CA        88.8940  124.6690    5.5390 C.3   302  GLU302      0.1602
     82  C         88.1970  125.5360    4.4960 C.2   302  GLU302      0.2287
     83  O         87.1650  126.1400    4.7830 O.2   302  GLU302     -0.2864
     84  CB        89.8910  125.5140    6.3380 C.3   302  GLU302      0.0415
     85  CG        90.7160  124.7440    7.3660 C.3   302  GLU302      0.1163
     86  CD        89.8920  123.8300    8.2660 C.2   302  GLU302      0.3649
     87  OE1       88.7130  124.1350    8.5430 O.co2 302  GLU302     -0.2457
     88  OE2       90.4380  122.7970    8.7090 O.co2 302  GLU302     -0.2457
     89  N         84.8300  124.1210    3.3380 N.3   305  HIS305     -0.1241
     90  CA        83.8500  124.3100    4.4020 C.3   305  HIS305      0.1621
     91  C         82.9790  125.5440    4.1850 C.2   305  HIS305      0.2264
     92  O         81.8770  125.6310    4.7290 O.2   305  HIS305     -0.2867
     93  CB        84.5520  124.4280    5.7540 C.3   305  HIS305      0.0745
     94  CG        84.5150  123.1730    6.5740 C.ar  305  HIS305      0.0817
     95  ND1       83.3920  122.3900    6.6800 N.ar  305  HIS305     -0.2268
     96  CD2       85.4660  122.5840    7.3360 C.ar  305  HIS305      0.1154
     97  CE1       83.6520  121.3550    7.4700 C.ar  305  HIS305      0.1986
     98  NE2       84.9030  121.4550    7.8790 N.ar  305  HIS305     -0.2212
     99  N         81.4890  117.5900    7.9280 N.3   324  GLU324     -0.1245
    100  CA        82.8590  117.0950    8.0220 C.3   324  GLU324      0.1567
    101  C         83.1320  115.9610    7.0410 C.2   324  GLU324      0.2260
    102  O         84.1220  115.9960    6.3150 O.2   324  GLU324     -0.2867
    103  CB        83.1810  116.6510    9.4500 C.3   324  GLU324      0.0388
    104  CG        83.1480  117.7880   10.4680 C.3   324  GLU324      0.1160
    105  CD        84.1100  118.9260   10.1400 C.2   324  GLU324      0.3649
    106  OE1       85.0310  118.7310    9.3160 O.co2 324  GLU324     -0.2457
    107  OE2       83.9420  120.0240   10.7140 O.co2 324  GLU324     -0.2457
    108  N         85.6900  116.4410    3.9280 N.3   328  VAL328     -0.1245
    109  CA        86.8420  115.5630    3.7420 C.3   328  VAL328      0.1561
    110  C         86.7830  114.9480    2.3450 C.2   328  VAL328      0.2260
    111  O         87.8010  114.8610    1.6550 O.2   328  VAL328     -0.2867
    112  CB        86.9110  114.4470    4.8100 C.3   328  VAL328      0.0252
    113  CG1       88.0450  113.4730    4.4980 C.3   328  VAL328      0.0019
    114  CG2       87.1080  115.0460    6.1910 C.3   328  VAL328      0.0019
    115  N         87.8050  117.5170    0.0220 N.3   331  GLU331     -0.1245
    116  CA        89.2490  117.6460    0.1880 C.3   331  GLU331      0.1567
    117  C         90.0010  116.5160   -0.5150 C.2   331  GLU331      0.2260
    118  O         91.0440  116.7440   -1.1300 O.2   331  GLU331     -0.2867
    119  CB        89.6200  117.6730    1.6700 C.3   331  GLU331      0.0388
    120  CG        91.1140  117.7830    1.9170 C.3   331  GLU331      0.1160
    121  CD        91.7330  116.4710    2.3620 C.2   331  GLU331      0.3649
    122  OE1       91.6150  116.1320    3.5600 O.co2 331  GLU331     -0.2457
    123  OE2       92.3370  115.7800    1.5140 O.co2 331  GLU331     -0.2457
    124  N         84.4220  114.1350   17.3350 N.3   380  TYR380     -0.1241
    125  CA        85.1560  114.5580   16.1500 C.3   380  TYR380      0.1605
    126  C         86.1640  113.4640   15.8270 C.2   380  TYR380      0.2264
    127  O         87.3650  113.6040   16.0560 O.2   380  TYR380     -0.2867
    128  CB        85.8300  115.9130   16.3680 C.3   380  TYR380      0.0534
    129  CG        84.8380  117.0540   16.3300 C.ar  380  TYR380     -0.0201
    130  CD1       83.9370  117.2490   17.3700 C.ar  380  TYR380     -0.0009
    131  CD2       84.7810  117.9170   15.2440 C.ar  380  TYR380     -0.0009
    132  CE1       83.0190  118.2790   17.3360 C.ar  380  TYR380      0.0417
    133  CE2       83.8660  118.9530   15.2020 C.ar  380  TYR380      0.0417
    134  CZ        82.9870  119.1270   16.2510 C.ar  380  TYR380      0.1957
    135  OH        82.0710  120.1530   16.2190 O.3   380  TYR380     -0.2866
    136  N         84.5940  111.6190   10.4180 N.3   385  TYR385     -0.1241
    137  CA        85.3370  112.2880    9.3530 C.3   385  TYR385      0.1605
    138  C         85.6410  111.3930    8.1540 C.2   385  TYR385      0.2264
    139  O         85.2930  111.7250    7.0190 O.2   385  TYR385     -0.2867
    140  CB        86.6480  112.8520    9.9050 C.3   385  TYR385      0.0534
    141  CG        86.5040  114.2110   10.5510 C.ar  385  TYR385     -0.0201
    142  CD1       85.8160  114.3650   11.7470 C.ar  385  TYR385     -0.0009
    143  CD2       87.0570  115.3400    9.9610 C.ar  385  TYR385     -0.0009
    144  CE1       85.6850  115.6100   12.3400 C.ar  385  TYR385      0.0417
    145  CE2       86.9310  116.5860   10.5450 C.ar  385  TYR385      0.0417
    146  CZ        86.2450  116.7160   11.7330 C.ar  385  TYR385      0.1957
    147  OH        86.1180  117.9590   12.3130 O.3   385  TYR385     -0.2866
    148  N         90.8730  117.8790   25.8180 N.3   839  MET839     -0.1245
    149  CA        90.7950  117.3620   24.4530 C.3   839  MET839      0.1570
    150  C         92.0630  116.6100   24.0630 C.2   839  MET839      0.2261
    151  O         91.9980  115.4980   23.5390 O.2   839  MET839     -0.2867
    152  CB        90.5370  118.4880   23.4500 C.3   839  MET839      0.0387
    153  CG        90.2170  117.9710   22.0530 C.3   839  MET839      0.0595
    154  SD        89.8240  119.2650   20.8640 S.3   839  MET839     -0.1393
    155  CE        88.6310  120.2210   21.7950 C.3   839  MET839      0.0692
@<TRIPOS>BOND
     1   118   117    2
     2   117   116    1
     3   115   116    1
     4   116   119    1
     5   123   121   ar
     6   111   110    2
     7   119   120    1
     8   120   121    1
     9   110   109    1
    10   121   122   ar
    11    70    71    1
    12    89    90    1
    13   109   108    1
    14   109   112    1
    15    52    53    1
    16    71    72    1
    17    71    74    1
    18    91    90    1
    19    91    92    2
    20    73    72    2
    21    72    80   am
    22    63    64    1
    23    90    93    1
    24    82    83    2
    25    82    81    1
    26   113   112    1
    27    54    55    2
    28    54    53    1
    29   112   114    1
    30    80    81    1
    31    53    56    1
    32    74    75    1
    33    65    66    2
    34    65    64    1
    35    64    67    1
    36    81    84    1
    37    93    94    1
    38    76    75   ar
    39    76    78   ar
    40    75    77   ar
    41    56    57    1
    42   102   101    2
    43    84    85    1
    44    94    95   ar
    45    94    96   ar
    46    67    69    1
    47    67    68    1
    48    95    97   ar
    49    78    79   ar
    50    77    79   ar
    51   139   138    2
    52   101   100    1
    53    96    98   ar
    54    85    86    1
    55    57    58    1
    56    97    98   ar
    57    58    59    1
    58    99   100    1
    59   100   103    1
    60   138   137    1
    61    86    87   ar
    62    86    88   ar
    63    47    48    1
    64    47    44    1
    65    46    45    2
    66    61    60    1
    67    48    49    1
    68    59    60    2
    69    44    45    1
    70    44    43    1
    71   106   105   ar
    72   137   140    1
    73   137   136    1
    74   103   104    1
    75    60    62    1
    76    49    51   ar
    77    49    50   ar
    78   140   141    1
    79   143   145   ar
    80   143   141   ar
    81   105   104    1
    82   105   107   ar
    83    34    31    1
    84    43    37   am
    85    38    37    2
    86   145   146   ar
    87   141   142   ar
    88    37    36    1
    89    31    32    1
    90    31    30    1
    91    35    32   am
    92    35    36    1
    93   146   147    1
    94   146   144   ar
    95   142   144   ar
    96    32    33    2
    97    30    28   am
    98    29    28    2
    99    36    39    1
   100    28    27    1
   101    27    26    1
   102    42    41    1
   103    39    40    1
   104    26    21   am
   105    41    40    1
   106    17    16   ar
   107    18    16   ar
   108    16    15    1
   109    21    22    2
   110    21    20    1
   111   133   131   ar
   112   133   134   ar
   113   131   129   ar
   114    25    23    1
   115    23    20    1
   116    23    24    1
   117   126   127    2
   118   126   125    1
   119    15    14    1
   120    20    19    1
   121   125   128    1
   122   125   124    1
   123   135   134    1
   124    14    11    1
   125   134   132   ar
   126   129   128    1
   127   129   130   ar
   128     8     7    2
   129     9     7   am
   130   132   130   ar
   131     7     6    1
   132    11    10    1
   133    11    12    1
   134    12    13    2
   135     6     5    1
   136     2     5    1
   137     2     1    1
   138     2     3    1
   139     3     4    2
   140   154   155    1
   141   154   153    1
   142   153   152    1
   143   152   149    1
   144   151   150    2
   145   150   149    1
   146   149   148    1
