@<TRIPOS>MOLECULE
tmp/4zx4A00.pdb
 187 176 0 0 0
SMALL
GASTEIGER

@<TRIPOS>ATOM
      1  N         15.8130  126.4430  143.0230 N.3   110  THR110     -0.1218
      2  CA        14.4360  126.5260  142.5950 C.3   110  THR110      0.1862
      3  C         13.8970  127.8760  143.0930 C.2   110  THR110      0.2287
      4  O         14.2590  128.3190  144.1870 O.2   110  THR110     -0.2866
      5  CB        13.5950  125.3640  143.1630 C.3   110  THR110      0.1770
      6  OG1       13.7010  125.3580  144.5950 O.3   110  THR110     -0.2211
      7  CG2       14.0700  124.0050  142.6160 C.3   110  THR110      0.0375
      8  N         14.2510  129.7530  138.5010 N.3   122  GLN122     -0.1245
      9  CA        13.7980  128.5130  137.9040 C.3   122  GLN122      0.1566
     10  C         12.4080  128.2140  138.4560 C.2   122  GLN122      0.2260
     11  O         12.2710  127.9110  139.6330 O.2   122  GLN122     -0.2867
     12  CB        14.7820  127.3830  138.1820 C.3   122  GLN122      0.0367
     13  CG        14.2990  125.9560  137.7560 C.3   122  GLN122      0.0905
     14  CD        13.8610  125.8890  136.3090 C.2   122  GLN122      0.2608
     15  OE1       14.5130  126.4630  135.4220 O.2   122  GLN122     -0.2717
     16  NE2       12.7580  125.1580  136.0470 N.am  122  GLN122     -0.0878
     17  N          9.7130  126.2300  136.7500 N.3   124  GLU124     -0.1231
     18  CA         9.0910  124.9150  136.5240 C.3   124  GLU124      0.1699
     19  C          9.5590  123.9470  137.6330 C.2   124  GLU124      0.2592
     20  O         10.7430  123.9160  137.9600 O.2   124  GLU124     -0.2718
     21  CB         9.4350  124.3570  135.1230 C.3   124  GLU124      0.0402
     22  CG         8.5610  123.1460  134.7880 C.3   124  GLU124      0.1161
     23  CD         8.7390  122.6310  133.3430 C.2   124  GLU124      0.3649
     24  OE1        9.6250  123.1300  132.6100 O.co2 124  GLU124     -0.2457
     25  OE2        7.9790  121.7160  132.9550 O.co2 124  GLU124     -0.2457
     26  N          8.6550  123.1600  138.2310 N.am  125  ALA125     -0.1980
     27  CA         7.2150  123.1510  137.9170 C.3   125  ALA125      0.1597
     28  C          6.4460  124.1240  138.8140 C.2   125  ALA125      0.2287
     29  O          5.5880  124.8880  138.3550 O.2   125  ALA125     -0.2864
     30  CB         6.6590  121.7350  138.0800 C.3   125  ALA125      0.0319
     31  N          7.9520  126.3820  141.1750 N.3   127  GLY127     -0.1225
     32  CA         8.9030  127.2530  141.8410 C.3   127  GLY127      0.1811
     33  C          8.4550  128.7290  141.8930 C.2   127  GLY127      0.2280
     34  O          9.0260  129.5180  142.6370 O.2   127  GLY127     -0.2866
     35  N         19.9180  122.6860  138.0340 N.3   263  ASN263     -0.1225
     36  CA        19.5680  121.3220  138.4320 C.3   263  ASN263      0.1785
     37  C         19.5410  120.3660  137.2670 C.2   263  ASN263      0.2597
     38  O         19.7520  119.1540  137.4370 O.2   263  ASN263     -0.2718
     39  CB        18.2170  121.2910  139.1310 C.3   263  ASN263      0.1169
     40  CG        18.2960  121.8280  140.5300 C.2   263  ASN263      0.2627
     41  OD1       19.3820  121.8880  141.1250 O.2   263  ASN263     -0.2716
     42  ND2       17.1540  122.2430  141.0700 N.am  263  ASN263     -0.0877
     43  N         19.2390  120.8920  136.0810 N.am  264  VAL264     -0.1966
     44  CA        19.0460  120.0150  134.9300 C.3   264  VAL264      0.1727
     45  C         19.7960  120.5900  133.7440 C.2   264  VAL264      0.2617
     46  O         20.8560  121.1760  133.9170 O.2   264  VAL264     -0.2715
     47  CB        17.5570  119.8150  134.6290 C.3   264  VAL264      0.0290
     48  CG1       16.9180  119.0420  135.7850 C.3   264  VAL264      0.0023
     49  CG2       16.8120  121.1680  134.4070 C.3   264  VAL264      0.0023
     50  N         19.2780  120.4180  132.5390 N.am  265  GLY265     -0.1940
     51  CA        19.9900  120.8890  131.3710 C.3   265  GLY265      0.2014
     52  C         19.6600  122.3260  130.9660 C.2   265  GLY265      0.2639
     53  O         20.5710  123.1390  130.7750 O.2   265  GLY265     -0.2714
     54  N         18.3770  122.6300  130.8090 N.am  266  ALA266     -0.1963
     55  CA        17.9720  124.0050  130.4990 C.3   266  ALA266      0.1728
     56  C         16.4670  124.1460  130.6780 C.2   266  ALA266      0.2616
     57  O         15.7850  123.1570  130.8820 O.2   266  ALA266     -0.2715
     58  CB        18.3590  124.3870  129.0670 C.3   266  ALA266      0.0334
     59  N         15.9690  125.3760  130.5540 N.am  267  MET267     -0.1963
     60  CA        14.5720  125.6690  130.7930 C.3   267  MET267      0.1736
     61  C         14.0450  126.6210  129.7190 C.2   267  MET267      0.2616
     62  O         14.7250  127.6020  129.3840 O.2   267  MET267     -0.2715
     63  CB        14.4060  126.3210  132.1750 C.3   267  MET267      0.0427
     64  CG        12.9970  126.7250  132.4650 C.3   267  MET267      0.0599
     65  SD        11.8950  125.2900  132.4750 S.3   267  MET267     -0.1393
     66  CE        10.3370  126.0770  132.0340 C.3   267  MET267      0.0692
     67  N         12.8180  126.3890  129.2470 N.am  268  GLU268     -0.1977
     68  CA        12.2820  127.1030  128.0870 C.3   268  GLU268      0.1602
     69  C         11.5000  128.4060  128.4160 C.2   268  GLU268      0.2287
     70  O         10.5350  128.7320  127.7280 O.2   268  GLU268     -0.2864
     71  CB        11.3770  126.1460  127.2850 C.3   268  GLU268      0.0415
     72  CG         9.9980  125.8460  127.8920 C.3   268  GLU268      0.1163
     73  CD         9.9350  124.5740  128.7510 C.2   268  GLU268      0.3649
     74  OE1       10.9960  124.1540  129.2640 O.co2 268  GLU268     -0.2457
     75  OE2        8.8150  124.0000  128.8860 O.co2 268  GLU268     -0.2457
     76  N         25.5670  117.9150  122.6470 N.3   294  ARG294     -0.1245
     77  CA        24.7690  118.2790  123.8160 C.3   294  ARG294      0.1563
     78  C         24.1410  119.6810  123.6620 C.2   294  ARG294      0.2260
     79  O         22.9510  119.8950  123.9290 O.2   294  ARG294     -0.2867
     80  CB        25.6350  118.2510  125.0770 C.3   294  ARG294      0.0307
     81  CG        24.9020  118.7020  126.3550 C.3   294  ARG294      0.0489
     82  CD        23.7970  117.7470  126.7480 C.3   294  ARG294      0.2205
     83  NE        23.1860  118.1860  128.0030 N.pl3 294  ARG294     -0.0865
     84  CZ        22.1340  117.6130  128.5760 C.cat 294  ARG294      0.5346
     85  NH1       21.5630  116.5390  128.0050 N.pl3 294  ARG294      0.1354
     86  NH2       21.6610  118.1060  129.7220 N.pl3 294  ARG294      0.1354
     87  N         20.2060  120.6270  123.3190 N.3   298  VAL298     -0.1245
     88  CA        19.5280  121.3450  124.3940 C.3   298  VAL298      0.1561
     89  C         19.0210  122.7100  123.8930 C.2   298  VAL298      0.2260
     90  O         17.8720  123.0960  124.1730 O.2   298  VAL298     -0.2867
     91  CB        20.4320  121.4940  125.6170 C.3   298  VAL298      0.0252
     92  CG1       19.7270  122.3390  126.6570 C.3   298  VAL298      0.0019
     93  CG2       20.6830  120.0590  126.2140 C.3   298  VAL298      0.0019
     94  N         16.1030  121.7780  121.7850 N.3   301  HIS301     -0.1226
     95  CA        15.0020  121.3770  122.6540 C.3   301  HIS301      0.1752
     96  C         14.2550  122.6090  123.2100 C.2   301  HIS301      0.2595
     97  O         13.0230  122.6850  123.1220 O.2   301  HIS301     -0.2718
     98  CB        15.5380  120.4890  123.8000 C.3   301  HIS301      0.0759
     99  CG        14.4920  120.0060  124.7600 C.ar  301  HIS301      0.0818
    100  ND1       13.9840  118.7150  124.7280 N.ar  301  HIS301     -0.2268
    101  CD2       13.8610  120.6270  125.7880 C.ar  301  HIS301      0.1154
    102  CE1       13.0820  118.5780  125.6880 C.ar  301  HIS301      0.1986
    103  NE2       12.9940  119.7220  126.3450 N.ar  301  HIS301     -0.2212
    104  N         14.9800  123.5700  123.7890 N.am  302  GLU302     -0.1979
    105  CA        14.2770  124.7090  124.3940 C.3   302  GLU302      0.1602
    106  C         13.6280  125.5570  123.2850 C.2   302  GLU302      0.2287
    107  O         12.5530  126.1370  123.4870 O.2   302  GLU302     -0.2864
    108  CB        15.2060  125.5800  125.2500 C.3   302  GLU302      0.0415
    109  CG        16.0820  124.7970  126.2700 C.3   302  GLU302      0.1163
    110  CD        15.2720  123.8490  127.1390 C.2   302  GLU302      0.3649
    111  OE1       14.0460  124.0720  127.3520 O.co2 302  GLU302     -0.2457
    112  OE2       15.8730  122.8570  127.5960 O.co2 302  GLU302     -0.2457
    113  N         10.2780  124.0560  122.2140 N.3   305  HIS305     -0.1241
    114  CA         9.2330  124.3140  123.2160 C.3   305  HIS305      0.1621
    115  C          8.4150  125.5610  122.8810 C.2   305  HIS305      0.2264
    116  O          7.2870  125.7150  123.3670 O.2   305  HIS305     -0.2867
    117  CB         9.8440  124.5200  124.5900 C.3   305  HIS305      0.0745
    118  CG         9.9150  123.2820  125.4270 C.ar  305  HIS305      0.0817
    119  ND1        8.8440  122.4080  125.5650 N.ar  305  HIS305     -0.2268
    120  CD2       10.9180  122.7670  126.1790 C.ar  305  HIS305      0.1154
    121  CE1        9.1940  121.4140  126.3620 C.ar  305  HIS305      0.1986
    122  NE2       10.4450  121.6160  126.7660 N.ar  305  HIS305     -0.2212
    123  N          6.9370  117.4390  126.9210 N.3   324  GLU324     -0.1245
    124  CA         8.3170  116.9270  126.9560 C.3   324  GLU324      0.1567
    125  C          8.5700  115.8010  125.9380 C.2   324  GLU324      0.2260
    126  O          9.5580  115.8440  125.2170 O.2   324  GLU324     -0.2867
    127  CB         8.6750  116.4600  128.3650 C.3   324  GLU324      0.0388
    128  CG         8.6370  117.6600  129.3820 C.3   324  GLU324      0.1160
    129  CD         9.5430  118.8350  128.9530 C.2   324  GLU324      0.3649
    130  OE1       10.4790  118.6220  128.1330 O.co2 324  GLU324     -0.2457
    131  OE2        9.3640  119.9550  129.4710 O.co2 324  GLU324     -0.2457
    132  N         11.1460  116.4260  122.8680 N.3   328  VAL328     -0.1245
    133  CA        12.3020  115.5480  122.6610 C.3   328  VAL328      0.1561
    134  C         12.2320  114.9370  121.2480 C.2   328  VAL328      0.2260
    135  O         13.2200  114.8750  120.5490 O.2   328  VAL328     -0.2867
    136  CB        12.3660  114.4390  123.7320 C.3   328  VAL328      0.0252
    137  CG1       13.5160  113.3950  123.3870 C.3   328  VAL328      0.0019
    138  CG2       12.6120  115.0350  125.1090 C.3   328  VAL328      0.0019
    139  N          6.3890  116.9600  142.3630 N.3   376  MET376     -0.1230
    140  CA         6.5250  117.3070  140.9490 C.3   376  MET376      0.1702
    141  C          7.9790  117.2570  140.5010 C.2   376  MET376      0.2592
    142  O          8.2670  116.9920  139.3380 O.2   376  MET376     -0.2718
    143  CB         5.9520  118.7080  140.6580 C.3   376  MET376      0.0401
    144  CG         4.4960  118.7230  140.2040 C.3   376  MET376      0.0596
    145  SD         4.1560  117.4540  138.9710 S.3   376  MET376     -0.1393
    146  CE         5.2730  117.9050  137.6300 C.3   376  MET376      0.0692
    147  N          8.8920  117.5280  141.4240 N.am  377  GLU377     -0.1979
    148  CA        10.3080  117.5190  141.1090 C.3   377  GLU377      0.1602
    149  C         10.7770  116.0660  140.7880 C.2   377  GLU377      0.2287
    150  O         11.8630  115.8780  140.2200 O.2   377  GLU377     -0.2864
    151  CB        11.1160  118.1620  142.2660 C.3   377  GLU377      0.0415
    152  CG        10.7960  119.6790  142.5050 C.3   377  GLU377      0.1163
    153  CD        11.6160  120.3520  143.6270 C.2   377  GLU377      0.3649
    154  OE1       12.4150  119.6570  144.3210 O.co2 377  GLU377     -0.2457
    155  OE2       11.4440  121.5920  143.8320 O.co2 377  GLU377     -0.2457
    156  N          9.9620  114.3030  136.4130 N.3   380  TYR380     -0.1241
    157  CA        10.6870  114.6140  135.1890 C.3   380  TYR380      0.1605
    158  C         11.6240  113.4650  134.8630 C.2   380  TYR380      0.2264
    159  O         12.8300  113.5380  135.0850 O.2   380  TYR380     -0.2867
    160  CB        11.4190  115.9630  135.3470 C.3   380  TYR380      0.0534
    161  CG        10.3980  117.1060  135.3140 C.ar  380  TYR380     -0.0201
    162  CD1        9.5280  117.3350  136.3890 C.ar  380  TYR380     -0.0009
    163  CD2       10.2790  117.9050  134.1890 C.ar  380  TYR380     -0.0009
    164  CE1        8.5710  118.3680  136.3400 C.ar  380  TYR380      0.0417
    165  CE2        9.3470  118.9360  134.1250 C.ar  380  TYR380      0.0417
    166  CZ         8.4920  119.1610  135.1960 C.ar  380  TYR380      0.1957
    167  OH         7.5510  120.1530  135.0960 O.3   380  TYR380     -0.2866
    168  N         10.0080  111.5890  129.3900 N.3   385  TYR385     -0.1241
    169  CA        10.7620  112.2380  128.3270 C.3   385  TYR385      0.1605
    170  C         11.0690  111.3110  127.1270 C.2   385  TYR385      0.2264
    171  O         10.7650  111.6450  125.9810 O.2   385  TYR385     -0.2867
    172  CB        12.0880  112.7780  128.8800 C.3   385  TYR385      0.0534
    173  CG        11.9340  114.1440  129.4990 C.ar  385  TYR385     -0.0201
    174  CD1       11.2540  114.3060  130.6980 C.ar  385  TYR385     -0.0009
    175  CD2       12.4850  115.2740  128.8740 C.ar  385  TYR385     -0.0009
    176  CE1       11.1030  115.5860  131.2900 C.ar  385  TYR385      0.0417
    177  CE2       12.3350  116.5560  129.4390 C.ar  385  TYR385      0.0417
    178  CZ        11.6340  116.7050  130.6310 C.ar  385  TYR385      0.1957
    179  OH        11.4770  117.9760  131.1520 O.3   385  TYR385     -0.2866
    180  N         16.3590  117.9490  144.9610 N.3   839  MET839     -0.1245
    181  CA        16.2400  117.4580  143.6100 C.3   839  MET839      0.1570
    182  C         17.5210  116.7350  143.1520 C.2   839  MET839      0.2261
    183  O         17.4790  115.6300  142.5650 O.2   839  MET839     -0.2867
    184  CB        15.9070  118.6080  142.6580 C.3   839  MET839      0.0387
    185  CG        15.5290  118.1220  141.2870 C.3   839  MET839      0.0595
    186  SD        14.9530  119.4940  140.2700 S.3   839  MET839     -0.1393
    187  CE        14.6690  118.6570  138.7300 C.3   839  MET839      0.0692
@<TRIPOS>BOND
     1   135   134    2
     2   134   133    1
     3    94    95    1
     4   113   114    1
     5    76    77    1
     6    95    96    1
     7    95    98    1
     8   133   132    1
     9   133   136    1
    10   115   114    1
    11   115   116    2
    12    97    96    2
    13    96   104   am
    14   114   117    1
    15   106   107    2
    16   106   105    1
    17    87    88    1
    18   137   136    1
    19    78    77    1
    20    78    79    2
    21   136   138    1
    22   104   105    1
    23    98    99    1
    24    77    80    1
    25    89    90    2
    26    89    88    1
    27    88    91    1
    28   105   108    1
    29   117   118    1
    30   100    99   ar
    31   100   102   ar
    32    99   101   ar
    33    80    81    1
    34   126   125    2
    35   108   109    1
    36   118   119   ar
    37   118   120   ar
    38   119   121   ar
    39    91    93    1
    40    91    92    1
    41   102   103   ar
    42   101   103   ar
    43   125   124    1
    44   171   170    2
    45   120   122   ar
    46   109   110    1
    47    81    82    1
    48   121   122   ar
    49    82    83    1
    50   123   124    1
    51   124   127    1
    52   170   169    1
    53   110   111   ar
    54   110   112   ar
    55    71    72    1
    56    71    68    1
    57    70    69    2
    58    72    73    1
    59    83    84    2
    60    85    84    1
    61    68    69    1
    62    68    67    1
    63   130   129   ar
    64   169   172    1
    65   169   168    1
    66   127   128    1
    67    84    86    1
    68    73    75   ar
    69    73    74   ar
    70   175   177   ar
    71   175   173   ar
    72   172   173    1
    73   129   128    1
    74   129   131   ar
    75    58    55    1
    76    67    61   am
    77    62    61    2
    78   177   178   ar
    79   173   174   ar
    80    61    60    1
    81    55    56    1
    82    55    54    1
    83    59    56   am
    84    59    60    1
    85   178   179    1
    86   178   176   ar
    87    56    57    2
    88   174   176   ar
    89    53    52    2
    90    60    63    1
    91    54    52   am
    92    52    51    1
    93    51    50    1
    94    66    65    1
    95    63    64    1
    96    64    65    1
    97    50    45   am
    98    24    23   ar
    99    25    23   ar
   100    23    22    1
   101    45    46    2
   102    45    44    1
   103   165   163   ar
   104   165   166   ar
   105   163   161   ar
   106    49    47    1
   107    47    44    1
   108    47    48    1
   109    22    21    1
   110   158   159    2
   111   158   157    1
   112    44    43    1
   113   167   166    1
   114    21    18    1
   115   157   160    1
   116   157   156    1
   117   166   164   ar
   118   161   160    1
   119   161   162   ar
   120    15    14    2
   121    16    14   am
   122    43    37   am
   123    14    13    1
   124   164   162   ar
   125    18    17    1
   126    18    19    1
   127    37    38    2
   128    37    36    1
   129   146   145    1
   130    19    20    2
   131    19    26   am
   132    13    12    1
   133     9    12    1
   134     9    10    1
   135     9     8    1
   136    27    30    1
   137    27    26    1
   138    27    28    1
   139    35    36    1
   140    29    28    2
   141    36    39    1
   142    10    11    2
   143   187   186    1
   144   145   144    1
   145    39    40    1
   146   142   141    2
   147   144   143    1
   148   150   149    2
   149   186   185    1
   150   141   140    1
   151   141   147   am
   152    40    42   am
   153    40    41    2
   154   143   140    1
   155   149   148    1
   156   140   139    1
   157   148   147    1
   158   148   151    1
   159    31    32    1
   160   185   184    1
   161    32    33    1
   162    33    34    2
   163   151   152    1
   164   152   153    1
   165   183   182    2
   166     2     1    1
   167     2     3    1
   168     2     5    1
   169     7     5    1
   170   184   181    1
   171     3     4    2
   172   182   181    1
   173     5     6    1
   174   181   180    1
   175   153   155   ar
   176   153   154   ar
