@<TRIPOS>MOLECULE
tmp/4zx5A00.pdb
 176 165 0 0 0
SMALL
GASTEIGER

@<TRIPOS>ATOM
      1  N         90.6930  126.3790   24.1870 N.3   110  THR110     -0.1218
      2  CA        89.3320  126.5020   23.6970 C.3   110  THR110      0.1862
      3  C         88.7360  127.7860   24.2480 C.2   110  THR110      0.2287
      4  O         88.9900  128.1580   25.3930 O.2   110  THR110     -0.2866
      5  CB        88.4600  125.3150   24.1020 C.3   110  THR110      0.1770
      6  OG1       88.5450  125.1230   25.5200 O.3   110  THR110     -0.2211
      7  CG2       88.9140  124.0560   23.3820 C.3   110  THR110      0.0375
      8  N         89.1420  129.6740   19.5610 N.3   122  GLN122     -0.1245
      9  CA        88.6910  128.4130   18.9800 C.3   122  GLN122      0.1566
     10  C         87.3130  128.1180   19.5750 C.2   122  GLN122      0.2260
     11  O         87.1980  127.8420   20.7640 O.2   122  GLN122     -0.2867
     12  CB        89.6870  127.2750   19.2580 C.3   122  GLN122      0.0367
     13  CG        89.1790  125.8640   18.9260 C.3   122  GLN122      0.0905
     14  CD        88.7860  125.7280   17.4720 C.2   122  GLN122      0.2608
     15  OE1       89.4450  126.2850   16.5880 O.2   122  GLN122     -0.2717
     16  NE2       87.6960  125.0030   17.2100 N.am  122  GLN122     -0.0878
     17  N         84.5920  126.0980   17.8690 N.3   124  GLU124     -0.1231
     18  CA        83.9710  124.7880   17.6260 C.3   124  GLU124      0.1699
     19  C         84.5100  123.7790   18.6540 C.2   124  GLU124      0.2592
     20  O         85.7230  123.7020   18.8630 O.2   124  GLU124     -0.2718
     21  CB        84.2290  124.2890   16.1960 C.3   124  GLU124      0.0402
     22  CG        83.3860  123.0600   15.8640 C.3   124  GLU124      0.1161
     23  CD        83.4960  122.5840   14.4190 C.2   124  GLU124      0.3649
     24  OE1       84.3500  123.0880   13.6640 O.co2 124  GLU124     -0.2457
     25  OE2       82.7110  121.6930   14.0360 O.co2 124  GLU124     -0.2457
     26  N         83.6390  123.0090   19.3110 N.am  125  ALA125     -0.1980
     27  CA        82.1900  123.0500   19.1230 C.3   125  ALA125      0.1597
     28  C         81.5000  123.9560   20.1260 C.2   125  ALA125      0.2287
     29  O         80.5660  124.6880   19.7700 O.2   125  ALA125     -0.2864
     30  CB        81.6090  121.6330   19.2170 C.3   125  ALA125      0.0319
     31  N         93.9550  120.8480   17.1850 N.3   264  VAL264     -0.1231
     32  CA        93.7440  120.0450   16.0010 C.3   264  VAL264      0.1692
     33  C         94.5430  120.5970   14.8240 C.2   264  VAL264      0.2593
     34  O         95.5700  121.2330   15.0290 O.2   264  VAL264     -0.2718
     35  CB        92.2510  119.9610   15.6910 C.3   264  VAL264      0.0266
     36  CG1       91.5490  119.3150   16.8840 C.3   264  VAL264      0.0020
     37  CG2       91.6550  121.3530   15.4510 C.3   264  VAL264      0.0020
     38  N         94.0980  120.3250   13.6060 N.am  265  GLY265     -0.1942
     39  CA        94.7990  120.7820   12.4100 C.3   265  GLY265      0.2014
     40  C         94.4500  122.2090   12.0050 C.2   265  GLY265      0.2639
     41  O         95.3350  123.0310   11.7850 O.2   265  GLY265     -0.2714
     42  N         93.1580  122.5040   11.9010 N.am  266  ALA266     -0.1963
     43  CA        92.7090  123.8660   11.6260 C.3   266  ALA266      0.1728
     44  C         91.2080  123.9990   11.7770 C.2   266  ALA266      0.2616
     45  O         90.4860  123.0050   11.9660 O.2   266  ALA266     -0.2715
     46  CB        93.1200  124.3140   10.2110 C.3   266  ALA266      0.0334
     47  N         90.7490  125.2360   11.6450 N.am  267  MET267     -0.1963
     48  CA        89.3690  125.5920   11.9060 C.3   267  MET267      0.1736
     49  C         88.8750  126.5610   10.8450 C.2   267  MET267      0.2616
     50  O         89.5780  127.5230   10.5010 O.2   267  MET267     -0.2715
     51  CB        89.2510  126.2090   13.3000 C.3   267  MET267      0.0427
     52  CG        87.8510  126.5880   13.6650 C.3   267  MET267      0.0599
     53  SD        86.7870  125.1200   13.6170 S.3   267  MET267     -0.1393
     54  CE        85.2280  125.9370   13.2020 C.3   267  MET267      0.0692
     55  N         87.6610  126.3330   10.3510 N.am  268  GLU268     -0.1977
     56  CA        87.1310  127.0690    9.1950 C.3   268  GLU268      0.1602
     57  C         86.3350  128.3570    9.4780 C.2   268  GLU268      0.2287
     58  O         85.4150  128.6860    8.7200 O.2   268  GLU268     -0.2864
     59  CB        86.2420  126.1260    8.3680 C.3   268  GLU268      0.0415
     60  CG        84.8510  125.7840    8.9730 C.3   268  GLU268      0.1163
     61  CD        84.8560  124.5870    9.9200 C.2   268  GLU268      0.3649
     62  OE1       85.9390  124.2290   10.4480 O.co2 268  GLU268     -0.2457
     63  OE2       83.7640  124.0070   10.1440 O.co2 268  GLU268     -0.2457
     64  N        100.2980  117.6790    3.7940 N.3   294  ARG294     -0.1245
     65  CA        99.4980  118.0750    4.9560 C.3   294  ARG294      0.1563
     66  C         98.8910  119.4760    4.8010 C.2   294  ARG294      0.2260
     67  O         97.6980  119.6680    5.0070 O.2   294  ARG294     -0.2867
     68  CB       100.3590  118.0080    6.2180 C.3   294  ARG294      0.0307
     69  CG        99.6970  118.5440    7.4600 C.3   294  ARG294      0.0489
     70  CD        98.5030  117.6790    7.8550 C.3   294  ARG294      0.2205
     71  NE        97.9650  118.1010    9.1480 N.pl3 294  ARG294     -0.0865
     72  CZ        96.9500  117.5060    9.7670 C.cat 294  ARG294      0.5346
     73  NH1       96.3490  116.4560    9.2060 N.pl3 294  ARG294      0.1354
     74  NH2       96.5400  117.9650   10.9380 N.pl3 294  ARG294      0.1354
     75  N         94.9510  120.4310    4.4440 N.3   298  VAL298     -0.1245
     76  CA        94.2720  121.1820    5.4870 C.3   298  VAL298      0.1561
     77  C         93.7960  122.5580    4.9820 C.2   298  VAL298      0.2260
     78  O         92.6680  122.9750    5.2730 O.2   298  VAL298     -0.2867
     79  CB        95.1860  121.2950    6.7130 C.3   298  VAL298      0.0252
     80  CG1       94.5590  122.1840    7.7770 C.3   298  VAL298      0.0019
     81  CG2       95.4640  119.8650    7.2620 C.3   298  VAL298      0.0019
     82  N         90.9090  121.6350    2.9250 N.3   301  HIS301     -0.1226
     83  CA        89.7980  121.2670    3.7990 C.3   301  HIS301      0.1752
     84  C         89.0500  122.4930    4.3400 C.2   301  HIS301      0.2595
     85  O         87.8330  122.5950    4.1890 O.2   301  HIS301     -0.2718
     86  CB        90.3090  120.4260    4.9600 C.3   301  HIS301      0.0759
     87  CG        89.2380  119.9710    5.8900 C.ar  301  HIS301      0.0818
     88  ND1       88.7060  118.6990    5.8450 N.ar  301  HIS301     -0.2268
     89  CD2       88.5980  120.6120    6.8970 C.ar  301  HIS301      0.1154
     90  CE1       87.7830  118.5770    6.7850 C.ar  301  HIS301      0.1986
     91  NE2       87.6960  119.7240    7.4310 N.ar  301  HIS301     -0.2212
     92  N         89.7700  123.4340    4.9490 N.am  302  GLU302     -0.1979
     93  CA        89.0910  124.6050    5.5150 C.3   302  GLU302      0.1602
     94  C         88.4450  125.4590    4.4220 C.2   302  GLU302      0.2287
     95  O         87.3830  126.0590    4.6540 O.2   302  GLU302     -0.2864
     96  CB        90.0460  125.4660    6.3580 C.3   302  GLU302      0.0415
     97  CG        90.8510  124.7000    7.4100 C.3   302  GLU302      0.1163
     98  CD        90.0000  123.7670    8.2720 C.2   302  GLU302      0.3649
     99  OE1       88.7830  124.0100    8.4430 O.co2 302  GLU302     -0.2457
    100  OE2       90.5600  122.7720    8.7740 O.co2 302  GLU302     -0.2457
    101  N         85.0600  124.0090    3.3260 N.3   305  HIS305     -0.1241
    102  CA        84.0250  124.2690    4.3340 C.3   305  HIS305      0.1621
    103  C         83.1780  125.5020    4.0120 C.2   305  HIS305      0.2264
    104  O         82.0230  125.5930    4.4430 O.2   305  HIS305     -0.2867
    105  CB        84.6520  124.4570    5.7160 C.3   305  HIS305      0.0745
    106  CG        84.6800  123.2120    6.5490 C.ar  305  HIS305      0.0817
    107  ND1       83.6070  122.3510    6.6360 N.ar  305  HIS305     -0.2268
    108  CD2       85.6490  122.6870    7.3360 C.ar  305  HIS305      0.1154
    109  CE1       83.9130  121.3460    7.4360 C.ar  305  HIS305      0.1986
    110  NE2       85.1490  121.5200    7.8680 N.ar  305  HIS305     -0.2212
    111  N         81.5940  117.4520    7.9400 N.3   324  GLU324     -0.1245
    112  CA        82.9680  116.9590    8.0120 C.3   324  GLU324      0.1567
    113  C         83.2540  115.8300    7.0280 C.2   324  GLU324      0.2260
    114  O         84.2770  115.8540    6.3590 O.2   324  GLU324     -0.2867
    115  CB        83.3230  116.5050    9.4300 C.3   324  GLU324      0.0388
    116  CG        83.3240  117.6470   10.4510 C.3   324  GLU324      0.1160
    117  CD        84.2130  118.8150   10.0320 C.2   324  GLU324      0.3649
    118  OE1       85.1510  118.6000    9.2350 O.co2 324  GLU324     -0.2457
    119  OE2       83.9830  119.9410   10.5240 O.co2 324  GLU324     -0.2457
    120  N         85.8110  116.3170    4.0130 N.3   328  VAL328     -0.1245
    121  CA        86.9780  115.4250    3.8180 C.3   328  VAL328      0.1561
    122  C         86.9160  114.8290    2.4110 C.2   328  VAL328      0.2260
    123  O         87.9330  114.7490    1.7110 O.2   328  VAL328     -0.2867
    124  CB        87.0570  114.3050    4.8950 C.3   328  VAL328      0.0252
    125  CG1       88.2050  113.2930    4.5910 C.3   328  VAL328      0.0019
    126  CG2       87.2850  114.9260    6.2580 C.3   328  VAL328      0.0019
    127  N         88.0120  117.4540    0.0840 N.3   331  GLU331     -0.1245
    128  CA        89.4560  117.5640    0.2310 C.3   331  GLU331      0.1567
    129  C         90.1960  116.4110   -0.4620 C.2   331  GLU331      0.2260
    130  O         91.2290  116.6250   -1.0950 O.2   331  GLU331     -0.2867
    131  CB        89.8460  117.6240    1.7040 C.3   331  GLU331      0.0388
    132  CG        91.3420  117.7410    1.9120 C.3   331  GLU331      0.1160
    133  CD        92.0110  116.4000    2.1300 C.2   331  GLU331      0.3649
    134  OE1       91.7970  115.8070    3.2110 O.co2 331  GLU331     -0.2457
    135  OE2       92.7590  115.9440    1.2320 O.co2 331  GLU331     -0.2457
    136  N         83.0350  116.9280   22.1910 N.3   377  GLU377     -0.1245
    137  CA        84.4350  116.9050   21.8030 C.3   377  GLU377      0.1567
    138  C         84.8880  115.4750   21.4830 C.2   377  GLU377      0.2260
    139  O         85.8140  115.2690   20.6910 O.2   377  GLU377     -0.2867
    140  CB        85.2960  117.5300   22.9040 C.3   377  GLU377      0.0388
    141  CG        84.9580  119.0000   23.1600 C.3   377  GLU377      0.1160
    142  CD        85.8050  119.6360   24.2520 C.2   377  GLU377      0.3649
    143  OE1       86.2040  118.9260   25.1930 O.co2 377  GLU377     -0.2457
    144  OE2       86.0780  120.8530   24.1680 O.co2 377  GLU377     -0.2457
    145  N         84.3620  114.0750   17.4190 N.3   380  TYR380     -0.1241
    146  CA        85.1720  114.4290   16.2550 C.3   380  TYR380      0.1605
    147  C         86.1670  113.3070   15.9610 C.2   380  TYR380      0.2264
    148  O         87.3380  113.3780   16.3180 O.2   380  TYR380     -0.2867
    149  CB        85.8870  115.7600   16.4840 C.3   380  TYR380      0.0534
    150  CG        84.9380  116.9330   16.3730 C.ar  380  TYR380     -0.0201
    151  CD1       84.9410  117.7490   15.2550 C.ar  380  TYR380     -0.0009
    152  CD2       84.0090  117.1880   17.3730 C.ar  380  TYR380     -0.0009
    153  CE1       84.0640  118.8180   15.1510 C.ar  380  TYR380      0.0417
    154  CE2       83.1280  118.2440   17.2830 C.ar  380  TYR380      0.0417
    155  CZ        83.1540  119.0570   16.1760 C.ar  380  TYR380      0.1957
    156  OH        82.2660  120.1040   16.1060 O.3   380  TYR380     -0.2866
    157  N         84.6890  111.5680   10.4690 N.3   385  TYR385     -0.1241
    158  CA        85.4510  112.2060    9.3970 C.3   385  TYR385      0.1605
    159  C         85.7470  111.2850    8.2020 C.2   385  TYR385      0.2264
    160  O         85.3850  111.5920    7.0680 O.2   385  TYR385     -0.2867
    161  CB        86.7750  112.7420    9.9530 C.3   385  TYR385      0.0534
    162  CG        86.6240  114.1100   10.5650 C.ar  385  TYR385     -0.0201
    163  CD1       87.2320  115.2260    9.9840 C.ar  385  TYR385     -0.0009
    164  CD2       85.8450  114.2910   11.7010 C.ar  385  TYR385     -0.0009
    165  CE1       87.0660  116.5020   10.5400 C.ar  385  TYR385      0.0417
    166  CE2       85.6700  115.5570   12.2660 C.ar  385  TYR385      0.0417
    167  CZ        86.2910  116.6520   11.6790 C.ar  385  TYR385      0.1957
    168  OH        86.1170  117.9000   12.2300 O.3   385  TYR385     -0.2866
    169  N         91.1810  117.7810   25.9790 N.3   839  MET839     -0.1245
    170  CA        91.1360  117.3940   24.5730 C.3   839  MET839      0.1570
    171  C         92.3640  116.5880   24.1790 C.2   839  MET839      0.2261
    172  O         92.2540  115.4770   23.6520 O.2   839  MET839     -0.2867
    173  CB        91.0260  118.6300   23.6690 C.3   839  MET839      0.0387
    174  CG        89.7940  118.6160   22.7950 C.3   839  MET839      0.0595
    175  SD        89.8620  117.4330   21.4480 S.3   839  MET839     -0.1393
    176  CE        91.2930  118.0290   20.5720 C.3   839  MET839      0.0692
@<TRIPOS>BOND
     1   130   129    2
     2   129   128    1
     3   127   128    1
     4   128   131    1
     5   135   133   ar
     6   131   132    1
     7   123   122    2
     8   132   133    1
     9   133   134   ar
    10   122   121    1
    11    82    83    1
    12   101   102    1
    13    64    65    1
    14    83    84    1
    15    83    86    1
    16   121   120    1
    17   121   124    1
    18   103   102    1
    19   103   104    2
    20    85    84    2
    21   102   105    1
    22    84    92   am
    23    94    95    2
    24    94    93    1
    25    75    76    1
    26   125   124    1
    27    66    65    1
    28    66    67    2
    29   124   126    1
    30    92    93    1
    31    65    68    1
    32    86    87    1
    33    77    78    2
    34    77    76    1
    35    76    79    1
    36    93    96    1
    37   105   106    1
    38    88    87   ar
    39    88    90   ar
    40    87    89   ar
    41    68    69    1
    42    96    97    1
    43   114   113    2
    44   106   107   ar
    45   106   108   ar
    46   107   109   ar
    47    79    81    1
    48    79    80    1
    49    90    91   ar
    50    89    91   ar
    51   113   112    1
    52   160   159    2
    53   108   110   ar
    54    97    98    1
    55   109   110   ar
    56    69    70    1
    57    70    71    1
    58   111   112    1
    59   112   115    1
    60   159   158    1
    61    98    99   ar
    62    98   100   ar
    63    59    60    1
    64    59    56    1
    65    58    57    2
    66    60    61    1
    67    71    72    2
    68    56    57    1
    69    56    55    1
    70    73    72    1
    71   118   117   ar
    72   158   161    1
    73   158   157    1
    74   115   116    1
    75    72    74    1
    76    61    63   ar
    77    61    62   ar
    78   161   162    1
    79   163   165   ar
    80   163   162   ar
    81   117   116    1
    82   117   119   ar
    83    46    43    1
    84    55    49   am
    85    50    49    2
    86   165   167   ar
    87   162   164   ar
    88    49    48    1
    89    43    44    1
    90    43    42    1
    91    47    44   am
    92    47    48    1
    93   167   168    1
    94   167   166   ar
    95   164   166   ar
    96    44    45    2
    97    41    40    2
    98    42    40   am
    99    48    51    1
   100    40    39    1
   101    39    38    1
   102    54    53    1
   103    51    52    1
   104    38    33   am
   105    53    52    1
   106    24    23   ar
   107    25    23   ar
   108    23    22    1
   109    33    34    2
   110    33    32    1
   111   153   151   ar
   112   153   155   ar
   113   151   150   ar
   114    37    35    1
   115    35    32    1
   116    35    36    1
   117    22    21    1
   118   147   146    1
   119   147   148    2
   120    32    31    1
   121   156   155    1
   122   155   154   ar
   123    21    18    1
   124   146   149    1
   125   146   145    1
   126   150   149    1
   127   150   152   ar
   128    15    14    2
   129    16    14   am
   130   154   152   ar
   131    14    13    1
   132    18    17    1
   133    18    19    1
   134    19    20    2
   135    19    26   am
   136    13    12    1
   137     9    12    1
   138     9     8    1
   139     9    10    1
   140    27    30    1
   141    27    26    1
   142    27    28    1
   143    10    11    2
   144    29    28    2
   145   176   175    1
   146   139   138    2
   147   175   174    1
   148   138   137    1
   149   137   136    1
   150   137   140    1
   151   174   173    1
   152   140   141    1
   153   141   142    1
   154     7     5    1
   155   172   171    2
   156   173   170    1
   157     2     5    1
   158     2     1    1
   159     2     3    1
   160     5     6    1
   161   144   142   ar
   162   171   170    1
   163     3     4    2
   164   142   143   ar
   165   170   169    1
