@<TRIPOS>MOLECULE
tmp/4zx6A00.pdb
 201 189 0 0 0
SMALL
GASTEIGER

@<TRIPOS>ATOM
      1  N         89.2860  129.8030   19.5980 N.3   121  GLN121     -0.1245
      2  CA        88.8850  128.5230   19.0330 C.3   121  GLN121      0.1566
      3  C         87.5340  128.1440   19.6240 C.2   121  GLN121      0.2260
      4  O         87.4440  127.7800   20.7970 O.2   121  GLN121     -0.2867
      5  CB        89.9300  127.4460   19.3190 C.3   121  GLN121      0.0367
      6  CG        89.4780  126.0460   18.9640 C.3   121  GLN121      0.0905
      7  CD        89.1330  125.8930   17.4950 C.2   121  GLN121      0.2608
      8  OE1       89.7740  126.4860   16.6280 O.2   121  GLN121     -0.2717
      9  NE2       88.1090  125.0940   17.2090 N.am  121  GLN121     -0.0878
     10  N         84.7910  126.1390   17.9760 N.3   123  GLU123     -0.1231
     11  CA        84.2040  124.8230   17.7260 C.3   123  GLU123      0.1699
     12  C         84.7590  123.8350   18.7520 C.2   123  GLU123      0.2592
     13  O         85.9710  123.7690   18.9560 O.2   123  GLU123     -0.2718
     14  CB        84.4830  124.3280   16.3000 C.3   123  GLU123      0.0402
     15  CG        83.5420  123.1960   15.8750 C.3   123  GLU123      0.1161
     16  CD        83.7970  122.6700   14.4760 C.2   123  GLU123      0.3649
     17  OE1       84.8160  123.0440   13.8640 O.co2 123  GLU123     -0.2457
     18  OE2       82.9700  121.8710   13.9900 O.co2 123  GLU123     -0.2457
     19  N         83.8800  123.0760   19.4050 N.am  124  ALA124     -0.1980
     20  CA        82.4440  123.1290   19.1500 C.3   124  ALA124      0.1597
     21  C         81.7120  124.0100   20.1540 C.2   124  ALA124      0.2287
     22  O         80.7440  124.6850   19.8080 O.2   124  ALA124     -0.2864
     23  CB        81.8580  121.7240   19.1650 C.3   124  ALA124      0.0319
     24  N         94.1850  120.8470   17.2430 N.3   263  VAL263     -0.1231
     25  CA        94.0330  120.0540   16.0270 C.3   263  VAL263      0.1692
     26  C         94.8550  120.6070   14.8730 C.2   263  VAL263      0.2593
     27  O         95.8840  121.2430   15.0880 O.2   263  VAL263     -0.2718
     28  CB        92.5630  119.9730   15.5930 C.3   263  VAL263      0.0266
     29  CG1       91.7990  119.0910   16.5440 C.3   263  VAL263      0.0020
     30  CG2       91.9430  121.3660   15.5380 C.3   263  VAL263      0.0020
     31  N         94.3970  120.3510   13.6510 N.am  264  GLY264     -0.1942
     32  CA        95.0780  120.8210   12.4590 C.3   264  GLY264      0.2014
     33  C         94.7270  122.2540   12.1040 C.2   264  GLY264      0.2639
     34  O         95.6120  123.1020   12.0020 O.2   264  GLY264     -0.2714
     35  N         93.4380  122.5280   11.9120 N.am  265  ALA265     -0.1963
     36  CA        92.9890  123.8820   11.5880 C.3   265  ALA265      0.1728
     37  C         91.4860  124.0640   11.7680 C.2   265  ALA265      0.2616
     38  O         90.7470  123.0940   11.9440 O.2   265  ALA265     -0.2715
     39  CB        93.3810  124.2420   10.1700 C.3   265  ALA265      0.0334
     40  N         91.0450  125.3170   11.7000 N.am  266  MET266     -0.1963
     41  CA        89.6490  125.6700   11.9290 C.3   266  MET266      0.1736
     42  C         89.1180  126.5980   10.8330 C.2   266  MET266      0.2616
     43  O         89.7990  127.5370   10.4190 O.2   266  MET266     -0.2715
     44  CB        89.4940  126.3250   13.3010 C.3   266  MET266      0.0427
     45  CG        88.0720  126.6960   13.6490 C.3   266  MET266      0.0599
     46  SD        86.9740  125.2710   13.6340 S.3   266  MET266     -0.1393
     47  CE        85.4530  126.0650   13.1150 C.3   266  MET266      0.0692
     48  N         87.8930  126.3440   10.3830 N.am  267  GLU267     -0.1977
     49  CA        87.3550  127.0050    9.1950 C.3   267  GLU267      0.1602
     50  C         86.5590  128.2900    9.4630 C.2   267  GLU267      0.2287
     51  O         85.6310  128.6130    8.7170 O.2   267  GLU267     -0.2864
     52  CB        86.4780  126.0170    8.4140 C.3   267  GLU267      0.0415
     53  CG        85.1090  125.7180    9.0310 C.3   267  GLU267      0.1163
     54  CD        85.1090  124.4980    9.9230 C.2   267  GLU267      0.3649
     55  OE1       86.2000  124.0730   10.3590 O.co2 267  GLU267     -0.2457
     56  OE2       84.0110  123.9620   10.1840 O.co2 267  GLU267     -0.2457
     57  N        100.6220  117.6700    3.8970 N.3   293  ARG293     -0.1245
     58  CA        99.8270  118.0800    5.0500 C.3   293  ARG293      0.1563
     59  C         99.1940  119.4570    4.8530 C.2   293  ARG293      0.2260
     60  O         97.9940  119.6300    5.0590 O.2   293  ARG293     -0.2867
     61  CB       100.6970  118.0780    6.3100 C.3   293  ARG293      0.0307
     62  CG        99.9980  118.5690    7.5660 C.3   293  ARG293      0.0489
     63  CD        98.8110  117.6930    7.9340 C.3   293  ARG293      0.2205
     64  NE        98.2360  118.0780    9.2210 N.pl3 293  ARG293     -0.0865
     65  CZ        97.2040  117.4680    9.7950 C.cat 293  ARG293      0.5346
     66  NH1       96.6200  116.4380    9.1950 N.pl3 293  ARG293      0.1354
     67  NH2       96.7530  117.8880   10.9700 N.pl3 293  ARG293      0.1354
     68  N         95.2090  120.3290    4.4770 N.3   297  VAL297     -0.1245
     69  CA        94.5710  121.1000    5.5360 C.3   297  VAL297      0.1561
     70  C         94.0610  122.4510    5.0330 C.2   297  VAL297      0.2260
     71  O         92.9420  122.8520    5.3570 O.2   297  VAL297     -0.2867
     72  CB        95.5290  121.3040    6.7240 C.3   297  VAL297      0.0252
     73  CG1       94.9060  122.2130    7.7530 C.3   297  VAL297      0.0019
     74  CG2       95.8700  119.9600    7.3560 C.3   297  VAL297      0.0019
     75  N         91.1250  121.5670    2.9090 N.3   300  HIS300     -0.1226
     76  CA        90.0410  121.1970    3.8150 C.3   300  HIS300      0.1752
     77  C         89.2900  122.4110    4.3550 C.2   300  HIS300      0.2595
     78  O         88.0710  122.4990    4.2290 O.2   300  HIS300     -0.2718
     79  CB        90.5850  120.3650    4.9800 C.3   300  HIS300      0.0759
     80  CG        89.5290  119.8750    5.9210 C.ar  300  HIS300      0.0818
     81  ND1       89.0320  118.5910    5.8770 N.ar  300  HIS300     -0.2268
     82  CD2       88.8830  120.4940    6.9370 C.ar  300  HIS300      0.1154
     83  CE1       88.1210  118.4410    6.8220 C.ar  300  HIS300      0.1986
     84  NE2       88.0110  119.5820    7.4790 N.ar  300  HIS300     -0.2212
     85  N         90.0170  123.3510    4.9480 N.am  301  GLU301     -0.1979
     86  CA        89.3790  124.5200    5.5440 C.3   301  GLU301      0.1602
     87  C         88.6990  125.3950    4.4940 C.2   301  GLU301      0.2287
     88  O         87.6700  126.0100    4.7690 O.2   301  GLU301     -0.2864
     89  CB        90.3930  125.3490    6.3380 C.3   301  GLU301      0.0415
     90  CG        91.2020  124.5520    7.3540 C.3   301  GLU301      0.1163
     91  CD        90.3450  123.7290    8.3070 C.2   301  GLU301      0.3649
     92  OE1       89.1950  124.1260    8.5920 O.co2 301  GLU301     -0.2457
     93  OE2       90.8300  122.6780    8.7800 O.co2 301  GLU301     -0.2457
     94  N         85.3090  123.9600    3.3150 N.3   304  HIS304     -0.1241
     95  CA        84.3110  124.1910    4.3560 C.3   304  HIS304      0.1621
     96  C         83.4440  125.4210    4.0970 C.2   304  HIS304      0.2264
     97  O         82.3230  125.5090    4.6020 O.2   304  HIS304     -0.2867
     98  CB        84.9900  124.3450    5.7120 C.3   304  HIS304      0.0745
     99  CG        84.9510  123.1050    6.5530 C.ar  304  HIS304      0.0817
    100  ND1       83.8280  122.3280    6.6760 N.ar  304  HIS304     -0.2268
    101  CD2       85.9080  122.5260    7.3150 C.ar  304  HIS304      0.1154
    102  CE1       84.0900  121.3060    7.4820 C.ar  304  HIS304      0.1986
    103  NE2       85.3400  121.4060    7.8800 N.ar  304  HIS304     -0.2212
    104  N         81.8520  117.4470    7.9170 N.3   323  GLU323     -0.1245
    105  CA        83.2120  116.9330    8.0390 C.3   323  GLU323      0.1567
    106  C         83.5060  115.7900    7.0730 C.2   323  GLU323      0.2260
    107  O         84.5350  115.7980    6.4030 O.2   323  GLU323     -0.2867
    108  CB        83.4950  116.4910    9.4760 C.3   323  GLU323      0.0388
    109  CG        83.4920  117.6340   10.4780 C.3   323  GLU323      0.1160
    110  CD        84.4610  118.7530   10.1190 C.2   323  GLU323      0.3649
    111  OE1       85.4140  118.5140    9.3450 O.co2 323  GLU323     -0.2457
    112  OE2       84.2640  119.8820   10.6140 O.co2 323  GLU323     -0.2457
    113  N         86.1330  116.3500    3.9730 N.3   327  VAL327     -0.1245
    114  CA        87.2840  115.4670    3.8080 C.3   327  VAL327      0.1561
    115  C         87.2310  114.8270    2.4220 C.2   327  VAL327      0.2260
    116  O         88.2530  114.6920    1.7500 O.2   327  VAL327     -0.2867
    117  CB        87.3380  114.3730    4.8990 C.3   327  VAL327      0.0252
    118  CG1       88.4500  113.3710    4.6060 C.3   327  VAL327      0.0019
    119  CG2       87.5490  115.0000    6.2670 C.3   327  VAL327      0.0019
    120  N         88.2220  117.3600    0.1020 N.3   330  GLU330     -0.1245
    121  CA        89.6570  117.4900    0.3310 C.3   330  GLU330      0.1567
    122  C         90.4430  116.3750   -0.3660 C.2   330  GLU330      0.2260
    123  O         91.5070  116.6180   -0.9370 O.2   330  GLU330     -0.2867
    124  CB        89.9450  117.4940    1.8350 C.3   330  GLU330      0.0388
    125  CG        91.3650  117.1250    2.2190 C.3   330  GLU330      0.1160
    126  CD        91.4360  116.4490    3.5800 C.2   330  GLU330      0.3649
    127  OE1       90.6790  116.8460    4.4960 O.co2 330  GLU330     -0.2457
    128  OE2       92.2430  115.5070    3.7300 O.co2 330  GLU330     -0.2457
    129  N         83.0710  116.8870   22.4750 N.3   376  GLU376     -0.1231
    130  CA        84.5030  117.0090   22.2400 C.3   376  GLU376      0.1699
    131  C         85.1270  115.6400   21.9790 C.2   376  GLU376      0.2592
    132  O         86.2850  115.5430   21.5700 O.2   376  GLU376     -0.2718
    133  CB        85.1860  117.6840   23.4310 C.3   376  GLU376      0.0402
    134  CG        84.4920  119.0010   23.7570 C.3   376  GLU376      0.1161
    135  CD        84.8200  120.1350   22.8250 C.2   376  GLU376      0.3649
    136  OE1       85.6140  119.9120   21.9080 O.co2 376  GLU376     -0.2457
    137  OE2       84.2780  121.2680   23.0110 O.co2 376  GLU376     -0.2457
    138  N         84.3530  114.5850   22.2210 N.am  377  ASN377     -0.1974
    139  CA        84.7980  113.2220   21.9560 C.3   377  ASN377      0.1688
    140  C         84.1010  112.6300   20.7360 C.2   377  ASN377      0.2292
    141  O         84.0820  111.4140   20.5510 O.2   377  ASN377     -0.2864
    142  CB        84.5540  112.3260   23.1730 C.3   377  ASN377      0.1181
    143  CG        85.4420  112.6800   24.3500 C.2   377  ASN377      0.2629
    144  OD1       86.4510  113.3690   24.1970 O.2   377  ASN377     -0.2716
    145  ND2       85.0730  112.2030   25.5340 N.am  377  ASN377     -0.0877
    146  N         84.5380  114.1350   17.4490 N.3   379  TYR379     -0.1241
    147  CA        85.2810  114.4360   16.2380 C.3   379  TYR379      0.1605
    148  C         86.2720  113.3050   16.0230 C.2   379  TYR379      0.2264
    149  O         87.4290  113.3790   16.4380 O.2   379  TYR379     -0.2867
    150  CB        85.9800  115.7870   16.3490 C.3   379  TYR379      0.0534
    151  CG        85.0230  116.9550   16.2650 C.ar  379  TYR379     -0.0201
    152  CD1       85.0040  117.7840   15.1510 C.ar  379  TYR379     -0.0009
    153  CD2       84.1250  117.2170   17.2930 C.ar  379  TYR379     -0.0009
    154  CE1       84.1270  118.8530   15.0710 C.ar  379  TYR379      0.0417
    155  CE2       83.2420  118.2760   17.2200 C.ar  379  TYR379      0.0417
    156  CZ        83.2470  119.0910   16.1090 C.ar  379  TYR379      0.1957
    157  OH        82.3670  120.1480   16.0420 O.3   379  TYR379     -0.2866
    158  N         84.9140  111.5010   10.4500 N.3   384  TYR384     -0.1241
    159  CA        85.6860  112.1440    9.3940 C.3   384  TYR384      0.1605
    160  C         85.9910  111.2280    8.2140 C.2   384  TYR384      0.2264
    161  O         85.6520  111.5410    7.0740 O.2   384  TYR384     -0.2867
    162  CB        86.9990  112.6930    9.9610 C.3   384  TYR384      0.0534
    163  CG        86.8540  114.0580   10.5880 C.ar  384  TYR384     -0.0201
    164  CD1       87.4470  115.1750   10.0120 C.ar  384  TYR384     -0.0009
    165  CD2       86.1100  114.2340   11.7470 C.ar  384  TYR384     -0.0009
    166  CE1       87.3080  116.4310   10.5810 C.ar  384  TYR384      0.0417
    167  CE2       85.9660  115.4850   12.3220 C.ar  384  TYR384      0.0417
    168  CZ        86.5670  116.5790   11.7360 C.ar  384  TYR384      0.1957
    169  OH        86.4190  117.8250   12.3060 O.3   384  TYR384     -0.2866
    170  N         91.4460  117.6680   26.1830 N.3   838  MET838     -0.1245
    171  CA        91.3090  117.2250   24.8020 C.3   838  MET838      0.1570
    172  C         92.5350  116.4540   24.3190 C.2   838  MET838      0.2261
    173  O         92.4140  115.3630   23.7590 O.2   838  MET838     -0.2867
    174  CB        91.0560  118.4200   23.8900 C.3   838  MET838      0.0387
    175  CG        91.2760  118.1090   22.4330 C.3   838  MET838      0.0595
    176  SD        90.0760  118.9250   21.3800 S.3   838  MET838     -0.1393
    177  CE        90.7410  118.5010   19.7820 C.3   838  MET838      0.0692
    178  N         92.9240  113.0830   25.8710 N.3   841  THR841     -0.1203
    179  CA        92.1170  112.0500   25.2330 C.3   841  THR841      0.1994
    180  C         92.8060  111.5550   23.9620 C.2   841  THR841      0.2617
    181  O         92.7490  110.3680   23.6330 O.2   841  THR841     -0.2717
    182  CB        90.6990  112.5700   24.9070 C.3   841  THR841      0.1784
    183  OG1       89.9880  112.8080   26.1290 O.3   841  THR841     -0.2211
    184  CG2       89.9260  111.5550   24.0890 C.3   841  THR841      0.0376
    185  N         93.4700  112.4690   23.2590 N.am  842  GLN842     -0.1979
    186  CA        94.2680  112.1080   22.0910 C.3   842  GLN842      0.1601
    187  C         95.3640  111.1220   22.4800 C.2   842  GLN842      0.2287
    188  O         95.6590  110.1770   21.7450 O.2   842  GLN842     -0.2864
    189  CB        94.8880  113.3520   21.4500 C.3   842  GLN842      0.0394
    190  CG        93.8940  114.2780   20.7710 C.3   842  GLN842      0.0908
    191  CD        94.5480  115.5490   20.2610 C.2   842  GLN842      0.2608
    192  OE1       95.6940  115.8460   20.5960 O.2   842  GLN842     -0.2717
    193  NE2       93.8200  116.3080   19.4480 N.am  842  GLN842     -0.0878
    194  N         85.8310  115.0450   29.9800 N.3   877  ASN877     -0.1240
    195  CA        86.3130  114.5240   28.7080 C.3   877  ASN877      0.1653
    196  C         86.9890  113.1700   28.8570 C.2   877  ASN877      0.2266
    197  O         86.5730  112.1870   28.2460 O.2   877  ASN877     -0.2867
    198  CB        87.2910  115.5110   28.0680 C.3   877  ASN877      0.1155
    199  CG        86.6320  116.4020   27.0410 C.2   877  ASN877      0.2627
    200  OD1       85.7730  115.9590   26.2790 O.2   877  ASN877     -0.2716
    201  ND2       87.0330  117.6680   27.0110 N.am  877  ASN877     -0.0877
@<TRIPOS>BOND
     1   123   122    2
     2   122   121    1
     3   120   121    1
     4   121   124    1
     5   116   115    2
     6   124   125    1
     7   125   126    1
     8   115   114    1
     9    75    76    1
    10    94    95    1
    11   126   128   ar
    12   126   127   ar
    13   114   113    1
    14   114   117    1
    15    76    77    1
    16    76    79    1
    17    57    58    1
    18    96    95    1
    19    96    97    2
    20    78    77    2
    21    77    85   am
    22    95    98    1
    23    68    69    1
    24    87    88    2
    25    87    86    1
    26   118   117    1
    27    59    58    1
    28    59    60    2
    29   117   119    1
    30    85    86    1
    31    79    80    1
    32    70    71    2
    33    70    69    1
    34    58    61    1
    35    69    72    1
    36    86    89    1
    37    98    99    1
    38    81    80   ar
    39    81    83   ar
    40    80    82   ar
    41    61    62    1
    42    89    90    1
    43   107   106    2
    44    99   100   ar
    45    99   101   ar
    46   100   102   ar
    47    72    74    1
    48    72    73    1
    49    83    84   ar
    50    82    84   ar
    51   106   105    1
    52   161   160    2
    53   101   103   ar
    54    90    91    1
    55   102   103   ar
    56    62    63    1
    57   104   105    1
    58    63    64    1
    59   105   108    1
    60   160   159    1
    61    91    92   ar
    62    91    93   ar
    63    52    53    1
    64    52    49    1
    65    51    50    2
    66    53    54    1
    67    66    65    1
    68    49    50    1
    69    49    48    1
    70    64    65    2
    71   111   110   ar
    72   159   162    1
    73   159   158    1
    74   108   109    1
    75    65    67    1
    76    54    56   ar
    77    54    55   ar
    78   162   163    1
    79   164   166   ar
    80   164   163   ar
    81   110   109    1
    82   110   112   ar
    83    39    36    1
    84    48    42   am
    85    43    42    2
    86   166   168   ar
    87   163   165   ar
    88    42    41    1
    89    36    37    1
    90    36    35    1
    91    40    37   am
    92    40    41    1
    93   168   169    1
    94   168   167   ar
    95   165   167   ar
    96    37    38    2
    97    35    33   am
    98    41    44    1
    99    34    33    2
   100    33    32    1
   101    32    31    1
   102    47    46    1
   103    44    45    1
   104    46    45    1
   105    31    26   am
   106    17    16   ar
   107    18    16   ar
   108    16    15    1
   109    26    27    2
   110    26    25    1
   111   154   152   ar
   112   154   156   ar
   113   152   151   ar
   114    30    28    1
   115    28    25    1
   116    28    29    1
   117    15    14    1
   118   148   147    1
   119   148   149    2
   120    25    24    1
   121   157   156    1
   122   156   155   ar
   123   147   150    1
   124   147   146    1
   125   151   150    1
   126   151   153   ar
   127    14    11    1
   128     8     7    2
   129     9     7   am
   130   155   153   ar
   131     7     6    1
   132    11    10    1
   133    11    12    1
   134    12    13    2
   135    12    19   am
   136     6     5    1
   137     2     5    1
   138     2     1    1
   139     2     3    1
   140    20    23    1
   141    20    19    1
   142    20    21    1
   143   193   191   am
   144     3     4    2
   145   177   176    1
   146    22    21    2
   147   191   192    2
   148   191   190    1
   149   141   140    2
   150   140   139    1
   151   190   189    1
   152   176   175    1
   153   189   186    1
   154   132   131    2
   155   188   187    2
   156   136   135   ar
   157   139   138    1
   158   139   142    1
   159   131   138   am
   160   131   130    1
   161   186   187    1
   162   186   185    1
   163   130   129    1
   164   130   133    1
   165   175   174    1
   166   135   137   ar
   167   135   134    1
   168   142   143    1
   169   185   180   am
   170   133   134    1
   171   181   180    2
   172   173   172    2
   173   174   171    1
   174   180   179    1
   175   184   182    1
   176   144   143    2
   177   172   171    1
   178   143   145   am
   179   171   170    1
   180   182   179    1
   181   182   183    1
   182   179   178    1
   183   200   199    2
   184   201   199   am
   185   199   198    1
   186   198   195    1
   187   197   196    2
   188   195   196    1
   189   195   194    1
