@<TRIPOS>MOLECULE
tmp/4zx8K00.pdb
 170 158 0 0 0
SMALL
GASTEIGER

@<TRIPOS>ATOM
      1  N         66.3180   57.7250  -97.6330 N.3   281  LYS281     -0.1245
      2  CA        67.3380   57.3380  -96.6680 C.3   281  LYS281      0.1561
      3  C         68.5940   58.1610  -96.8940 C.2   281  LYS281      0.2260
      4  O         69.1380   58.1860  -97.9990 O.2   281  LYS281     -0.2867
      5  CB        67.6560   55.8510  -96.7770 C.3   281  LYS281      0.0271
      6  CG        68.6870   55.3570  -95.7790 C.3   281  LYS281      0.0035
      7  CD        69.2730   54.0270  -96.2280 C.3   281  LYS281      0.0206
      8  CE        70.3600   53.5490  -95.2840 C.3   281  LYS281      0.1093
      9  NZ        70.6510   52.1040  -95.4610 N.3   281  LYS281     -0.1314
     10  N         77.9770   54.7410  -94.1010 N.3   286  ASP286     -0.1239
     11  CA        77.6040   53.5840  -93.3070 C.3   286  ASP286      0.1674
     12  C         78.8020   52.6710  -93.0620 C.2   286  ASP286      0.2266
     13  O         79.1670   51.8640  -93.9180 O.2   286  ASP286     -0.2867
     14  CB        76.4790   52.8110  -93.9950 C.3   286  ASP286      0.1410
     15  CG        75.8740   51.7520  -93.1030 C.2   286  ASP286      0.3668
     16  OD1       76.1730   51.7540  -91.8890 O.co2 286  ASP286     -0.2456
     17  OD2       75.0960   50.9210  -93.6150 O.co2 286  ASP286     -0.2456
     18  N         81.3480   46.7340  -90.9320 N.3   293  LYS293     -0.1245
     19  CA        81.4080   46.0680  -92.2210 C.3   293  LYS293      0.1561
     20  C         82.8230   45.5530  -92.4430 C.2   293  LYS293      0.2260
     21  O         83.6200   46.1860  -93.1370 O.2   293  LYS293     -0.2867
     22  CB        81.0030   47.0200  -93.3490 C.3   293  LYS293      0.0271
     23  CG        79.5170   47.3320  -93.4090 C.3   293  LYS293      0.0035
     24  CD        79.2250   48.4440  -94.4050 C.3   293  LYS293      0.0206
     25  CE        77.7810   48.9110  -94.3030 C.3   293  LYS293      0.1093
     26  NZ        76.8150   47.8360  -94.6710 N.3   293  LYS293     -0.1314
     27  N         81.5020   43.0750  -98.0810 N.3   298  SER298     -0.1202
     28  CA        80.6780   44.0500  -97.3770 C.3   298  SER298      0.2020
     29  C         80.7370   45.4110  -98.0650 C.2   298  SER298      0.2618
     30  O         79.9060   46.2800  -97.8000 O.2   298  SER298     -0.2717
     31  CB        81.1160   44.1730  -95.9160 C.3   298  SER298      0.2103
     32  OG        82.4980   44.4740  -95.8200 O.3   298  SER298     -0.2182
     33  N         81.7230   45.5780  -98.9450 N.am  299  MET299     -0.1979
     34  CA        81.8310   46.7560  -99.8060 C.3   299  MET299      0.1605
     35  C         81.8180   48.0690  -99.0240 C.2   299  MET299      0.2287
     36  O         81.0950   49.0010  -99.3790 O.2   299  MET299     -0.2864
     37  CB        80.6890   46.7520 -100.8260 C.3   299  MET299      0.0413
     38  CG        80.7810   45.6290 -101.8500 C.3   299  MET299      0.0598
     39  SD        79.3510   45.5500 -102.9480 S.3   299  MET299     -0.1393
     40  CE        78.1290   44.8090 -101.8670 C.3   299  MET299      0.0692
     41  N         80.1990   52.8290  -99.3720 N.3   303  MET303     -0.1245
     42  CA        79.0600   53.1970  -98.5330 C.3   303  MET303      0.1570
     43  C         78.7600   54.6970  -98.4340 C.2   303  MET303      0.2261
     44  O         77.9720   55.1190  -97.5900 O.2   303  MET303     -0.2867
     45  CB        79.2570   52.6240  -97.1310 C.3   303  MET303      0.0387
     46  CG        79.0290   51.1200  -97.0730 C.3   303  MET303      0.0595
     47  SD        77.3720   50.7090  -97.6690 S.3   303  MET303     -0.1393
     48  CE        77.6060   49.0160  -98.2010 C.3   303  MET303      0.0692
     49  N         77.4560   55.9160 -101.0610 N.3   305  PHE305     -0.1227
     50  CA        76.2160   55.7310 -101.8190 C.3   305  PHE305      0.1736
     51  C         74.9690   55.5600 -100.9320 C.2   305  PHE305      0.2595
     52  O         73.8450   55.6010 -101.4300 O.2   305  PHE305     -0.2718
     53  CB        76.3750   54.5640 -102.8040 C.3   305  PHE305      0.0547
     54  CG        75.8900   53.2390 -102.2930 C.ar  305  PHE305     -0.0202
     55  CD1       74.7630   52.6480 -102.8380 C.ar  305  PHE305     -0.0042
     56  CD2       76.5860   52.5590 -101.3110 C.ar  305  PHE305     -0.0042
     57  CE1       74.3250   51.4180 -102.3910 C.ar  305  PHE305     -0.0003
     58  CE2       76.1510   51.3330 -100.8570 C.ar  305  PHE305     -0.0003
     59  CZ        75.0180   50.7620 -101.3980 C.ar  305  PHE305     -0.0000
     60  N         75.1630   55.3330  -99.6330 N.am  306  ASP306     -0.1974
     61  CA        74.0630   54.9810  -98.7310 C.3   306  ASP306      0.1709
     62  C         73.0970   56.1430  -98.4600 C.2   306  ASP306      0.2293
     63  O         72.1780   56.0190  -97.6460 O.2   306  ASP306     -0.2864
     64  CB        74.6120   54.4710  -97.3970 C.3   306  ASP306      0.1436
     65  CG        73.6880   53.4700  -96.7260 C.2   306  ASP306      0.3671
     66  OD1       72.9720   52.7380  -97.4430 O.co2 306  ASP306     -0.2456
     67  OD2       73.6720   53.4230  -95.4780 O.co2 306  ASP306     -0.2456
     68  N         71.4150   44.6720  -84.5960 N.3   364  ASN364     -0.1240
     69  CA        72.5170   44.9220  -85.5160 C.3   364  ASN364      0.1653
     70  C         72.6130   46.3970  -85.8870 C.2   364  ASN364      0.2266
     71  O         71.7080   46.9470  -86.5160 O.2   364  ASN364     -0.2867
     72  CB        72.3560   44.0740  -86.7760 C.3   364  ASN364      0.1155
     73  CG        73.6310   43.9870  -87.5860 C.2   364  ASN364      0.2627
     74  OD1       74.3020   44.9910  -87.8230 O.2   364  ASN364     -0.2716
     75  ND2       73.9720   42.7810  -88.0170 N.am  364  ASN364     -0.0877
     76  N         74.2710   47.7660  -88.0520 N.3   366  ASP366     -0.1225
     77  CA        74.4310   47.9830  -89.4830 C.3   366  ASP366      0.1805
     78  C         73.0640   48.0040  -90.1680 C.2   366  ASP366      0.2598
     79  O         72.9600   48.2330  -91.3710 O.2   366  ASP366     -0.2718
     80  CB        75.3480   46.9200  -90.0960 C.3   366  ASP366      0.1424
     81  CG        75.8410   47.3020  -91.4820 C.2   366  ASP366      0.3668
     82  OD1       75.7440   48.4970  -91.8360 O.co2 366  ASP366     -0.2456
     83  OD2       76.3490   46.4200  -92.2070 O.co2 366  ASP366     -0.2456
     84  N         72.0140   47.7710  -89.3900 N.am  367  ALA367     -0.1966
     85  CA        70.6520   47.8950  -89.8970 C.3   367  ALA367      0.1728
     86  C         70.0740   49.2280  -89.4380 C.2   367  ALA367      0.2616
     87  O         68.9700   49.2910  -88.8960 O.2   367  ALA367     -0.2715
     88  CB        69.7870   46.7390  -89.4240 C.3   367  ALA367      0.0334
     89  N         70.8470   50.2890  -89.6500 N.am  368  GLU368     -0.1963
     90  CA        70.5080   51.6130  -89.1470 C.3   368  GLU368      0.1733
     91  C         69.5080   52.3390  -90.0420 C.2   368  GLU368      0.2617
     92  O         68.8370   53.2670  -89.6010 O.2   368  GLU368     -0.2715
     93  CB        71.7750   52.4580  -88.9920 C.3   368  GLU368      0.0429
     94  CG        72.2300   53.1430  -90.2670 C.3   368  GLU368      0.1163
     95  CD        72.6340   52.1680  -91.3500 C.2   368  GLU368      0.3649
     96  OE1       73.0560   51.0450  -91.0110 O.co2 368  GLU368     -0.2457
     97  OE2       72.5260   52.5210  -92.5420 O.co2 368  GLU368     -0.2457
     98  N         69.4120   51.9080  -91.2960 N.am  369  GLY369     -0.1940
     99  CA        68.5340   52.5450  -92.2610 C.3   369  GLY369      0.2014
    100  C         67.0820   52.5380  -91.8290 C.2   369  GLY369      0.2638
    101  O         66.3910   53.5540  -91.9200 O.2   369  GLY369     -0.2714
    102  N         66.6180   51.3880  -91.3550 N.am  370  ARG370     -0.1977
    103  CA        65.2310   51.2470  -90.9360 C.3   370  ARG370      0.1597
    104  C         64.9250   52.0520  -89.6770 C.2   370  ARG370      0.2287
    105  O         63.7790   52.4370  -89.4520 O.2   370  ARG370     -0.2864
    106  CB        64.8950   49.7750  -90.7150 C.3   370  ARG370      0.0334
    107  CG        65.5690   49.1510  -89.5090 C.3   370  ARG370      0.0492
    108  CD        65.4450   47.6460  -89.5750 C.3   370  ARG370      0.2205
    109  NE        66.1860   47.1190  -90.7160 N.pl3 370  ARG370     -0.0865
    110  CZ        66.2400   45.8340  -91.0390 C.cat 370  ARG370      0.5346
    111  NH1       65.5840   44.9390  -90.3150 N.pl3 370  ARG370      0.1354
    112  NH2       66.9390   45.4460  -92.0940 N.pl3 370  ARG370      0.1354
    113  N         68.5250   52.5410  -99.8490 N.3   393  THR393     -0.1203
    114  CA        69.4670   51.4370 -100.0090 C.3   393  THR393      0.1994
    115  C         69.4580   50.6010  -98.7300 C.2   393  THR393      0.2618
    116  O         70.4140   50.6140  -97.9540 O.2   393  THR393     -0.2717
    117  CB        70.8980   51.9410 -100.3030 C.3   393  THR393      0.1784
    118  OG1       71.2810   52.9030  -99.3110 O.3   393  THR393     -0.2211
    119  CG2       70.9630   52.5970 -101.6730 C.3   393  THR393      0.0376
    120  N         68.3610   49.8820  -98.5170 N.am  394  LEU394     -0.1965
    121  CA        68.0860   49.2540  -97.2290 C.3   394  LEU394      0.1728
    122  C         68.7700   47.9030  -97.0030 C.2   394  LEU394      0.2617
    123  O         69.3900   47.6920  -95.9610 O.2   394  LEU394     -0.2715
    124  CB        66.5760   49.1010  -97.0410 C.3   394  LEU394      0.0311
    125  CG        66.1200   49.2390  -95.5880 C.3   394  LEU394      0.0022
    126  CD1       66.5530   50.5780  -95.0160 C.3   394  LEU394      0.0001
    127  CD2       64.6150   49.0630  -95.4690 C.3   394  LEU394      0.0001
    128  N         68.6380   46.9790  -97.9500 N.am  395  THR395     -0.1937
    129  CA        69.1440   45.6220  -97.7350 C.3   395  THR395      0.2028
    130  C         70.0190   45.1270  -98.8760 C.2   395  THR395      0.2643
    131  O         69.6940   45.3130 -100.0460 O.2   395  THR395     -0.2714
    132  CB        67.9940   44.6070  -97.5450 C.3   395  THR395      0.1808
    133  OG1       67.1770   44.5760  -98.7230 O.3   395  THR395     -0.2208
    134  CG2       67.1420   44.9740  -96.3330 C.3   395  THR395      0.0379
    135  N         71.1320   44.4930  -98.5250 N.am  396  GLY396     -0.1939
    136  CA        72.0240   43.9190  -99.5160 C.3   396  GLY396      0.2014
    137  C         71.4430   42.6720 -100.1570 C.2   396  GLY396      0.2638
    138  O         71.9160   42.2180 -101.1990 O.2   396  GLY396     -0.2714
    139  N         70.4030   42.1240  -99.5360 N.am  397  ALA397     -0.1977
    140  CA        69.7320   40.9350 -100.0500 C.3   397  ALA397      0.1597
    141  C         69.1220   41.1900 -101.4260 C.2   397  ALA397      0.2287
    142  O         68.8860   40.2540 -102.1910 O.2   397  ALA397     -0.2864
    143  CB        68.6580   40.4670  -99.0720 C.3   397  ALA397      0.0319
    144  N         70.5350   42.3240 -103.9120 N.3   399  LEU399     -0.1245
    145  CA        71.4890   41.8430 -104.9040 C.3   399  LEU399      0.1561
    146  C         71.2650   40.3680 -105.2160 C.2   399  LEU399      0.2260
    147  O         71.6150   39.8990 -106.2960 O.2   399  LEU399     -0.2867
    148  CB        72.9260   42.0610 -104.4250 C.3   399  LEU399      0.0270
    149  CG        73.4570   43.4940 -104.4440 C.3   399  LEU399      0.0019
    150  CD1       74.7680   43.5820 -103.6780 C.3   399  LEU399      0.0001
    151  CD2       73.6390   43.9770 -105.8750 C.3   399  LEU399      0.0001
    152  N         65.7830   43.6170  -86.1110 N.3   454  ILE454     -0.1245
    153  CA        66.0690   42.6040  -87.1140 C.3   454  ILE454      0.1561
    154  C         65.5860   41.2350  -86.6710 C.2   454  ILE454      0.2260
    155  O         65.2270   41.0360  -85.5110 O.2   454  ILE454     -0.2867
    156  CB        67.5750   42.4990  -87.4010 C.3   454  ILE454      0.0252
    157  CG1       68.3200   42.1290  -86.1180 C.3   454  ILE454      0.0019
    158  CG2       68.1000   43.7940  -87.9930 C.3   454  ILE454      0.0019
    159  CD1       69.6940   41.5680  -86.3500 C.3   454  ILE454      0.0001
    160  N         65.8760   39.3020  -95.7220 N.3   461  SER461     -0.1217
    161  CA        66.0790   40.6060  -95.0990 C.3   461  SER461      0.1889
    162  C         65.1800   41.7000  -95.6660 C.2   461  SER461      0.2288
    163  O         64.6520   42.5240  -94.9190 O.2   461  SER461     -0.2866
    164  CB        67.5420   41.0310  -95.2410 C.3   461  SER461      0.2089
    165  OG        68.4080   40.1210  -94.5880 O.3   461  SER461     -0.2183
    166  N         69.1010   49.3570 -103.0410 N.3   484  ALA484     -0.1245
    167  CA        70.4590   49.0010 -102.6440 C.3   484  ALA484      0.1562
    168  C         71.2220   48.3010 -103.7650 C.2   484  ALA484      0.2260
    169  O         72.4410   48.4400 -103.8740 O.2   484  ALA484     -0.2867
    170  CB        70.4310   48.1260 -101.4030 C.3   484  ALA484      0.0290
@<TRIPOS>BOND
     1   147   146    2
     2   151   149    1
     3   146   145    1
     4   145   148    1
     5   145   144    1
     6   149   148    1
     7   149   150    1
     8   169   168    2
     9   168   167    1
    10   166   167    1
    11    39    40    1
    12    39    38    1
    13    55    57   ar
    14    55    54   ar
    15    53    54    1
    16    53    50    1
    17   167   170    1
    18    57    59   ar
    19    54    56   ar
    20   142   141    2
    21    38    37    1
    22    50    49    1
    23    50    51    1
    24   119   117    1
    25    52    51    2
    26   141   140    1
    27    59    58   ar
    28    56    58   ar
    29   138   137    2
    30    51    60   am
    31    37    34    1
    32   117   114    1
    33   117   118    1
    34   137   139   am
    35   137   136    1
    36   140   139    1
    37   140   143    1
    38   131   130    2
    39   114   113    1
    40   114   115    1
    41    34    35    1
    42    34    33    1
    43    60    61    1
    44   136   135    1
    45    36    35    2
    46    41    42    1
    47    33    29   am
    48   130   135   am
    49   130   129    1
    50    61    62    1
    51    61    64    1
    52   115   120   am
    53   115   116    2
    54   133   132    1
    55    42    43    1
    56    42    45    1
    57   120   121    1
    58    62    63    2
    59    43    44    2
    60    48    47    1
    61    27    28    1
    62    29    30    2
    63    29    28    1
    64     4     3    2
    65   128   129    1
    66   128   122   am
    67   129   132    1
    68    47    46    1
    69     1     2    1
    70   132   134    1
    71    66    65   ar
    72    64    65    1
    73    28    31    1
    74   121   124    1
    75   121   122    1
    76    45    46    1
    77   124   125    1
    78   122   123    2
    79     3     2    1
    80     5     2    1
    81     5     6    1
    82    65    67   ar
    83     7     6    1
    84     7     8    1
    85    31    32    1
    86   160   161    1
    87   162   161    1
    88   162   163    2
    89   125   127    1
    90   125   126    1
    91     9     8    1
    92   164   161    1
    93   164   165    1
    94    26    25    1
    95    24    25    1
    96    24    23    1
    97    10    11    1
    98    14    11    1
    99    14    15    1
   100    13    12    2
   101    17    15   ar
   102    23    22    1
   103    22    19    1
   104    11    12    1
   105    21    20    2
   106    15    16   ar
   107    97    95   ar
   108    20    19    1
   109    99   100    1
   110    99    98    1
   111    19    18    1
   112    83    81   ar
   113   112   110    1
   114   101   100    2
   115    82    81   ar
   116   100   102   am
   117    81    80    1
   118    79    78    2
   119   102   103    1
   120    95    96   ar
   121    95    94    1
   122    98    91   am
   123   110   109    2
   124   110   111    1
   125   103   106    1
   126   103   104    1
   127   109   108    1
   128   106   107    1
   129    94    93    1
   130    78    77    1
   131    78    84   am
   132    80    77    1
   133    91    92    2
   134    91    90    1
   135    85    86    1
   136    85    88    1
   137    85    84    1
   138   104   105    2
   139    89    86   am
   140    89    90    1
   141   108   107    1
   142    77    76    1
   143    86    87    2
   144    90    93    1
   145    75    73   am
   146   158   156    1
   147    74    73    2
   148    73    72    1
   149   156   153    1
   150   156   157    1
   151   153   154    1
   152   153   152    1
   153    72    69    1
   154   154   155    2
   155    71    70    2
   156   159   157    1
   157    70    69    1
   158    69    68    1
