@<TRIPOS>MOLECULE
tmp/4zx9K00.pdb
 170 158 0 0 0
SMALL
GASTEIGER

@<TRIPOS>ATOM
      1  N        197.4740   57.7550  -18.2080 N.3   281  LYS281     -0.1245
      2  CA       196.4470   57.3230  -19.1460 C.3   281  LYS281      0.1561
      3  C        195.1820   58.1400  -18.9210 C.2   281  LYS281      0.2260
      4  O        194.6650   58.2030  -17.8060 O.2   281  LYS281     -0.2867
      5  CB       196.1630   55.8290  -18.9860 C.3   281  LYS281      0.0271
      6  CG       195.1300   55.2710  -19.9510 C.3   281  LYS281      0.0035
      7  CD       194.5910   53.9350  -19.4570 C.3   281  LYS281      0.0206
      8  CE       193.5870   53.3410  -20.4340 C.3   281  LYS281      0.1093
      9  NZ       192.9650   52.0900  -19.9120 N.3   281  LYS281     -0.1314
     10  N        185.7210   54.6330  -21.7050 N.3   286  ASP286     -0.1239
     11  CA       186.1080   53.5210  -22.5590 C.3   286  ASP286      0.1674
     12  C        184.9400   52.5750  -22.7980 C.2   286  ASP286      0.2266
     13  O        184.6520   51.7040  -21.9790 O.2   286  ASP286     -0.2867
     14  CB       187.2820   52.7570  -21.9490 C.3   286  ASP286      0.1410
     15  CG       187.8990   51.7700  -22.9180 C.2   286  ASP286      0.3668
     16  OD1      187.8630   52.0270  -24.1400 O.co2 286  ASP286     -0.2456
     17  OD2      188.4240   50.7370  -22.4570 O.co2 286  ASP286     -0.2456
     18  N        182.4590   46.6440  -24.7700 N.3   293  LYS293     -0.1245
     19  CA       182.3860   45.9880  -23.4730 C.3   293  LYS293      0.1561
     20  C        180.9690   45.4800  -23.2390 C.2   293  LYS293      0.2260
     21  O        180.1980   46.0660  -22.4770 O.2   293  LYS293     -0.2867
     22  CB       182.8130   46.9460  -22.3600 C.3   293  LYS293      0.0271
     23  CG       184.2610   47.3870  -22.4700 C.3   293  LYS293      0.0035
     24  CD       184.6490   48.3220  -21.3440 C.3   293  LYS293      0.0206
     25  CE       186.0960   48.7690  -21.4830 C.3   293  LYS293      0.1093
     26  NZ       187.0620   47.6470  -21.3070 N.3   293  LYS293     -0.1314
     27  N        182.1530   43.1560  -17.6460 N.3   298  SER298     -0.1202
     28  CA       183.0840   44.0550  -18.3190 C.3   298  SER298      0.2020
     29  C        183.1060   45.4270  -17.6470 C.2   298  SER298      0.2618
     30  O        183.9670   46.2570  -17.9460 O.2   298  SER298     -0.2717
     31  CB       182.7270   44.1940  -19.8010 C.3   298  SER298      0.2103
     32  OG       181.4160   44.7080  -19.9680 O.3   298  SER298     -0.2182
     33  N        182.1480   45.6540  -16.7490 N.am  299  MET299     -0.1979
     34  CA       182.1050   46.8560  -15.9150 C.3   299  MET299      0.1605
     35  C        182.1030   48.1490  -16.7290 C.2   299  MET299      0.2287
     36  O        182.9380   49.0260  -16.5110 O.2   299  MET299     -0.2864
     37  CB       183.2900   46.8640  -14.9440 C.3   299  MET299      0.0413
     38  CG       183.3240   45.6840  -13.9850 C.3   299  MET299      0.0598
     39  SD       184.8750   45.5730  -13.0710 S.3   299  MET299     -0.1393
     40  CE       185.9970   45.0570  -14.3690 C.3   299  MET299      0.0692
     41  N        183.5410   52.6550  -16.3510 N.3   303  MET303     -0.1245
     42  CA       184.6100   52.9830  -17.2940 C.3   303  MET303      0.1570
     43  C        184.9520   54.4680  -17.3830 C.2   303  MET303      0.2261
     44  O        185.7500   54.8760  -18.2270 O.2   303  MET303     -0.2867
     45  CB       184.2510   52.4580  -18.6840 C.3   303  MET303      0.0387
     46  CG       184.6530   51.0140  -18.8870 C.3   303  MET303      0.0595
     47  SD       186.4100   50.7790  -18.5540 S.3   303  MET303     -0.1393
     48  CE       186.4210   49.1020  -17.9180 C.3   303  MET303      0.0692
     49  N        186.4300   55.5630  -14.9840 N.3   305  PHE305     -0.1227
     50  CA       187.6380   55.4180  -14.1790 C.3   305  PHE305      0.1736
     51  C        188.8960   55.3600  -15.0360 C.2   305  PHE305      0.2595
     52  O        190.0090   55.4270  -14.5190 O.2   305  PHE305     -0.2718
     53  CB       187.5460   54.1510  -13.3210 C.3   305  PHE305      0.0547
     54  CG       188.1160   52.9230  -13.9860 C.ar  305  PHE305     -0.0202
     55  CD1      189.2230   52.2820  -13.4570 C.ar  305  PHE305     -0.0042
     56  CD2      187.5560   52.4230  -15.1510 C.ar  305  PHE305     -0.0042
     57  CE1      189.7480   51.1560  -14.0680 C.ar  305  PHE305     -0.0003
     58  CE2      188.0850   51.3050  -15.7650 C.ar  305  PHE305     -0.0003
     59  CZ       189.1800   50.6710  -15.2260 C.ar  305  PHE305     -0.0000
     60  N        188.7160   55.2370  -16.3470 N.am  306  ASP306     -0.1974
     61  CA       189.8260   54.9400  -17.2490 C.3   306  ASP306      0.1709
     62  C        190.7480   56.1380  -17.4850 C.2   306  ASP306      0.2293
     63  O        191.6140   56.1010  -18.3590 O.2   306  ASP306     -0.2864
     64  CB       189.2910   54.4230  -18.5870 C.3   306  ASP306      0.1436
     65  CG       190.0940   53.2480  -19.1230 C.2   306  ASP306      0.3671
     66  OD1      190.7060   52.5170  -18.3130 O.co2 306  ASP306     -0.2456
     67  OD2      190.1150   53.0530  -20.3560 O.co2 306  ASP306     -0.2456
     68  N        192.3990   44.5910  -31.2750 N.3   364  ASN364     -0.1240
     69  CA       191.3210   44.8070  -30.3180 C.3   364  ASN364      0.1653
     70  C        191.2290   46.2870  -29.9570 C.2   364  ASN364      0.2266
     71  O        192.1560   46.8440  -29.3700 O.2   364  ASN364     -0.2867
     72  CB       191.5460   43.9540  -29.0640 C.3   364  ASN364      0.1155
     73  CG       190.3390   43.9240  -28.1440 C.2   364  ASN364      0.2627
     74  OD1      189.5890   44.8930  -28.0470 O.2   364  ASN364     -0.2716
     75  ND2      190.1500   42.8040  -27.4560 N.am  364  ASN364     -0.0877
     76  N        189.5310   47.6520  -27.7750 N.3   366  ASP366     -0.1225
     77  CA       189.3660   47.8380  -26.3370 C.3   366  ASP366      0.1805
     78  C        190.7270   47.8740  -25.6410 C.2   366  ASP366      0.2598
     79  O        190.8200   48.1220  -24.4390 O.2   366  ASP366     -0.2718
     80  CB       188.4850   46.7300  -25.7530 C.3   366  ASP366      0.1424
     81  CG       187.9990   47.0450  -24.3510 C.2   366  ASP366      0.3668
     82  OD1      188.1230   48.2130  -23.9230 O.co2 366  ASP366     -0.2456
     83  OD2      187.4830   46.1250  -23.6810 O.co2 366  ASP366     -0.2456
     84  N        191.7820   47.6220  -26.4070 N.am  367  ALA367     -0.1966
     85  CA       193.1420   47.7620  -25.9010 C.3   367  ALA367      0.1728
     86  C        193.7120   49.1050  -26.3420 C.2   367  ALA367      0.2616
     87  O        194.8300   49.1820  -26.8540 O.2   367  ALA367     -0.2715
     88  CB       194.0160   46.6200  -26.3870 C.3   367  ALA367      0.0334
     89  N        192.9310   50.1610  -26.1360 N.am  368  GLU368     -0.1963
     90  CA       193.2650   51.4810  -26.6540 C.3   368  GLU368      0.1733
     91  C        194.2580   52.2190  -25.7630 C.2   368  GLU368      0.2617
     92  O        194.9290   53.1490  -26.2120 O.2   368  GLU368     -0.2715
     93  CB       191.9960   52.3210  -26.8200 C.3   368  GLU368      0.0429
     94  CG       191.5270   53.0190  -25.5500 C.3   368  GLU368      0.1163
     95  CD       191.0300   52.0520  -24.4950 C.2   368  GLU368      0.3649
     96  OE1      190.5400   50.9650  -24.8650 O.co2 368  GLU368     -0.2457
     97  OE2      191.1350   52.3750  -23.2930 O.co2 368  GLU368     -0.2457
     98  N        194.3480   51.8020  -24.5040 N.am  369  GLY369     -0.1940
     99  CA       195.2160   52.4560  -23.5430 C.3   369  GLY369      0.2014
    100  C        196.6760   52.4370  -23.9460 C.2   369  GLY369      0.2638
    101  O        197.3620   53.4580  -23.8730 O.2   369  GLY369     -0.2714
    102  N        197.1520   51.2760  -24.3830 N.am  370  ARG370     -0.1977
    103  CA       198.5480   51.1260  -24.7730 C.3   370  ARG370      0.1597
    104  C        198.8550   51.9090  -26.0450 C.2   370  ARG370      0.2287
    105  O        200.0010   52.2800  -26.2900 O.2   370  ARG370     -0.2864
    106  CB       198.8970   49.6480  -24.9620 C.3   370  ARG370      0.0334
    107  CG       198.2780   49.0030  -26.1910 C.3   370  ARG370      0.0492
    108  CD       198.3410   47.4900  -26.0950 C.3   370  ARG370      0.2205
    109  NE       197.5850   46.9980  -24.9480 N.pl3 370  ARG370     -0.0865
    110  CZ       197.5260   45.7230  -24.5810 C.cat 370  ARG370      0.5346
    111  NH1      198.1840   44.8000  -25.2700 N.pl3 370  ARG370      0.1354
    112  NH2      196.8090   45.3710  -23.5220 N.pl3 370  ARG370      0.1354
    113  N        195.2580   52.4560  -15.8570 N.3   393  THR393     -0.1203
    114  CA       194.3090   51.3610  -15.7070 C.3   393  THR393      0.1994
    115  C        194.3070   50.5540  -17.0020 C.2   393  THR393      0.2618
    116  O        193.3690   50.6300  -17.7940 O.2   393  THR393     -0.2717
    117  CB       192.8890   51.8730  -15.3950 C.3   393  THR393      0.1784
    118  OG1      192.4290   52.7060  -16.4670 O.3   393  THR393     -0.2211
    119  CG2      192.8870   52.6800  -14.1040 C.3   393  THR393      0.0376
    120  N        195.3680   49.7790  -17.2050 N.am  394  LEU394     -0.1965
    121  CA       195.6750   49.2340  -18.5230 C.3   394  LEU394      0.1728
    122  C        195.0400   47.8760  -18.8230 C.2   394  LEU394      0.2617
    123  O        194.4580   47.6910  -19.8890 O.2   394  LEU394     -0.2715
    124  CB       197.1920   49.1320  -18.6940 C.3   394  LEU394      0.0311
    125  CG       197.6870   49.1680  -20.1390 C.3   394  LEU394      0.0022
    126  CD1      197.3470   50.5020  -20.7780 C.3   394  LEU394      0.0001
    127  CD2      199.1800   48.9060  -20.2070 C.3   394  LEU394      0.0001
    128  N        195.1650   46.9210  -17.9060 N.am  395  THR395     -0.1937
    129  CA       194.6490   45.5740  -18.1540 C.3   395  THR395      0.2028
    130  C        193.7580   45.0530  -17.0310 C.2   395  THR395      0.2643
    131  O        194.1140   45.1290  -15.8560 O.2   395  THR395     -0.2714
    132  CB       195.7910   44.5590  -18.3630 C.3   395  THR395      0.1808
    133  OG1      196.5850   44.4790  -17.1730 O.3   395  THR395     -0.2208
    134  CG2      196.6680   44.9640  -19.5390 C.3   395  THR395      0.0379
    135  N        192.6080   44.5010  -17.4060 N.am  396  GLY396     -0.1939
    136  CA       191.6870   43.9200  -16.4460 C.3   396  GLY396      0.2014
    137  C        192.2170   42.6460  -15.8140 C.2   396  GLY396      0.2638
    138  O        191.6620   42.1530  -14.8310 O.2   396  GLY396     -0.2714
    139  N        193.3000   42.1160  -16.3770 N.am  397  ALA397     -0.1977
    140  CA       193.9260   40.9020  -15.8640 C.3   397  ALA397      0.1597
    141  C        194.5080   41.1110  -14.4670 C.2   397  ALA397      0.2287
    142  O        194.7420   40.1490  -13.7360 O.2   397  ALA397     -0.2864
    143  CB       195.0100   40.4250  -16.8190 C.3   397  ALA397      0.0319
    144  N        193.1110   42.2420  -11.8860 N.3   399  LEU399     -0.1245
    145  CA       192.1600   41.7740  -10.8840 C.3   399  LEU399      0.1561
    146  C        192.3790   40.2980  -10.5580 C.2   399  LEU399      0.2260
    147  O        191.9940   39.8260   -9.4880 O.2   399  LEU399     -0.2867
    148  CB       190.7240   41.9960  -11.3640 C.3   399  LEU399      0.0270
    149  CG       190.1950   43.4310  -11.3440 C.3   399  LEU399      0.0019
    150  CD1      188.8530   43.5130  -12.0520 C.3   399  LEU399      0.0001
    151  CD2      190.0730   43.9320   -9.9150 C.3   399  LEU399      0.0001
    152  N        198.0520   43.4310  -29.6800 N.3   454  ILE454     -0.1245
    153  CA       197.7650   42.4630  -28.6280 C.3   454  ILE454      0.1561
    154  C        198.2430   41.0600  -28.9710 C.2   454  ILE454      0.2260
    155  O        198.5010   40.7440  -30.1320 O.2   454  ILE454     -0.2867
    156  CB       196.2530   42.3740  -28.3380 C.3   454  ILE454      0.0252
    157  CG1      195.4940   42.0120  -29.6160 C.3   454  ILE454      0.0019
    158  CG2      195.7320   43.6770  -27.7630 C.3   454  ILE454      0.0019
    159  CD1      194.1930   41.2850  -29.3730 C.3   454  ILE454      0.0001
    160  N        197.9680   39.1620  -19.9230 N.3   460  SER460     -0.1217
    161  CA       197.8020   40.3950  -20.6830 C.3   460  SER460      0.1889
    162  C        198.6140   41.5620  -20.1270 C.2   460  SER460      0.2288
    163  O        199.0670   42.4220  -20.8820 O.2   460  SER460     -0.2866
    164  CB       196.3230   40.7790  -20.7300 C.3   460  SER460      0.2089
    165  OG       195.5450   39.7120  -21.2410 O.3   460  SER460     -0.2183
    166  N        194.7270   49.1790  -12.7660 N.3   483  ALA483     -0.1245
    167  CA       193.3910   48.8370  -13.2470 C.3   483  ALA483      0.1562
    168  C        192.5360   48.1710  -12.1730 C.2   483  ALA483      0.2260
    169  O        191.3190   48.3500  -12.1380 O.2   483  ALA483     -0.2867
    170  CB       193.4890   47.9400  -14.4670 C.3   483  ALA483      0.0290
@<TRIPOS>BOND
     1    68    69    1
     2    69    70    1
     3    69    72    1
     4   155   154    2
     5    70    71    2
     6   152   153    1
     7   157   159    1
     8   157   156    1
     9    72    73    1
    10   154   153    1
    11   153   156    1
    12   156   158    1
    13    73    74    2
    14    73    75   am
    15    76    77    1
    16    87    86    2
    17    93    90    1
    18    93    94    1
    19    90    89    1
    20    90    91    1
    21    84    85    1
    22    84    78   am
    23    88    85    1
    24    86    89   am
    25    86    85    1
    26    77    80    1
    27    77    78    1
    28   105   104    2
    29    92    91    2
    30   107   108    1
    31   107   106    1
    32   108   109    1
    33   104   103    1
    34    91    98   am
    35    80    81    1
    36    78    79    2
    37    94    95    1
    38   111   110    1
    39   106   103    1
    40   109   110    2
    41    96    95   ar
    42   103   102    1
    43    18    19    1
    44   110   112    1
    45    98    99    1
    46    95    97   ar
    47   102   100   am
    48    81    82   ar
    49    81    83   ar
    50    16    15   ar
    51   100   101    2
    52   100    99    1
    53    19    20    1
    54    19    22    1
    55    20    21    2
    56    15    17   ar
    57    15    14    1
    58    12    11    1
    59    12    13    2
    60    11    14    1
    61    11    10    1
    62    23    22    1
    63    23    24    1
    64    25    24    1
    65    25    26    1
    66   165   164    1
    67   163   162    2
    68   126   125    1
    69   164   161    1
    70   161   162    1
    71   161   160    1
    72     8     9    1
    73     8     7    1
    74    67    65   ar
    75   127   125    1
    76   125   124    1
    77    32    31    1
    78     6     7    1
    79     6     5    1
    80   123   122    2
    81    31    28    1
    82   134   132    1
    83     2     5    1
    84     2     3    1
    85     2     1    1
    86    65    64    1
    87    65    66   ar
    88     3     4    2
    89    46    45    1
    90    46    47    1
    91   122   121    1
    92   122   128   am
    93   124   121    1
    94    45    42    1
    95    64    61    1
    96    47    48    1
    97   121   120    1
    98   132   129    1
    99   132   133    1
   100    63    62    2
   101    28    29    1
   102    28    27    1
   103    44    43    2
   104   129   128    1
   105   129   130    1
   106    30    29    2
   107   116   115    2
   108    29    33   am
   109    62    61    1
   110   135   130   am
   111   135   136    1
   112    43    42    1
   113    42    41    1
   114    61    60    1
   115   120   115   am
   116   130   131    2
   117   115   114    1
   118   143   140    1
   119    33    34    1
   120    35    36    2
   121    35    34    1
   122   118   117    1
   123   136   137    1
   124   139   140    1
   125   139   137   am
   126    60    51   am
   127    34    37    1
   128   140   141    1
   129   113   114    1
   130   137   138    2
   131    58    59   ar
   132    58    56   ar
   133   114   117    1
   134   117   119    1
   135    59    57   ar
   136    56    54   ar
   137    51    52    2
   138    51    50    1
   139    49    50    1
   140    37    38    1
   141   170   167    1
   142   141   142    2
   143    40    39    1
   144    50    53    1
   145    57    55   ar
   146    54    55   ar
   147    54    53    1
   148    38    39    1
   149   167   166    1
   150   167   168    1
   151   168   169    2
   152   150   149    1
   153   144   145    1
   154   148   149    1
   155   148   145    1
   156   149   151    1
   157   145   146    1
   158   146   147    2
