@<TRIPOS>MOLECULE
tmp/4zxaE00.pdb
 139 136 0 0 0
SMALL
GASTEIGER

@<TRIPOS>ATOM
      1  N         -1.1310  -35.2000  -47.9200 N.3    61  TRP61      -0.1241
      2  CA        -0.7290  -34.1930  -46.9360 C.3    61  TRP61       0.1605
      3  C         -1.6160  -34.2140  -45.6960 C.2    61  TRP61       0.2264
      4  O         -1.4080  -33.4450  -44.7690 O.2    61  TRP61      -0.2867
      5  CB        -0.7700  -32.7830  -47.5430 C.3    61  TRP61       0.0550
      6  CG         0.1030  -32.5920  -48.7380 C.ar   61  TRP61       0.0003
      7  CD1        1.0870  -33.4280  -49.1770 C.ar   61  TRP61       0.0946
      8  CD2        0.0510  -31.5020  -49.6690 C.ar   61  TRP61       0.0152
      9  NE1        1.6560  -32.9200  -50.3190 N.ar   61  TRP61      -0.2442
     10  CE2        1.0370  -31.7440  -50.6460 C.ar   61  TRP61       0.0810
     11  CE3       -0.7330  -30.3530  -49.7780 C.ar   61  TRP61       0.0012
     12  CZ2        1.2700  -30.8690  -51.7000 C.ar   61  TRP61       0.0191
     13  CZ3       -0.5130  -29.4940  -50.8240 C.ar   61  TRP61       0.0001
     14  CH2        0.4800  -29.7540  -51.7770 C.ar   61  TRP61       0.0015
     15  N         -3.1620  -30.9420  -45.0390 N.3    64  PHE64      -0.1241
     16  CA        -2.2120  -29.8520  -44.9180 C.3    64  PHE64       0.1605
     17  C         -2.6210  -28.8860  -43.8030 C.2    64  PHE64       0.2264
     18  O         -3.0540  -29.3150  -42.7340 O.2    64  PHE64      -0.2867
     19  CB        -2.1210  -29.1190  -46.2600 C.3    64  PHE64       0.0534
     20  CG        -0.7810  -28.4780  -46.5200 C.ar   64  PHE64      -0.0203
     21  CD1        0.3370  -28.8550  -45.7950 C.ar   64  PHE64      -0.0042
     22  CD2       -0.6460  -27.4900  -47.4830 C.ar   64  PHE64      -0.0042
     23  CE1        1.5810  -28.2550  -46.0330 C.ar   64  PHE64      -0.0003
     24  CE2        0.5850  -26.8840  -47.7220 C.ar   64  PHE64      -0.0003
     25  CZ         1.7000  -27.2680  -47.0040 C.ar   64  PHE64      -0.0000
     26  N          5.9710  -32.0360  -55.8430 N.3   215  TRP215     -0.1241
     27  CA         5.2290  -31.2350  -54.8760 C.3   215  TRP215      0.1605
     28  C          4.7930  -32.0640  -53.6700 C.2   215  TRP215      0.2264
     29  O          3.5900  -32.2040  -53.3770 O.2   215  TRP215     -0.2867
     30  CB         4.0580  -30.5680  -55.5580 C.3   215  TRP215      0.0550
     31  CG         4.4740  -29.8180  -56.7960 C.ar  215  TRP215      0.0003
     32  CD1        4.4050  -30.2610  -58.0820 C.ar  215  TRP215      0.0946
     33  CD2        5.0270  -28.5010  -56.8510 C.ar  215  TRP215      0.0152
     34  NE1        4.8680  -29.2960  -58.9440 N.ar  215  TRP215     -0.2442
     35  CE2        5.2620  -28.2060  -58.2110 C.ar  215  TRP215      0.0810
     36  CE3        5.3460  -27.5380  -55.8900 C.ar  215  TRP215      0.0012
     37  CZ2        5.7900  -26.9810  -58.6270 C.ar  215  TRP215      0.0191
     38  CZ3        5.8700  -26.3280  -56.2980 C.ar  215  TRP215      0.0001
     39  CH2        6.0820  -26.0550  -57.6550 C.ar  215  TRP215      0.0015
     40  N          6.4860  -32.2480  -49.8960 N.3   217  PRO217     -0.2116
     41  CA         7.4310  -32.0420  -48.7950 C.3   217  PRO217      0.1372
     42  C          7.5250  -33.3070  -47.9460 C.2   217  PRO217      0.2244
     43  O          6.4960  -33.8040  -47.4760 O.2   217  PRO217     -0.2868
     44  CB         6.7970  -30.8950  -47.9940 C.3   217  PRO217      0.0268
     45  CG         5.9430  -30.1520  -49.0170 C.3   217  PRO217      0.0207
     46  CD         5.4080  -31.2400  -49.9140 C.3   217  PRO217      0.0892
     47  N         11.5690  -31.3260  -51.1880 N.3   231  THR231     -0.1218
     48  CA        10.7060  -31.9410  -52.1890 C.3   231  THR231      0.1862
     49  C         11.1720  -31.4800  -53.5730 C.2   231  THR231      0.2287
     50  O         11.7900  -30.4270  -53.6970 O.2   231  THR231     -0.2866
     51  CB         9.2320  -31.5450  -51.9610 C.3   231  THR231      0.1770
     52  OG1        8.4210  -32.0360  -53.0280 O.3   231  THR231     -0.2211
     53  CG2        9.0860  -30.0360  -51.8890 C.3   231  THR231      0.0375
     54  N         10.1630  -30.2850  -57.2960 N.3   233  GLU233     -0.1245
     55  CA         9.0220  -29.6200  -57.9000 C.3   233  GLU233      0.1567
     56  C          9.1580  -29.5130  -59.4140 C.2   233  GLU233      0.2260
     57  O         10.1860  -29.0800  -59.9410 O.2   233  GLU233     -0.2867
     58  CB         8.8370  -28.2160  -57.3010 C.3   233  GLU233      0.0388
     59  CG         9.2750  -28.0730  -55.8550 C.3   233  GLU233      0.1160
     60  CD         8.3780  -28.7990  -54.8590 C.2   233  GLU233      0.3649
     61  OE1        8.0420  -29.9870  -55.0790 O.co2 233  GLU233     -0.2457
     62  OE2        8.0170  -28.1730  -53.8350 O.co2 233  GLU233     -0.2457
     63  N          2.4350  -26.3950  -58.9830 N.3   237  LEU237     -0.1245
     64  CA         1.8340  -26.8460  -57.7220 C.3   237  LEU237      0.1561
     65  C          0.3550  -27.1950  -57.9750 C.2   237  LEU237      0.2260
     66  O         -0.4210  -26.3560  -58.4200 O.2   237  LEU237     -0.2867
     67  CB         1.9440  -25.7500  -56.6540 C.3   237  LEU237      0.0270
     68  CG         1.3610  -26.0750  -55.2720 C.3   237  LEU237      0.0019
     69  CD1        2.1120  -27.2290  -54.5950 C.3   237  LEU237      0.0001
     70  CD2        1.3420  -24.8400  -54.3690 C.3   237  LEU237      0.0001
     71  N         -2.4700  -22.5450  -52.4910 N.3   241  HIS241     -0.1241
     72  CA        -2.5470  -22.6960  -51.0490 C.3   241  HIS241      0.1621
     73  C         -2.8270  -21.3820  -50.3510 C.2   241  HIS241      0.2264
     74  O         -2.1500  -20.3850  -50.6050 O.2   241  HIS241     -0.2867
     75  CB        -1.2440  -23.2770  -50.5140 C.3   241  HIS241      0.0745
     76  CG        -1.3020  -23.6000  -49.0570 C.ar  241  HIS241      0.0817
     77  ND1       -0.2160  -23.4600  -48.2240 N.ar  241  HIS241     -0.2268
     78  CD2       -2.3130  -24.0400  -48.2870 C.ar  241  HIS241      0.1154
     79  CE1       -0.5520  -23.8100  -47.0000 C.ar  241  HIS241      0.1986
     80  NE2       -1.8240  -24.1700  -47.0080 N.ar  241  HIS241     -0.2212
     81  N          5.3610  -19.6820  -43.6580 N.3   247  GLU247     -0.1245
     82  CA         6.1550  -20.7810  -44.2050 C.3   247  GLU247      0.1567
     83  C          7.5110  -20.2690  -44.6490 C.2   247  GLU247      0.2260
     84  O          7.6250  -19.0990  -45.0340 O.2   247  GLU247     -0.2867
     85  CB         5.4710  -21.3920  -45.4170 C.3   247  GLU247      0.0388
     86  CG         4.1810  -22.0820  -45.1090 C.3   247  GLU247      0.1160
     87  CD         3.3190  -22.2620  -46.3380 C.2   247  GLU247      0.3649
     88  OE1        3.5640  -21.5430  -47.3360 O.co2 247  GLU247     -0.2457
     89  OE2        2.4120  -23.1190  -46.3080 O.co2 247  GLU247     -0.2457
     90  N         10.6880  -21.0800  -47.3790 N.3   249  PHE249     -0.1241
     91  CA        11.1840  -21.7860  -48.5500 C.3   249  PHE249      0.1605
     92  C         12.6810  -21.4720  -48.7470 C.2   249  PHE249      0.2264
     93  O         13.0660  -20.3020  -48.7890 O.2   249  PHE249     -0.2867
     94  CB        10.4110  -21.3320  -49.7940 C.3   249  PHE249      0.0534
     95  CG         8.9560  -21.7350  -49.8190 C.ar  249  PHE249     -0.0203
     96  CD1        8.4620  -22.7120  -48.9690 C.ar  249  PHE249     -0.0042
     97  CD2        8.0800  -21.1490  -50.7270 C.ar  249  PHE249     -0.0042
     98  CE1        7.1140  -23.0860  -49.0050 C.ar  249  PHE249     -0.0003
     99  CE2        6.7310  -21.5220  -50.7740 C.ar  249  PHE249     -0.0003
    100  CZ         6.2510  -22.4940  -49.9060 C.ar  249  PHE249     -0.0000
    101  N          6.6910  -17.9810  -57.7490 N.3   258  TRP258     -0.1241
    102  CA         5.4930  -17.9410  -56.9240 C.3   258  TRP258      0.1605
    103  C          4.5890  -16.7360  -57.2020 C.2   258  TRP258      0.2264
    104  O          5.0260  -15.5930  -57.1040 O.2   258  TRP258     -0.2867
    105  CB         5.8680  -17.9980  -55.4430 C.3   258  TRP258      0.0550
    106  CG         6.4650  -19.3040  -55.0450 C.ar  258  TRP258      0.0003
    107  CD1        7.7880  -19.6310  -55.0610 C.ar  258  TRP258      0.0946
    108  CD2        5.7700  -20.4730  -54.5830 C.ar  258  TRP258      0.0152
    109  NE1        7.9630  -20.9160  -54.6250 N.ar  258  TRP258     -0.2442
    110  CE2        6.7410  -21.4590  -54.3260 C.ar  258  TRP258      0.0810
    111  CE3        4.4240  -20.7740  -54.3470 C.ar  258  TRP258      0.0012
    112  CZ2        6.4100  -22.7320  -53.8530 C.ar  258  TRP258      0.0191
    113  CZ3        4.0930  -22.0410  -53.8780 C.ar  258  TRP258      0.0001
    114  CH2        5.0780  -23.0030  -53.6440 C.ar  258  TRP258      0.0015
    115  N         -0.8700  -18.6100  -52.4830 N.3   288  HIS288     -0.1241
    116  CA         0.1850  -18.6460  -53.4830 C.3   288  HIS288      0.1621
    117  C          0.1940  -19.9640  -54.2480 C.2   288  HIS288      0.2264
    118  O         -0.4470  -20.9220  -53.8410 O.2   288  HIS288     -0.2867
    119  CB         1.5370  -18.3950  -52.8140 C.3   288  HIS288      0.0745
    120  CG         1.8580  -19.3690  -51.7180 C.ar  288  HIS288      0.0817
    121  ND1        2.9800  -19.2600  -50.9420 N.ar  288  HIS288     -0.2268
    122  CD2        1.1990  -20.4710  -51.2970 C.ar  288  HIS288      0.1154
    123  CE1        3.0070  -20.2610  -50.0670 C.ar  288  HIS288      0.1986
    124  NE2        1.9420  -21.0060  -50.2730 N.ar  288  HIS288     -0.2212
    125  N         13.6210  -28.1160  -53.7320 N.3   298  LEU298     -0.1245
    126  CA        13.1280  -27.0760  -52.8340 C.3   298  LEU298      0.1561
    127  C         13.1070  -27.5830  -51.4030 C.2   298  LEU298      0.2260
    128  O         12.6250  -28.6780  -51.1190 O.2   298  LEU298     -0.2867
    129  CB        11.7220  -26.6040  -53.2290 C.3   298  LEU298      0.0270
    130  CG        11.0030  -25.7010  -52.2080 C.3   298  LEU298      0.0019
    131  CD1       11.7110  -24.3600  -52.0560 C.3   298  LEU298      0.0001
    132  CD2        9.5720  -25.4610  -52.6050 C.3   298  LEU298      0.0001
    133  N         11.3830  -27.1090  -47.9580 N.3   300  VAL300     -0.1245
    134  CA        10.2940  -26.5190  -47.1750 C.3   300  VAL300      0.1561
    135  C         10.5810  -26.7360  -45.6880 C.2   300  VAL300      0.2260
    136  O         10.7220  -27.8710  -45.2180 O.2   300  VAL300     -0.2867
    137  CB         8.9040  -27.1160  -47.5350 C.3   300  VAL300      0.0252
    138  CG1        7.7980  -26.4150  -46.7340 C.3   300  VAL300      0.0019
    139  CG2        8.6370  -27.0190  -49.0360 C.3   300  VAL300      0.0019
@<TRIPOS>BOND
     1    57    56    2
     2    56    55    1
     3    63    64    1
     4    34    35   ar
     5    34    32   ar
     6    37    35   ar
     7    37    39   ar
     8    66    65    2
     9    35    33   ar
    10    32    31   ar
    11    65    64    1
    12    55    58    1
    13    55    54    1
    14   101   102    1
    15    64    67    1
    16    39    38   ar
    17    58    59    1
    18   103   104    2
    19   103   102    1
    20   102   105    1
    21    33    31   ar
    22    33    36   ar
    23    31    30    1
    24    67    68    1
    25    38    36   ar
    26    59    60    1
    27    26    27    1
    28    30    27    1
    29   105   106    1
    30    68    69    1
    31    68    70    1
    32    61    60   ar
    33   107   106   ar
    34   107   109   ar
    35   106   108   ar
    36    27    28    1
    37    60    62   ar
    38   109   110   ar
    39   108   111   ar
    40   108   110   ar
    41   111   113   ar
    42   110   112   ar
    43   117   118    2
    44   117   116    1
    45   113   114   ar
    46   112   114   ar
    47   125   126    1
    48    50    49    2
    49    28    29    2
    50    49    48    1
    51   116   119    1
    52   116   115    1
    53   129   126    1
    54   129   130    1
    55    52    51    1
    56   126   127    1
    57   119   120    1
    58   132   130    1
    59    71    72    1
    60   130   131    1
    61    48    51    1
    62    48    47    1
    63    51    53    1
    64    14    12   ar
    65    14    13   ar
    66   120   122   ar
    67   120   121   ar
    68    12    10   ar
    69   127   128    2
    70   122   124   ar
    71    72    75    1
    72    72    73    1
    73   121   123   ar
    74    13    11   ar
    75    99    97   ar
    76    99   100   ar
    77    97    95   ar
    78    10     9   ar
    79    10     8   ar
    80    74    73    2
    81    75    76    1
    82     9     7   ar
    83   124   123   ar
    84    46    40    1
    85    46    45    1
    86   100    98   ar
    87    40    41    1
    88    95    94    1
    89    95    96   ar
    90    94    91    1
    91    11     8   ar
    92     8     6   ar
    93     7     6   ar
    94    76    78   ar
    95    76    77   ar
    96   139   137    1
    97    45    44    1
    98    98    96   ar
    99    41    44    1
   100    41    42    1
   101    93    92    2
   102    92    91    1
   103     6     5    1
   104    91    90    1
   105    78    80   ar
   106    77    79   ar
   107   133   134    1
   108    42    43    2
   109     1     2    1
   110    24    22   ar
   111    24    25   ar
   112     5     2    1
   113   137   134    1
   114   137   138    1
   115    22    20   ar
   116    88    87   ar
   117   134   135    1
   118    80    79   ar
   119    25    23   ar
   120     2     3    1
   121    20    19    1
   122    20    21   ar
   123    87    89   ar
   124    87    86    1
   125    19    16    1
   126    23    21   ar
   127     3     4    2
   128   135   136    2
   129    85    86    1
   130    85    82    1
   131    15    16    1
   132    84    83    2
   133    16    17    1
   134    83    82    1
   135    82    81    1
   136    17    18    2
