@<TRIPOS>MOLECULE
tmp/4zxbE03.pdb
 84 77 0 0 0
SMALL
GASTEIGER

@<TRIPOS>ATOM
      1  N         46.3430  121.5130   30.9590 N.3    78  ASN78      -0.1240
      2  CA        45.8420  121.7720   29.6180 C.3    78  ASN78       0.1653
      3  C         44.4420  121.2370   29.3240 C.2    78  ASN78       0.2266
      4  O         43.9840  121.3670   28.1870 O.2    78  ASN78      -0.2867
      5  CB        46.8590  121.2470   28.5940 C.3    78  ASN78       0.1155
      6  CG        48.1930  121.9550   28.6860 C.2    78  ASN78       0.2627
      7  OD1       48.2790  123.1880   28.7650 O.2    78  ASN78      -0.2716
      8  ND2       49.2670  121.1940   28.7020 N.am   78  ASN78      -0.0877
      9  N         43.0640  126.0780   31.9980 N.3   108  ASN108     -0.1240
     10  CA        42.7850  125.9370   30.5840 C.3   108  ASN108      0.1653
     11  C         41.3730  125.4540   30.2960 C.2   108  ASN108      0.2266
     12  O         41.0260  125.3400   29.1220 O.2   108  ASN108     -0.2867
     13  CB        43.8300  125.0980   29.8750 C.3   108  ASN108      0.1155
     14  CG        44.9770  125.9480   29.3770 C.2   108  ASN108      0.2627
     15  OD1       44.8150  126.7720   28.4640 O.2   108  ASN108     -0.2716
     16  ND2       46.1640  125.7730   29.9390 N.am  108  ASN108     -0.0877
     17  N         37.8850  125.7620   29.2880 N.3   110  MET110     -0.1245
     18  CA        37.1360  126.8030   28.5880 C.3   110  MET110      0.1570
     19  C         35.6650  126.5000   28.4020 C.2   110  MET110      0.2261
     20  O         34.8560  127.4320   28.2700 O.2   110  MET110     -0.2867
     21  CB        37.7200  126.9890   27.1920 C.3   110  MET110      0.0387
     22  CG        39.1810  127.2450   27.1430 C.3   110  MET110      0.0595
     23  SD        39.6910  128.7120   27.9830 S.3   110  MET110     -0.1393
     24  CE        41.4370  128.6260   27.6120 C.3   110  MET110      0.0692
     25  N         40.8390  132.8920   31.0710 N.3   181  LYS181     -0.1245
     26  CA        40.9390  133.4700   29.7200 C.3   181  LYS181      0.1561
     27  C         39.5830  133.9400   29.2720 C.2   181  LYS181      0.2260
     28  O         38.6030  133.2160   29.4250 O.2   181  LYS181     -0.2867
     29  CB        41.5010  132.4780   28.6800 C.3   181  LYS181      0.0271
     30  CG        42.8180  131.7330   29.0200 C.3   181  LYS181      0.0035
     31  CD        44.1230  132.5110   29.3520 C.3   181  LYS181      0.0206
     32  CE        44.4370  132.7290   30.8250 C.3   181  LYS181      0.1093
     33  NZ        44.6750  131.4480   31.5710 N.3   181  LYS181     -0.1314
     34  N         37.7810  135.8970   25.9340 N.3   183  CYS183     -0.1235
     35  CA        37.9160  136.3270   24.5690 C.3   183  CYS183      0.1677
     36  C         36.8950  137.3770   24.2220 C.2   183  CYS183      0.2270
     37  O         35.8940  137.4900   24.9380 O.2   183  CYS183     -0.2867
     38  CB        37.8080  135.1240   23.6400 C.3   183  CYS183      0.0956
     39  SG        39.2230  134.0020   23.7330 S.3   183  CYS183     -0.0801
     40  N         40.4550  132.1720   21.2780 N.3   192  CYS192     -0.1221
     41  CA        41.2670  133.1960   20.6400 C.3   192  CYS192      0.1808
     42  C         42.7270  133.0220   21.0150 C.2   192  CYS192      0.2602
     43  O         43.0470  132.3650   22.0060 O.2   192  CYS192     -0.2717
     44  CB        40.7550  134.5870   21.0270 C.3   192  CYS192      0.0970
     45  SG        40.7970  134.9480   22.8150 S.3   192  CYS192     -0.0800
     46  N         43.6110  133.6460   20.2460 N.am  193  THR193     -0.1939
     47  CA        45.0340  133.6840   20.5550 C.3   193  THR193      0.2028
     48  C         45.2520  134.7280   21.6580 C.2   193  THR193      0.2642
     49  O         44.3210  135.4500   22.0280 O.2   193  THR193     -0.2714
     50  CB        45.8680  133.9660   19.2830 C.3   193  THR193      0.1808
     51  OG1       47.2490  134.0530   19.6120 O.3   193  THR193     -0.2208
     52  CG2       45.4760  135.2440   18.5760 C.3   193  THR193      0.0379
     53  N         46.4930  134.8260   22.1500 N.am  194  ALA194     -0.1977
     54  CA        46.9030  135.7790   23.1710 C.3   194  ALA194      0.1597
     55  C         46.6130  137.2150   22.7480 C.2   194  ALA194      0.2287
     56  O         46.2600  138.0370   23.5970 O.2   194  ALA194     -0.2864
     57  CB        48.3840  135.6160   23.4490 C.3   194  ALA194      0.0319
     58  N         40.1300  127.0720   22.4500 N.3   206  ASN206     -0.1225
     59  CA        41.4810  127.5790   22.2120 C.3   206  ASN206      0.1785
     60  C         42.0730  126.9850   20.9230 C.2   206  ASN206      0.2597
     61  O         41.5960  125.9660   20.4280 O.2   206  ASN206     -0.2718
     62  CB        42.3840  127.2580   23.4490 C.3   206  ASN206      0.1169
     63  CG        43.7180  127.9590   23.4510 C.2   206  ASN206      0.2627
     64  OD1       43.8590  129.0540   22.8840 O.2   206  ASN206     -0.2716
     65  ND2       44.7400  127.3730   24.0940 N.am  206  ASN206     -0.0877
     66  N         43.1190  127.6420   20.3910 N.am  207  CYS207     -0.1956
     67  CA        43.8780  127.2580   19.1890 C.3   207  CYS207      0.1843
     68  C         45.3120  127.7690   19.2690 C.2   207  CYS207      0.2626
     69  O         45.6080  128.6970   20.0380 O.2   207  CYS207     -0.2714
     70  CB        43.2030  127.7900   17.9360 C.3   207  CYS207      0.0997
     71  SG        43.0480  129.5920   17.9220 S.3   207  CYS207     -0.0797
     72  N         46.1890  127.1840   18.4430 N.am  208  SER208     -0.1950
     73  CA        47.5920  127.5660   18.3680 C.3   208  SER208      0.1924
     74  C         47.7990  128.6350   17.3310 C.2   208  SER208      0.2314
     75  O         48.7780  129.3740   17.4040 O.2   208  SER208     -0.2863
     76  CB        48.4850  126.3610   18.0880 C.3   208  SER208      0.2116
     77  OG        48.2060  125.7230   16.8560 O.3   208  SER208     -0.2180
     78  N         42.7630  123.4760   19.6410 N.3   217  VAL217     -0.1245
     79  CA        43.1000  122.6340   20.7740 C.3   217  VAL217      0.1561
     80  C         42.0200  121.5410   20.8780 C.2   217  VAL217      0.2260
     81  O         42.3390  120.3550   21.0760 O.2   217  VAL217     -0.2867
     82  CB        43.2630  123.4790   22.0230 C.3   217  VAL217      0.0252
     83  CG1       43.4580  122.6080   23.2420 C.3   217  VAL217      0.0019
     84  CG2       44.4470  124.4190   21.8440 C.3   217  VAL217      0.0019
@<TRIPOS>BOND
     1    77    76    1
     2    74    75    2
     3    74    73    1
     4    71    70    1
     5    70    67    1
     6    76    73    1
     7    73    72    1
     8    72    68   am
     9    52    50    1
    10    67    68    1
    11    67    66    1
    12    68    69    2
    13    50    51    1
    14    50    47    1
    15    78    79    1
    16    46    47    1
    17    46    42   am
    18    66    60   am
    19    61    60    2
    20    47    48    1
    21    41    42    1
    22    41    44    1
    23    41    40    1
    24    79    80    1
    25    79    82    1
    26    80    81    2
    27    60    59    1
    28    42    43    2
    29    44    45    1
    30    48    49    2
    31    48    53   am
    32    84    82    1
    33    82    83    1
    34    53    54    1
    35    59    58    1
    36    59    62    1
    37    55    54    1
    38    55    56    2
    39    45    39    1
    40    64    63    2
    41    54    57    1
    42    62    63    1
    43    63    65   am
    44    38    39    1
    45    38    35    1
    46    36    35    1
    47    36    37    2
    48    35    34    1
    49    22    21    1
    50    22    23    1
    51    21    18    1
    52    24    23    1
    53     4     3    2
    54    20    19    2
    55    19    18    1
    56    15    14    2
    57    18    17    1
    58     5     6    1
    59     5     2    1
    60    29    30    1
    61    29    26    1
    62     6     8   am
    63     6     7    2
    64    30    31    1
    65    12    11    2
    66    27    28    2
    67    27    26    1
    68     3     2    1
    69    31    32    1
    70    14    13    1
    71    14    16   am
    72     2     1    1
    73    26    25    1
    74    13    10    1
    75    11    10    1
    76    10     9    1
    77    32    33    1
