@<TRIPOS>MOLECULE
tmp/4zxbE01.pdb
 97 92 0 0 0
SMALL
GASTEIGER

@<TRIPOS>ATOM
      1  N         37.8850  125.7620   29.2880 N.3   110  MET110     -0.1230
      2  CA        37.1360  126.8030   28.5880 C.3   110  MET110      0.1702
      3  C         35.6650  126.5000   28.4020 C.2   110  MET110      0.2592
      4  O         34.8560  127.4320   28.2700 O.2   110  MET110     -0.2718
      5  CB        37.7200  126.9890   27.1920 C.3   110  MET110      0.0401
      6  CG        39.1810  127.2450   27.1430 C.3   110  MET110      0.0596
      7  SD        39.6910  128.7120   27.9830 S.3   110  MET110     -0.1393
      8  CE        41.4370  128.6260   27.6120 C.3   110  MET110      0.0692
      9  N         35.3330  125.2080   28.2770 N.am  111  ASN111     -0.1960
     10  CA        33.9710  124.8270   27.9860 C.3   111  ASN111      0.1819
     11  C         33.5940  123.5000   28.5720 C.2   111  ASN111      0.2621
     12  O         34.3570  122.5460   28.5110 O.2   111  ASN111     -0.2715
     13  CB        33.7580  124.8080   26.4590 C.3   111  ASN111      0.1195
     14  CG        32.3440  124.5380   25.9750 C.2   111  ASN111      0.2630
     15  OD1       31.9080  123.3840   25.8680 O.2   111  ASN111     -0.2716
     16  ND2       31.6090  125.6040   25.6310 N.am  111  ASN111     -0.0877
     17  N         32.3860  123.4570   29.1300 N.am  112  ILE112     -0.1963
     18  CA        31.6610  122.2770   29.5770 C.3   112  ILE112      0.1727
     19  C         30.4300  122.2450   28.6740 C.2   112  ILE112      0.2616
     20  O         29.5190  123.0710   28.8050 O.2   112  ILE112     -0.2715
     21  CB        31.3510  122.3070   31.0650 C.3   112  ILE112      0.0290
     22  CG1       32.6690  122.1800   31.8610 C.3   112  ILE112      0.0022
     23  CG2       30.4160  121.1620   31.3850 C.3   112  ILE112      0.0023
     24  CD1       32.5630  122.3670   33.3450 C.3   112  ILE112      0.0001
     25  N         30.4530  121.3330   27.7080 N.am  113  THR113     -0.1951
     26  CA        29.5050  121.3150   26.6140 C.3   113  THR113      0.1897
     27  C         28.1070  120.9010   27.0300 C.2   113  THR113      0.2313
     28  O         27.1290  121.3750   26.4540 O.2   113  THR113     -0.2863
     29  CB        30.0610  120.4650   25.4950 C.3   113  THR113      0.1794
     30  OG1       31.4690  120.6830   25.4020 O.3   113  THR113     -0.2208
     31  CG2       29.3930  120.7580   24.1760 C.3   113  THR113      0.0378
     32  N         29.7280  131.3190   33.8660 N.3   134  SER134     -0.1202
     33  CA        28.9020  131.6440   32.6910 C.3   134  SER134      0.2020
     34  C         29.7310  131.6600   31.4090 C.2   134  SER134      0.2619
     35  O         29.1640  131.5350   30.3280 O.2   134  SER134     -0.2717
     36  CB        28.1390  132.9540   32.8570 C.3   134  SER134      0.2103
     37  OG        29.0010  134.0780   32.8610 O.3   134  SER134     -0.2182
     38  N         31.0680  131.7440   31.5280 N.am  135  ARG135     -0.1965
     39  CA        31.9560  131.6930   30.3680 C.3   135  ARG135      0.1729
     40  C         32.2660  130.2630   29.9550 C.2   135  ARG135      0.2616
     41  O         32.8200  130.0520   28.8690 O.2   135  ARG135     -0.2715
     42  CB        33.2920  132.4100   30.6390 C.3   135  ARG135      0.0348
     43  CG        33.1890  133.8540   31.1310 C.3   135  ARG135      0.0492
     44  CD        32.2200  134.6870   30.3150 C.3   135  ARG135      0.2205
     45  NE        32.0080  135.9960   30.9200 N.pl3 135  ARG135     -0.0865
     46  CZ        31.0400  136.8290   30.5630 C.cat 135  ARG135      0.5346
     47  NH1       30.1550  136.4710   29.6380 N.pl3 135  ARG135      0.1354
     48  NH2       30.9080  138.0010   31.1720 N.pl3 135  ARG135      0.1354
     49  N         31.9610  129.2940   30.8310 N.am  136  ILE136     -0.1963
     50  CA        32.2950  127.8830   30.6480 C.3   136  ILE136      0.1727
     51  C         31.0640  127.0100   30.3630 C.2   136  ILE136      0.2616
     52  O         31.1480  126.0900   29.5580 O.2   136  ILE136     -0.2715
     53  CB        33.1080  127.4190   31.8880 C.3   136  ILE136      0.0290
     54  CG1       34.3880  128.2840   32.0610 C.3   136  ILE136      0.0022
     55  CG2       33.4550  125.9330   31.8090 C.3   136  ILE136      0.0023
     56  CD1       35.1980  128.0580   33.3320 C.3   136  ILE136      0.0001
     57  N         29.9230  127.3160   31.0000 N.am  137  LEU137     -0.1963
     58  CA        28.6560  126.5950   30.8220 C.3   137  LEU137      0.1728
     59  C         27.5690  127.5270   30.3670 C.2   137  LEU137      0.2616
     60  O         27.4450  128.6190   30.9320 O.2   137  LEU137     -0.2715
     61  CB        28.1070  126.0330   32.1350 C.3   137  LEU137      0.0311
     62  CG        28.8630  125.0640   32.9810 C.3   137  LEU137      0.0022
     63  CD1       29.6510  125.7810   34.0270 C.3   137  LEU137      0.0001
     64  CD2       27.8750  124.3250   33.7960 C.3   137  LEU137      0.0001
     65  N         26.6880  127.0500   29.4600 N.am  138  ASP138     -0.1971
     66  CA        25.5100  127.8180   29.0450 C.3   138  ASP138      0.1709
     67  C         24.5630  128.1030   30.1870 C.2   138  ASP138      0.2293
     68  O         24.0310  129.2110   30.2670 O.2   138  ASP138     -0.2864
     69  CB        24.7630  127.1630   27.8890 C.3   138  ASP138      0.1436
     70  CG        25.4820  127.3220   26.5790 C.2   138  ASP138      0.3671
     71  OD1       26.3270  128.2410   26.4780 O.co2 138  ASP138     -0.2456
     72  OD2       25.1030  126.6330   25.6130 O.co2 138  ASP138     -0.2456
     73  N         32.3010  130.7270   21.5200 N.3   189  SER189     -0.1217
     74  CA        32.8770  129.6020   22.2290 C.3   189  SER189      0.1889
     75  C         34.1980  129.1520   21.6100 C.2   189  SER189      0.2288
     76  O         34.8550  128.2750   22.1800 O.2   189  SER189     -0.2866
     77  CB        31.8980  128.4330   22.1460 C.3   189  SER189      0.2089
     78  OG        30.5770  128.8610   22.4290 O.3   189  SER189     -0.2183
     79  N         36.9510  124.9030   19.5390 N.3   204  LEU204     -0.1245
     80  CA        36.2680  125.0470   20.8060 C.3   204  LEU204      0.1561
     81  C         37.2990  125.3830   21.8780 C.2   204  LEU204      0.2260
     82  O         38.2230  124.5980   22.1060 O.2   204  LEU204     -0.2867
     83  CB        35.5100  123.7710   21.1670 C.3   204  LEU204      0.0270
     84  CG        34.6530  123.8090   22.4400 C.3   204  LEU204      0.0019
     85  CD1       33.6370  124.9610   22.4000 C.3   204  LEU204      0.0001
     86  CD2       33.9350  122.4660   22.6600 C.3   204  LEU204      0.0001
     87  N         34.6220  122.0170   18.0960 N.3   220  ARG220     -0.1245
     88  CA        33.2620  122.3560   18.4730 C.3   220  ARG220      0.1563
     89  C         32.3480  121.1880   18.1160 C.2   220  ARG220      0.2260
     90  O         31.4720  120.8270   18.9150 O.2   220  ARG220     -0.2867
     91  CB        32.8180  123.6180   17.7200 C.3   220  ARG220      0.0307
     92  CG        31.4120  124.0670   18.0280 C.3   220  ARG220      0.0489
     93  CD        31.0530  125.2210   17.1500 C.3   220  ARG220      0.2205
     94  NE        29.8690  125.9060   17.6510 N.pl3 220  ARG220     -0.0865
     95  CZ        29.4000  127.0430   17.1470 C.cat 220  ARG220      0.5346
     96  NH1       30.0110  127.6260   16.1180 N.pl3 220  ARG220      0.1354
     97  NH2       28.3220  127.6140   17.6720 N.pl3 220  ARG220      0.1354
@<TRIPOS>BOND
     1    96    95    1
     2    95    94    2
     3    95    97    1
     4    93    94    1
     5    93    92    1
     6    91    92    1
     7    91    88    1
     8    87    88    1
     9    89    88    1
    10    89    90    2
    11    79    80    1
    12    80    83    1
    13    80    81    1
    14    83    84    1
    15    73    74    1
    16    75    76    2
    17    75    74    1
    18    81    82    2
    19    77    74    1
    20    77    78    1
    21    85    84    1
    22    84    86    1
    23    31    29    1
    24    30    29    1
    25    29    26    1
    26    72    70   ar
    27    16    14   am
    28    15    14    2
    29    14    13    1
    30    28    27    2
    31    13    10    1
    32    71    70   ar
    33    70    69    1
    34    26    27    1
    35    26    25    1
    36     6     5    1
    37     6     7    1
    38     5     2    1
    39     8     7    1
    40    25    19   am
    41    69    66    1
    42    10     9    1
    43    10    11    1
    44     4     3    2
    45     9     3   am
    46     3     2    1
    47    12    11    2
    48    11    17   am
    49     2     1    1
    50    19    20    2
    51    19    18    1
    52    41    40    2
    53    66    65    1
    54    66    67    1
    55    17    18    1
    56    65    59   am
    57    52    51    2
    58    18    21    1
    59    47    46    1
    60    40    39    1
    61    40    49   am
    62    67    68    2
    63    44    45    1
    64    44    43    1
    65    35    34    2
    66    51    50    1
    67    51    57   am
    68    59    58    1
    69    59    60    2
    70    39    42    1
    71    39    38    1
    72    46    45    2
    73    46    48    1
    74    42    43    1
    75    50    49    1
    76    50    53    1
    77    58    57    1
    78    58    61    1
    79    21    23    1
    80    21    22    1
    81    34    38   am
    82    34    33    1
    83    55    53    1
    84    22    24    1
    85    53    54    1
    86    54    56    1
    87    61    62    1
    88    33    36    1
    89    33    32    1
    90    36    37    1
    91    62    64    1
    92    62    63    1
