@<TRIPOS>MOLECULE
tmp/4zxtA00.pdb
 87 79 0 0 0
SMALL
GASTEIGER

@<TRIPOS>ATOM
      1  N        -19.8660   20.2430   38.6910 N.3    25  ILE25      -0.1245
      2  CA       -19.5600   19.7730   40.0420 C.3    25  ILE25       0.1561
      3  C        -18.3540   20.4870   40.6410 C.2    25  ILE25       0.2260
      4  O        -18.3210   20.7650   41.8380 O.2    25  ILE25      -0.2867
      5  CB       -19.2350   18.2770   40.0800 C.3    25  ILE25       0.0252
      6  CG1      -20.4880   17.4380   39.8190 C.3    25  ILE25       0.0019
      7  CG2      -18.6110   17.9120   41.4360 C.3    25  ILE25       0.0019
      8  CD1      -20.1850   15.9440   39.7430 C.3    25  ILE25       0.0001
      9  N        -15.4780   19.0300   36.0090 N.3    33  VAL33      -0.1245
     10  CA       -16.2130   17.8120   36.2730 C.3    33  VAL33       0.1561
     11  C        -17.6990   18.1640   36.2750 C.2    33  VAL33       0.2260
     12  O        -18.1050   19.1950   36.8030 O.2    33  VAL33      -0.2867
     13  CB       -15.8080   17.1990   37.6370 C.3    33  VAL33       0.0252
     14  CG1      -16.6040   15.9330   37.9150 C.3    33  VAL33       0.0019
     15  CG2      -14.2940   16.9220   37.6810 C.3    33  VAL33       0.0019
     16  N        -20.5700   10.6260   36.7840 N.3    46  ALA46      -0.1245
     17  CA       -19.6010   11.7190   36.8050 C.3    46  ALA46       0.1562
     18  C        -18.7890   11.6760   35.5150 C.2    46  ALA46       0.2260
     19  O        -18.4600   10.5900   35.0210 O.2    46  ALA46      -0.2867
     20  CB       -18.6630   11.6010   38.0150 C.3    46  ALA46       0.0290
     21  N        -15.2430   13.6270   33.9340 N.3    48  LYS48      -0.1245
     22  CA       -14.0930   14.5210   34.0400 C.3    48  LYS48       0.1561
     23  C        -13.6210   14.8950   32.6330 C.2    48  LYS48       0.2260
     24  O        -13.3660   14.0240   31.8250 O.2    48  LYS48      -0.2867
     25  CB       -12.9160   13.8340   34.7450 C.3    48  LYS48       0.0271
     26  CG       -13.1290   13.3960   36.1830 C.3    48  LYS48       0.0035
     27  CD       -11.7730   13.1870   36.9040 C.3    48  LYS48       0.0206
     28  CE       -10.9430   12.0710   36.2830 C.3    48  LYS48       0.1093
     29  NZ        -9.5430   11.9760   36.8340 N.3    48  LYS48      -0.1314
     30  N        -12.0310    3.6380   42.3030 N.3    78  ILE78      -0.1245
     31  CA       -12.9380    4.1830   41.2970 C.3    78  ILE78       0.1561
     32  C        -12.6290    3.5310   39.9690 C.2    78  ILE78       0.2260
     33  O        -11.4680    3.3020   39.6060 O.2    78  ILE78      -0.2867
     34  CB       -12.8320    5.7220   41.1820 C.3    78  ILE78       0.0252
     35  CG1      -14.0270    6.2920   40.4140 C.3    78  ILE78       0.0019
     36  CG2      -11.5410    6.1290   40.4880 C.3    78  ILE78       0.0019
     37  CD1      -15.3680    6.1920   41.1390 C.3    78  ILE78       0.0001
     38  N        -17.1430    8.0510   35.1140 N.3    99  GLN99      -0.1231
     39  CA       -17.0660    7.2370   36.3200 C.3    99  GLN99       0.1698
     40  C        -18.3850    7.2590   37.1140 C.2    99  GLN99       0.2592
     41  O        -19.2340    8.1300   36.8960 O.2    99  GLN99      -0.2718
     42  CB       -15.9690    7.8210   37.1780 C.3    99  GLN99       0.0381
     43  CG       -14.6200    7.9020   36.4360 C.3    99  GLN99       0.0905
     44  CD       -13.4920    8.3870   37.3120 C.2    99  GLN99       0.2608
     45  OE1      -13.6170    9.3740   38.0280 O.2    99  GLN99      -0.2717
     46  NE2      -12.4140    7.6530   37.3070 N.am   99  GLN99      -0.0878
     47  N        -18.5320    6.3140   38.0430 N.am  100  ASP100     -0.1960
     48  CA       -19.6870    6.2950   38.9220 C.3   100  ASP100      0.1840
     49  C        -19.7530    7.6330   39.6140 C.2   100  ASP100      0.2622
     50  O        -18.7270    8.2410   39.9650 O.2   100  ASP100     -0.2715
     51  CB       -19.5790    5.2010   40.0010 C.3   100  ASP100      0.1450
     52  CG       -19.6180    3.8160   39.4400 C.2   100  ASP100      0.3671
     53  OD1      -20.1310    3.6480   38.3200 O.co2 100  ASP100     -0.2456
     54  OD2      -19.1140    2.9010   40.1250 O.co2 100  ASP100     -0.2456
     55  N        -20.9730    8.0750   39.8260 N.am  101  LEU101     -0.1963
     56  CA       -21.2120    9.3340   40.4760 C.3   101  LEU101      0.1728
     57  C        -21.0770    9.1550   41.9770 C.2   101  LEU101      0.2616
     58  O        -21.8110    8.3940   42.6100 O.2   101  LEU101     -0.2715
     59  CB       -22.6060    9.8620   40.1460 C.3   101  LEU101      0.0311
     60  CG       -22.9600   11.1780   40.8430 C.3   101  LEU101      0.0022
     61  CD1      -22.0110   12.2870   40.4550 C.3   101  LEU101      0.0001
     62  CD2      -24.4110   11.5920   40.5210 C.3   101  LEU101      0.0001
     63  N        -20.1160    9.8720   42.5170 N.am  102  MET102     -0.1977
     64  CA       -19.8460    9.8310   43.9300 C.3   102  MET102      0.1605
     65  C        -20.1400   11.2230   44.4010 C.2   102  MET102      0.2287
     66  O        -19.5320   12.1770   43.9350 O.2   102  MET102     -0.2864
     67  CB       -18.3890    9.4680   44.1670 C.3   102  MET102      0.0413
     68  CG       -17.9830    8.1690   43.5050 C.3   102  MET102      0.0598
     69  SD       -18.7900    6.7010   44.1880 S.3   102  MET102     -0.1393
     70  CE       -17.9440    6.5780   45.7570 C.3   102  MET102      0.0692
     71  N        -14.2540   17.1010   51.7520 N.3   108  LYS108     -0.1245
     72  CA       -15.4680   17.8980   51.9020 C.3   108  LYS108      0.1561
     73  C        -16.2640   17.4820   53.1290 C.2   108  LYS108      0.2260
     74  O        -16.7830   18.3280   53.8520 O.2   108  LYS108     -0.2867
     75  CB       -16.3480   17.7660   50.6510 C.3   108  LYS108      0.0271
     76  CG       -15.7880   18.4870   49.4180 C.3   108  LYS108      0.0035
     77  CD       -16.7890   18.5350   48.2300 C.3   108  LYS108      0.0206
     78  CE       -16.7750   17.2180   47.4410 C.3   108  LYS108      0.1093
     79  NZ       -17.0110   17.3620   45.9620 N.3   108  LYS108     -0.1314
     80  N        -13.3270    9.0990   47.5840 N.3   150  LEU150     -0.1245
     81  CA       -14.6780    9.4830   47.1910 C.3   150  LEU150      0.1561
     82  C        -15.6780    8.6770   47.9770 C.2   150  LEU150      0.2260
     83  O        -15.4270    7.5290   48.3140 O.2   150  LEU150     -0.2867
     84  CB       -14.8830    9.2340   45.7100 C.3   150  LEU150      0.0270
     85  CG       -13.9140    9.9430   44.7590 C.3   150  LEU150      0.0019
     86  CD1      -14.0900    9.3820   43.3260 C.3   150  LEU150      0.0001
     87  CD2      -14.1080   11.4370   44.7740 C.3   150  LEU150      0.0001
@<TRIPOS>BOND
     1    24    23    2
     2    23    22    1
     3    21    22    1
     4    22    25    1
     5    25    26    1
     6    19    18    2
     7    38    39    1
     8    18    17    1
     9     9    10    1
    10    26    27    1
    11    10    11    1
    12    10    13    1
    13    11    12    2
    14    28    29    1
    15    28    27    1
    16    39    40    1
    17    39    42    1
    18    43    42    1
    19    43    44    1
    20    16    17    1
    21    17    20    1
    22    41    40    2
    23    40    47   am
    24    46    44   am
    25    44    45    2
    26    13    15    1
    27    13    14    1
    28    47    48    1
    29    53    52   ar
    30     1     2    1
    31    48    49    1
    32    48    51    1
    33    52    51    1
    34    52    54   ar
    35    33    32    2
    36    49    55   am
    37    49    50    2
    38     8     6    1
    39     6     5    1
    40    55    56    1
    41    32    31    1
    42     2     5    1
    43     2     3    1
    44     5     7    1
    45    59    56    1
    46    59    60    1
    47    35    37    1
    48    35    34    1
    49    61    60    1
    50    56    57    1
    51    36    34    1
    52    62    60    1
    53     3     4    2
    54    34    31    1
    55    31    30    1
    56    57    63   am
    57    57    58    2
    58    63    64    1
    59    86    85    1
    60    68    67    1
    61    68    69    1
    62    64    67    1
    63    64    65    1
    64    66    65    2
    65    69    70    1
    66    85    87    1
    67    85    84    1
    68    84    81    1
    69    79    78    1
    70    81    80    1
    71    81    82    1
    72    78    77    1
    73    82    83    2
    74    77    76    1
    75    76    75    1
    76    75    72    1
    77    71    72    1
    78    72    73    1
    79    73    74    2
