@<TRIPOS>MOLECULE
tmp/4zxwB02.pdb
 104 100 0 0 0
SMALL
GASTEIGER

@<TRIPOS>ATOM
      1  N        -39.6160  -16.7920    9.3190 N.3    98  ARG98      -0.1245
      2  CA       -39.2210  -16.2210    8.0440 C.3    98  ARG98       0.1563
      3  C        -38.4410  -14.9080    8.1630 C.2    98  ARG98       0.2260
      4  O        -37.4310  -14.7160    7.4780 O.2    98  ARG98      -0.2867
      5  CB       -40.4410  -15.9890    7.1770 C.3    98  ARG98       0.0307
      6  CG       -40.0780  -15.5300    5.8030 C.3    98  ARG98       0.0489
      7  CD       -41.0020  -16.0780    4.7820 C.3    98  ARG98       0.2205
      8  NE       -40.6850  -15.5130    3.4890 N.pl3  98  ARG98      -0.0865
      9  CZ       -41.5180  -15.4860    2.4660 C.cat  98  ARG98       0.5346
     10  NH1      -42.7410  -15.9880    2.5990 N.pl3  98  ARG98       0.1354
     11  NH2      -41.1210  -14.9410    1.3290 N.pl3  98  ARG98       0.1354
     12  N        -34.8360  -13.9150    6.8140 N.3   102  GLU102     -0.1245
     13  CA       -34.5330  -12.6970    6.0530 C.3   102  GLU102      0.1567
     14  C        -33.4280  -11.8820    6.7130 C.2   102  GLU102      0.2260
     15  O        -32.5590  -11.3800    6.0260 O.2   102  GLU102     -0.2867
     16  CB       -35.7860  -11.8390    5.8650 C.3   102  GLU102      0.0388
     17  CG       -36.8030  -12.5410    4.9100 C.3   102  GLU102      0.1160
     18  CD       -38.1550  -11.8550    4.8570 C.2   102  GLU102      0.3649
     19  OE1      -38.6180  -11.3040    5.8910 O.co2 102  GLU102     -0.2457
     20  OE2      -38.7610  -11.8620    3.7650 O.co2 102  GLU102     -0.2457
     21  N        -30.2170  -13.7150    5.9920 N.3   105  ASN105     -0.1240
     22  CA       -29.7920  -13.5280    4.6020 C.3   105  ASN105      0.1653
     23  C        -29.2150  -12.1450    4.4080 C.2   105  ASN105      0.2266
     24  O        -28.2350  -11.9910    3.6700 O.2   105  ASN105     -0.2867
     25  CB       -30.9510  -13.7580    3.6050 C.3   105  ASN105      0.1155
     26  CG       -31.0930  -15.2680    3.1960 C.2   105  ASN105      0.2627
     27  OD1      -30.4000  -16.1300    3.7280 O.2   105  ASN105     -0.2716
     28  ND2      -31.9870  -15.5570    2.2830 N.am  105  ASN105     -0.0877
     29  N        -23.9260  -17.8280   -4.6870 N.3   226  ALA226     -0.1231
     30  CA       -25.3130  -18.0890   -4.3040 C.3   226  ALA226      0.1694
     31  C        -25.3620  -19.3920   -3.5290 C.2   226  ALA226      0.2592
     32  O        -24.4430  -20.1960   -3.6410 O.2   226  ALA226     -0.2718
     33  CB       -26.2220  -18.1700   -5.5110 C.3   226  ALA226      0.0304
     34  N        -26.4450  -19.5900   -2.7780 N.am  227  TRP227     -0.1962
     35  CA       -26.5960  -20.7080   -1.8850 C.3   227  TRP227      0.1771
     36  C        -28.0170  -21.1880   -2.0310 C.2   227  TRP227      0.2619
     37  O        -28.9360  -20.4680   -1.7030 O.2   227  TRP227     -0.2715
     38  CB       -26.2990  -20.3280   -0.4230 C.3   227  TRP227      0.0590
     39  CG       -24.8890  -19.9140   -0.1700 C.ar  227  TRP227      0.0006
     40  CD1      -24.3850  -18.6700   -0.3300 C.ar  227  TRP227      0.0946
     41  CD2      -23.8000  -20.7270    0.2980 C.ar  227  TRP227      0.0152
     42  NE1      -23.0450  -18.6430    0.0150 N.ar  227  TRP227     -0.2442
     43  CE2      -22.6660  -19.8950    0.4020 C.ar  227  TRP227      0.0810
     44  CE3      -23.6680  -22.0700    0.6370 C.ar  227  TRP227      0.0012
     45  CZ2      -21.4170  -20.3700    0.8190 C.ar  227  TRP227      0.0191
     46  CZ3      -22.4390  -22.5280    1.0470 C.ar  227  TRP227      0.0001
     47  CH2      -21.3280  -21.6840    1.1360 C.ar  227  TRP227      0.0015
     48  N        -28.2070  -22.4220   -2.5070 N.am  228  GLN228     -0.1977
     49  CA       -29.5610  -22.9780   -2.5490 C.3   228  GLN228      0.1601
     50  C        -29.7210  -23.9220   -1.3670 C.2   228  GLN228      0.2287
     51  O        -28.9460  -24.8660   -1.2020 O.2   228  GLN228     -0.2864
     52  CB       -29.8450  -23.6930   -3.8760 C.3   228  GLN228      0.0394
     53  CG       -29.9480  -22.7220   -5.0750 C.3   228  GLN228      0.0908
     54  CD       -30.2780  -23.3880   -6.4090 C.2   228  GLN228      0.2608
     55  OE1      -31.0980  -24.3120   -6.5040 O.2   228  GLN228     -0.2717
     56  NE2      -29.6390  -22.8950   -7.4610 N.am  228  GLN228     -0.0878
     57  N        -35.1250  -20.2790    3.1340 N.3   381  LEU381     -0.1231
     58  CA       -34.7980  -19.2600    2.1410 C.3   381  LEU381      0.1693
     59  C        -33.3930  -19.3720    1.6230 C.2   381  LEU381      0.2593
     60  O        -32.4330  -19.3460    2.3980 O.2   381  LEU381     -0.2718
     61  CB       -34.9470  -17.8550    2.7070 C.3   381  LEU381      0.0284
     62  CG       -36.2930  -17.3490    3.1950 C.3   381  LEU381      0.0019
     63  CD1      -36.0450  -15.9370    3.6870 C.3   381  LEU381      0.0001
     64  CD2      -37.3130  -17.3800    2.1050 C.3   381  LEU381      0.0001
     65  N        -33.2840  -19.4030    0.3000 N.am  382  SER382     -0.1938
     66  CA       -31.9940  -19.3740   -0.3850 C.3   382  SER382      0.2055
     67  C        -31.4700  -17.9420   -0.5500 C.2   382  SER382      0.2643
     68  O        -32.1550  -16.9810   -0.2140 O.2   382  SER382     -0.2714
     69  CB       -32.1240  -20.0460   -1.7360 C.3   382  SER382      0.2130
     70  OG       -32.3210  -21.4260   -1.5650 O.3   382  SER382     -0.2179
     71  N        -30.2730  -17.8140   -1.1070 N.am  383  GLN383     -0.1963
     72  CA       -29.5170  -16.5520   -1.0920 C.3   383  GLN383      0.1733
     73  C        -28.7840  -16.3070   -2.4340 C.2   383  GLN383      0.2616
     74  O        -27.9650  -17.1230   -2.8350 O.2   383  GLN383     -0.2715
     75  CB       -28.5360  -16.6280    0.0960 C.3   383  GLN383      0.0408
     76  CG       -27.3320  -15.7400    0.0790 C.3   383  GLN383      0.0908
     77  CD       -27.6370  -14.3090    0.3940 C.2   383  GLN383      0.2608
     78  OE1      -27.8510  -13.4740   -0.5040 O.2   383  GLN383     -0.2717
     79  NE2      -27.6200  -13.9970    1.6840 N.am  383  GLN383     -0.0878
     80  N        -29.0680  -15.2100   -3.1340 N.am  384  ALA384     -0.1977
     81  CA       -28.4640  -14.9710   -4.4490 C.3   384  ALA384      0.1597
     82  C        -27.0230  -14.4740   -4.3550 C.2   384  ALA384      0.2287
     83  O        -26.2460  -14.6830   -5.2820 O.2   384  ALA384     -0.2864
     84  CB       -29.3130  -13.9500   -5.2730 C.3   384  ALA384      0.0319
     85  N        -22.3790  -22.0990   -4.8240 N.3   411  TYR411     -0.1241
     86  CA       -21.6180  -22.0450   -6.0160 C.3   411  TYR411      0.1605
     87  C        -21.4170  -20.5920   -6.4270 C.2   411  TYR411      0.2264
     88  O        -22.1400  -19.7050   -5.9830 O.2   411  TYR411     -0.2867
     89  CB       -22.3530  -22.8000   -7.1420 C.3   411  TYR411      0.0534
     90  CG       -23.7580  -22.3110   -7.2810 C.ar  411  TYR411     -0.0201
     91  CD1      -24.7610  -22.8140   -6.4880 C.ar  411  TYR411     -0.0009
     92  CD2      -24.0780  -21.3090   -8.1780 C.ar  411  TYR411     -0.0009
     93  CE1      -26.0590  -22.3440   -6.6050 C.ar  411  TYR411      0.0417
     94  CE2      -25.3550  -20.8620   -8.3080 C.ar  411  TYR411      0.0417
     95  CZ       -26.3460  -21.3720   -7.5250 C.ar  411  TYR411      0.1957
     96  OH       -27.6310  -20.8900   -7.6430 O.3   411  TYR411     -0.2866
     97  N        -28.2580  -20.5890  -11.8810 N.3   418  ASP418     -0.1239
     98  CA       -29.1230  -21.0600  -10.8090 C.3   418  ASP418      0.1674
     99  C        -29.8250  -22.3790  -11.1780 C.2   418  ASP418      0.2266
    100  O        -29.8740  -23.3170  -10.3910 O.2   418  ASP418     -0.2867
    101  CB       -30.1650  -20.0070  -10.4890 C.3   418  ASP418      0.1410
    102  CG       -29.5630  -18.7310   -9.8910 C.2   418  ASP418      0.3668
    103  OD1      -28.4340  -18.7840   -9.3480 O.co2 418  ASP418     -0.2456
    104  OD2      -30.2450  -17.6750   -9.9560 O.co2 418  ASP418     -0.2456
@<TRIPOS>BOND
     1    97    98    1
     2    99    98    1
     3    99   100    2
     4    98   101    1
     5   101   102    1
     6   104   102   ar
     7   102   103   ar
     8    94    92   ar
     9    94    95   ar
    10    92    90   ar
    11    96    95    1
    12    95    93   ar
    13    56    54   am
    14    90    89    1
    15    90    91   ar
    16    89    86    1
    17    93    91   ar
    18    55    54    2
    19    87    86    1
    20    87    88    2
    21    54    53    1
    22    86    85    1
    23    33    30    1
    24    83    82    2
    25    84    81    1
    26    53    52    1
    27    29    30    1
    28    81    82    1
    29    81    80    1
    30    30    31    1
    31    52    49    1
    32    32    31    2
    33    31    34   am
    34    80    73   am
    35    74    73    2
    36    34    35    1
    37    49    48    1
    38    49    50    1
    39    48    36   am
    40    73    72    1
    41    36    35    1
    42    36    37    2
    43    35    38    1
    44    69    70    1
    45    69    66    1
    46    50    51    2
    47    71    72    1
    48    71    67   am
    49    72    75    1
    50    67    66    1
    51    67    68    2
    52    78    77    2
    53    38    39    1
    54    66    65    1
    55    40    39   ar
    56    40    42   ar
    57    39    41   ar
    58    42    43   ar
    59    76    75    1
    60    76    77    1
    61    41    43   ar
    62    41    44   ar
    63    65    59   am
    64    77    79   am
    65    43    45   ar
    66    44    46   ar
    67    45    47   ar
    68    46    47   ar
    69    11     9    1
    70    59    58    1
    71    59    60    2
    72    64    62    1
    73    58    61    1
    74    58    57    1
    75    28    26   am
    76     9    10    1
    77     9     8    2
    78    61    62    1
    79    62    63    1
    80    26    25    1
    81    26    27    2
    82     8     7    1
    83    25    22    1
    84    24    23    2
    85    20    18   ar
    86    23    22    1
    87    22    21    1
    88     7     6    1
    89    18    17    1
    90    18    19   ar
    91    17    16    1
    92     6     5    1
    93    16    13    1
    94    15    14    2
    95    13    14    1
    96    13    12    1
    97     5     2    1
    98     4     3    2
    99     2     3    1
   100     2     1    1
