@<TRIPOS>MOLECULE
tmp/4zxwA00.pdb
 180 177 0 0 0
SMALL
GASTEIGER

@<TRIPOS>ATOM
      1  N        -36.2840   20.2240   -6.2160 N.3     6  HIS6       -0.1241
      2  CA       -34.9510   19.9490   -5.7260 C.3     6  HIS6        0.1621
      3  C        -34.4320   18.5930   -6.2340 C.2     6  HIS6        0.2264
      4  O        -33.2710   18.4810   -6.6200 O.2     6  HIS6       -0.2867
      5  CB       -34.8980   19.9790   -4.2040 C.3     6  HIS6        0.0745
      6  CG       -33.5720   19.5480   -3.6630 C.ar    6  HIS6        0.0817
      7  ND1      -32.4260   20.3060   -3.8040 N.ar    6  HIS6       -0.2268
      8  CD2      -33.1900   18.4000   -3.0550 C.ar    6  HIS6        0.1154
      9  CE1      -31.4060   19.6630   -3.2620 C.ar    6  HIS6        0.1986
     10  NE2      -31.8460   18.5070   -2.7940 N.ar    6  HIS6       -0.2212
     11  N        -33.4100   19.0400   -9.7240 N.3     9  PHE9       -0.1227
     12  CA       -32.0950   19.6600   -9.7280 C.3     9  PHE9        0.1736
     13  C        -31.0060   18.5660   -9.6000 C.2     9  PHE9        0.2595
     14  O        -30.0280   18.5690  -10.3480 O.2     9  PHE9       -0.2718
     15  CB       -31.9780   20.6920   -8.5930 C.3     9  PHE9        0.0547
     16  CG       -30.5630   21.0070   -8.2220 C.ar    9  PHE9       -0.0202
     17  CD1      -29.7830   21.8230   -9.0450 C.ar    9  PHE9       -0.0042
     18  CD2      -30.0040   20.5050   -7.0610 C.ar    9  PHE9       -0.0042
     19  CE1      -28.4650   22.1120   -8.7110 C.ar    9  PHE9       -0.0003
     20  CE2      -28.6930   20.7920   -6.7230 C.ar    9  PHE9       -0.0003
     21  CZ       -27.9280   21.5970   -7.5500 C.ar    9  PHE9       -0.0000
     22  N        -31.1800   17.6410   -8.6540 N.am   10  LEU10      -0.1980
     23  CA       -30.2050   16.5690   -8.4370 C.3    10  LEU10       0.1596
     24  C        -30.0460   15.6620   -9.6630 C.2    10  LEU10       0.2287
     25  O        -28.9290   15.2360   -9.9660 O.2    10  LEU10      -0.2864
     26  CB       -30.6010   15.7080   -7.2280 C.3    10  LEU10       0.0297
     27  CG       -30.5950   16.3560   -5.8490 C.3    10  LEU10       0.0022
     28  CD1      -31.0750   15.3180   -4.7930 C.3    10  LEU10       0.0001
     29  CD2      -29.2120   16.8760   -5.4840 C.3    10  LEU10       0.0001
     30  N        -27.4770   16.3760  -11.8930 N.3    13  PHE13      -0.1241
     31  CA       -26.1460   16.0320  -11.4180 C.3    13  PHE13       0.1605
     32  C        -25.9990   14.5500  -11.2110 C.2    13  PHE13       0.2264
     33  O        -25.1280   14.1150  -10.4670 O.2    13  PHE13      -0.2867
     34  CB       -25.8370   16.7630  -10.1170 C.3    13  PHE13       0.0534
     35  CG       -25.4970   18.1910  -10.3240 C.ar   13  PHE13      -0.0203
     36  CD1      -24.1800   18.5790  -10.5120 C.ar   13  PHE13      -0.0042
     37  CD2      -26.4890   19.1470  -10.4060 C.ar   13  PHE13      -0.0042
     38  CE1      -23.8590   19.9110  -10.7310 C.ar   13  PHE13      -0.0003
     39  CE2      -26.1730   20.4590  -10.6400 C.ar   13  PHE13      -0.0003
     40  CZ       -24.8540   20.8390  -10.8060 C.ar   13  PHE13      -0.0000
     41  N        -24.7640    9.7150   -0.7710 N.3    29  TYR29      -0.1241
     42  CA       -25.3460   11.0590   -0.7560 C.3    29  TYR29       0.1605
     43  C        -26.2770   11.1350    0.4620 C.2    29  TYR29       0.2264
     44  O        -27.5020   10.9870    0.3720 O.2    29  TYR29      -0.2867
     45  CB       -26.0820   11.3790   -2.0720 C.3    29  TYR29       0.0534
     46  CG       -26.6130   12.7860   -2.1420 C.ar   29  TYR29      -0.0201
     47  CD1      -25.7420   13.8690   -2.2590 C.ar   29  TYR29      -0.0009
     48  CD2      -27.9730   13.0510   -2.1010 C.ar   29  TYR29      -0.0009
     49  CE1      -26.2010   15.1580   -2.3090 C.ar   29  TYR29       0.0417
     50  CE2      -28.4470   14.4080   -2.1780 C.ar   29  TYR29       0.0417
     51  CZ       -27.5470   15.4390   -2.2780 C.ar   29  TYR29       0.1957
     52  OH       -27.9610   16.7870   -2.3260 O.3    29  TYR29      -0.2866
     53  N        -29.8050   12.0990    1.5740 N.3   140  HIS140     -0.1241
     54  CA       -29.9150   13.5590    1.4830 C.3   140  HIS140      0.1621
     55  C        -30.9870   13.9450    0.4360 C.2   140  HIS140      0.2264
     56  O        -31.3420   15.1070    0.3170 O.2   140  HIS140     -0.2867
     57  CB       -28.5210   14.1380    1.1890 C.3   140  HIS140      0.0745
     58  CG       -28.4050   15.6250    1.3070 C.ar  140  HIS140      0.0817
     59  ND1      -29.3320   16.4130    1.9660 N.ar  140  HIS140     -0.2268
     60  CD2      -27.4370   16.4670    0.8770 C.ar  140  HIS140      0.1154
     61  CE1      -28.9470   17.6750    1.9130 C.ar  140  HIS140      0.1986
     62  NE2      -27.7970   17.7360    1.2600 N.ar  140  HIS140     -0.2212
     63  N        -13.7620   16.0120    3.1330 N.3   227  TRP227     -0.1241
     64  CA       -14.3340   17.1270    3.8840 C.3   227  TRP227      0.1605
     65  C        -13.2780   17.6200    4.8160 C.2   227  TRP227      0.2264
     66  O        -12.8450   16.8750    5.6890 O.2   227  TRP227     -0.2867
     67  CB       -15.5580   16.7000    4.6770 C.3   227  TRP227      0.0550
     68  CG       -16.6940   16.3000    3.7950 C.ar  227  TRP227      0.0003
     69  CD1      -16.9220   15.0750    3.2980 C.ar  227  TRP227      0.0946
     70  CD2      -17.7520   17.1350    3.3070 C.ar  227  TRP227      0.0152
     71  NE1      -18.0690   15.0740    2.5290 N.ar  227  TRP227     -0.2442
     72  CE2      -18.5920   16.3310    2.5200 C.ar  227  TRP227      0.0810
     73  CE3      -18.0610   18.4830    3.4500 C.ar  227  TRP227      0.0012
     74  CZ2      -19.7260   16.8220    1.8930 C.ar  227  TRP227      0.0191
     75  CZ3      -19.1830   18.9660    2.8280 C.ar  227  TRP227      0.0001
     76  CH2      -20.0060   18.1350    2.0600 C.ar  227  TRP227      0.0015
     77  N        -27.0530   27.5750   -1.5780 N.3   277  PHE277     -0.1241
     78  CA       -28.3150   26.9040   -1.3340 C.3   277  PHE277      0.1605
     79  C        -29.1380   27.7210   -0.3700 C.2   277  PHE277      0.2264
     80  O        -28.6810   27.9870    0.7210 O.2   277  PHE277     -0.2867
     81  CB       -28.0860   25.5060   -0.7610 C.3   277  PHE277      0.0534
     82  CG       -27.7550   24.4990   -1.7810 C.ar  277  PHE277     -0.0203
     83  CD1      -28.7220   24.0660   -2.6880 C.ar  277  PHE277     -0.0042
     84  CD2      -26.4770   23.9690   -1.8530 C.ar  277  PHE277     -0.0042
     85  CE1      -28.4260   23.0800   -3.6320 C.ar  277  PHE277     -0.0003
     86  CE2      -26.1670   22.9960   -2.8160 C.ar  277  PHE277     -0.0003
     87  CZ       -27.1490   22.5550   -3.7070 C.ar  277  PHE277     -0.0000
     88  N        -33.9060   22.5110    0.1990 N.3   294  ILE294     -0.1245
     89  CA       -32.8980   23.5000   -0.1970 C.3   294  ILE294      0.1561
     90  C        -32.9260   23.7970   -1.7060 C.2   294  ILE294      0.2260
     91  O        -33.3240   22.9610   -2.5140 O.2   294  ILE294     -0.2867
     92  CB       -31.5110   23.0530    0.1910 C.3   294  ILE294      0.0252
     93  CG1      -31.2200   21.6730   -0.4280 C.3   294  ILE294      0.0019
     94  CG2      -31.3740   23.0710    1.7150 C.3   294  ILE294      0.0019
     95  CD1      -29.7860   21.2540   -0.2710 C.3   294  ILE294      0.0001
     96  N        -30.8680   25.6260   -5.0490 N.3   296  PHE296     -0.1241
     97  CA       -29.7010   26.1260   -5.7400 C.3   296  PHE296      0.1605
     98  C        -30.0280   27.5100   -6.2210 C.2   296  PHE296      0.2264
     99  O        -31.0040   27.6730   -6.9260 O.2   296  PHE296     -0.2867
    100  CB       -29.3850   25.2010   -6.9060 C.3   296  PHE296      0.0534
    101  CG       -27.9890   25.2870   -7.4310 C.ar  296  PHE296     -0.0203
    102  CD1      -26.9220   24.8470   -6.6820 C.ar  296  PHE296     -0.0042
    103  CD2      -27.7550   25.7280   -8.7280 C.ar  296  PHE296     -0.0042
    104  CE1      -25.6320   24.8850   -7.1910 C.ar  296  PHE296     -0.0003
    105  CE2      -26.4740   25.7680   -9.2360 C.ar  296  PHE296     -0.0003
    106  CZ       -25.4060   25.3390   -8.4620 C.ar  296  PHE296     -0.0000
    107  N        -17.6270   23.6320  -10.5460 N.3   351  ILE351     -0.1245
    108  CA       -18.2330   24.7750   -9.9010 C.3   351  ILE351      0.1561
    109  C        -18.1400   24.6340   -8.3930 C.2   351  ILE351      0.2260
    110  O        -17.9610   23.5230   -7.8730 O.2   351  ILE351     -0.2867
    111  CB       -19.6500   24.9420  -10.3210 C.3   351  ILE351      0.0252
    112  CG1      -20.4450   23.6920  -10.0270 C.3   351  ILE351      0.0019
    113  CG2      -19.7100   25.2380  -11.8160 C.3   351  ILE351      0.0019
    114  CD1      -21.8900   24.0050   -9.7980 C.3   351  ILE351      0.0001
    115  N        -19.9280   25.9510   -4.5700 N.3   353  VAL353     -0.1245
    116  CA       -21.1280   26.4410   -3.9390 C.3   353  VAL353      0.1561
    117  C        -20.6900   26.9660   -2.5870 C.2   353  VAL353      0.2260
    118  O        -19.8840   26.3540   -1.9060 O.2   353  VAL353     -0.2867
    119  CB       -22.1890   25.3080   -3.7870 C.3   353  VAL353      0.0252
    120  CG1      -23.3980   25.7820   -3.0570 C.3   353  VAL353      0.0019
    121  CG2      -22.5820   24.7140   -5.1330 C.3   353  VAL353      0.0019
    122  N        -22.4100   28.0770    1.0020 N.3   355  GLN355     -0.1245
    123  CA       -23.6830   28.0850    1.7320 C.3   355  GLN355      0.1566
    124  C        -23.5570   28.2960    3.2300 C.2   355  GLN355      0.2260
    125  O        -22.5600   27.9840    3.8620 O.2   355  GLN355     -0.2867
    126  CB       -24.4670   26.7670    1.5320 C.3   355  GLN355      0.0367
    127  CG       -23.9150   25.5860    2.3030 C.3   355  GLN355      0.0905
    128  CD       -24.7660   24.3100    2.1880 C.2   355  GLN355      0.2608
    129  OE1      -25.6900   24.2070    1.3700 O.2   355  GLN355     -0.2717
    130  NE2      -24.4410   23.3250    3.0280 N.am  355  GLN355     -0.0878
    131  N        -21.2510   12.2820   -0.2160 N.3   388  ASP388     -0.1225
    132  CA       -21.0110   12.6320   -1.5920 C.3   388  ASP388      0.1805
    133  C        -21.3590   14.0910   -1.9150 C.2   388  ASP388      0.2598
    134  O        -22.4000   14.5770   -1.5160 O.2   388  ASP388     -0.2718
    135  CB       -21.8260   11.7190   -2.4830 C.3   388  ASP388      0.1424
    136  CG       -21.5250   11.9260   -3.9510 C.2   388  ASP388      0.3668
    137  OD1      -20.5820   11.2720   -4.4670 O.co2 388  ASP388     -0.2456
    138  OD2      -22.2380   12.7360   -4.5870 O.co2 388  ASP388     -0.2456
    139  N        -20.4790   14.7700   -2.6440 N.am  389  ILE389     -0.1966
    140  CA       -20.8560   15.9940   -3.3720 C.3   389  ILE389      0.1712
    141  C        -21.0090   15.6220   -4.8450 C.2   389  ILE389      0.2458
    142  O        -20.0320   15.2130   -5.4950 O.2   389  ILE389     -0.2730
    143  CB       -19.8390   17.1300   -3.1760 C.3   389  ILE389      0.0289
    144  CG1      -19.9870   17.7370   -1.7850 C.3   389  ILE389      0.0022
    145  CG2      -20.1060   18.2710   -4.1830 C.3   389  ILE389      0.0023
    146  CD1      -18.7370   18.5040   -1.3510 C.3   389  ILE389      0.0001
    147  N        -22.2330   15.7330   -5.3790 N.am  390  PRO390     -0.2716
    148  CA       -22.4680   15.2200   -6.7280 C.3   390  PRO390      0.1536
    149  C        -21.3960   15.5990   -7.7620 C.2   390  PRO390      0.2599
    150  O        -20.9390   14.7300   -8.4940 O.2   390  PRO390     -0.2715
    151  CB       -23.8320   15.8290   -7.0820 C.3   390  PRO390      0.0310
    152  CG       -24.5430   15.8350   -5.8010 C.3   390  PRO390      0.0237
    153  CD       -23.4950   16.1670   -4.7530 C.3   390  PRO390      0.0939
    154  N        -20.9800   16.8500   -7.8220 N.am  391  ASP391     -0.1958
    155  CA       -20.0370   17.2430   -8.8710 C.3   391  ASP391      0.1843
    156  C        -19.6340   18.6990   -8.6630 C.2   391  ASP391      0.2662
    157  O        -20.1310   19.6050   -9.3480 O.2   391  ASP391     -0.2711
    158  CB       -20.6720   17.0290  -10.2650 C.3   391  ASP391      0.1450
    159  CG       -19.6380   16.9250  -11.3990 C.2   391  ASP391      0.3671
    160  OD1      -18.6240   17.6670  -11.3850 O.co2 391  ASP391     -0.2456
    161  OD2      -19.8630   16.0800  -12.3100 O.co2 391  ASP391     -0.2456
    162  N        -18.7230   18.9120   -7.7170 N.am  392  GLY392     -0.1716
    163  CA       -18.2810   20.2430   -7.3890 C.2   392  GLY392      0.1480
    164  C        -17.5590   20.3830   -6.0680 C.2   392  GLY392      0.2820
    165  O        -17.0330   19.4150   -5.5040 O.2   392  GLY392     -0.2669
    166  N        -17.5430   21.6210   -5.5900 N.am  393  VAL393     -0.1929
    167  CA       -16.8760   22.0010   -4.3730 C.3   393  VAL393      0.1730
    168  C        -17.9010   22.6820   -3.5040 C.2   393  VAL393      0.2616
    169  O        -18.6130   23.5780   -3.9670 O.2   393  VAL393     -0.2715
    170  CB       -15.6870   22.9060   -4.6790 C.3   393  VAL393      0.0290
    171  CG1      -15.0560   23.4350   -3.4180 C.3   393  VAL393      0.0023
    172  CG2      -14.6600   22.1510   -5.4800 C.3   393  VAL393      0.0023
    173  N        -17.9990   22.2570   -2.2520 N.am  394  LEU394     -0.1977
    174  CA       -18.9260   22.8940   -1.3280 C.3   394  LEU394      0.1596
    175  C        -18.2310   23.5190   -0.1230 C.2   394  LEU394      0.2287
    176  O        -17.5060   22.8560    0.6260 O.2   394  LEU394     -0.2864
    177  CB       -19.9580   21.8980   -0.8440 C.3   394  LEU394      0.0297
    178  CG       -21.0440   22.4650    0.1000 C.3   394  LEU394      0.0022
    179  CD1      -21.9130   23.3860   -0.6380 C.3   394  LEU394      0.0001
    180  CD2      -21.9220   21.3390    0.6440 C.3   394  LEU394      0.0001
@<TRIPOS>BOND
     1   161   159   ar
     2    30    31    1
     3   113   111    1
     4    31    32    1
     5    31    34    1
     6   159   160   ar
     7   159   158    1
     8    32    33    2
     9    40    38   ar
    10    40    39   ar
    11    38    36   ar
    12    39    37   ar
    13   107   108    1
    14    36    35   ar
    15    37    35   ar
    16    14    13    2
    17    35    34    1
    18   111   112    1
    19   111   108    1
    20   158   155    1
    21   112   114    1
    22    25    24    2
    23   108   109    1
    24    12    11    1
    25    12    13    1
    26    12    15    1
    27    24    23    1
    28    13    22   am
    29   157   156    2
    30   105   103   ar
    31   105   106   ar
    32    17    19   ar
    33    17    16   ar
    34   155   156    1
    35   155   154    1
    36   103   101   ar
    37    19    21   ar
    38   156   162    1
    39    22    23    1
    40    15    16    1
    41   150   149    2
    42   106   104   ar
    43    23    26    1
    44   109   110    2
    45    16    18   ar
    46   154   149   am
    47   149   148    1
    48   162   163    2
    49    21    20   ar
    50   101   100    1
    51   101   102   ar
    52   163   164    1
    53    26    27    1
    54   104   102   ar
    55   151   148    1
    56   151   152    1
    57    18    20   ar
    58    99    98    2
    59   100    97    1
    60   148   147    1
    61     4     3    2
    62     3     2    1
    63    98    97    1
    64     1     2    1
    65   164   166   am
    66   164   165    2
    67    27    29    1
    68    27    28    1
    69   152   153    1
    70    97    96    1
    71     2     5    1
    72   166   167    1
    73   142   141    2
    74   172   170    1
    75   147   141   am
    76   147   153    1
    77   121   119    1
    78   141   140    1
    79   170   167    1
    80   170   171    1
    81   138   136   ar
    82   115   116    1
    83   137   136   ar
    84   167   168    1
    85     5     6    1
    86   145   143    1
    87   169   168    2
    88   136   135    1
    89   116   119    1
    90   116   117    1
    91     7     6   ar
    92     7     9   ar
    93   119   120    1
    94    87    85   ar
    95    87    86   ar
    96     6     8   ar
    97    85    83   ar
    98   168   173   am
    99   140   143    1
   100   140   139    1
   101     9    10   ar
   102   143   144    1
   103     8    10   ar
   104    86    84   ar
   105    83    82   ar
   106   139   133   am
   107   117   118    2
   108    91    90    2
   109   135   132    1
   110    52    51    1
   111    49    51   ar
   112    49    47   ar
   113    51    50   ar
   114    47    46   ar
   115   173   174    1
   116    50    48   ar
   117    46    48   ar
   118    46    45    1
   119    45    42    1
   120   133   132    1
   121   133   134    2
   122    84    82   ar
   123   144   146    1
   124    82    81    1
   125    90    89    1
   126   132   131    1
   127    77    78    1
   128    78    81    1
   129    78    79    1
   130   174   177    1
   131   174   175    1
   132   177   178    1
   133    41    42    1
   134    42    43    1
   135   179   178    1
   136    93    95    1
   137    93    92    1
   138    79    80    2
   139    89    92    1
   140    89    88    1
   141   175   176    2
   142   178   180    1
   143    92    94    1
   144    56    55    2
   145    44    43    2
   146    55    54    1
   147    60    62   ar
   148    60    58   ar
   149   122   123    1
   150    57    58    1
   151    57    54    1
   152    62    61   ar
   153    58    59   ar
   154   129   128    2
   155    54    53    1
   156   126   123    1
   157   126   127    1
   158   123   124    1
   159    74    76   ar
   160    74    72   ar
   161    61    59   ar
   162    76    75   ar
   163   128   127    1
   164   128   130   am
   165    72    71   ar
   166    72    70   ar
   167    71    69   ar
   168    75    73   ar
   169    63    64    1
   170   124   125    2
   171    69    68   ar
   172    70    73   ar
   173    70    68   ar
   174    68    67    1
   175    64    67    1
   176    64    65    1
   177    65    66    2
