@<TRIPOS>MOLECULE
tmp/4zxwA01.pdb
 205 197 0 0 0
SMALL
GASTEIGER

@<TRIPOS>ATOM
      1  N        -25.6770   11.3340    1.6160 N.3    30  HIS30      -0.1226
      2  CA       -26.4490   11.3620    2.8590 C.3    30  HIS30       0.1752
      3  C        -26.0440   12.5700    3.6930 C.2    30  HIS30       0.2596
      4  O        -25.0880   13.2800    3.3630 O.2    30  HIS30      -0.2718
      5  CB       -26.2710   10.0560    3.6670 C.3    30  HIS30       0.0759
      6  CG       -24.8620    9.5260    3.6880 C.ar   30  HIS30       0.0818
      7  ND1      -23.7710   10.3060    4.0050 N.ar   30  HIS30      -0.2268
      8  CD2      -24.3690    8.2860    3.4330 C.ar   30  HIS30       0.1154
      9  CE1      -22.6700    9.5760    3.9440 C.ar   30  HIS30       0.1986
     10  NE2      -23.0060    8.3480    3.5960 N.ar   30  HIS30      -0.2212
     11  N        -26.7940   12.7920    4.7690 N.am   31  ILE31      -0.1966
     12  CA       -26.5680   13.9120    5.6680 C.3    31  ILE31       0.1727
     13  C        -26.6130   13.3060    7.0750 C.2    31  ILE31       0.2616
     14  O        -27.4200   12.4050    7.3280 O.2    31  ILE31      -0.2715
     15  CB       -27.6060   15.0180    5.4420 C.3    31  ILE31       0.0290
     16  CG1      -27.3870   16.1810    6.4110 C.3    31  ILE31       0.0022
     17  CG2      -29.0240   14.4580    5.6030 C.3    31  ILE31       0.0023
     18  CD1      -28.2310   17.4080    6.0930 C.3    31  ILE31       0.0001
     19  N        -25.7070   13.7480    7.9580 N.am   32  VAL32      -0.1963
     20  CA       -25.6960   13.3210    9.3580 C.3    32  VAL32       0.1727
     21  C        -26.0350   14.4670   10.3230 C.2    32  VAL32       0.2617
     22  O        -25.8270   15.6360   10.0270 O.2    32  VAL32      -0.2715
     23  CB       -24.3300   12.7150    9.7560 C.3    32  VAL32       0.0290
     24  CG1      -23.9870   11.5900    8.8420 C.3    32  VAL32       0.0023
     25  CG2      -23.2420   13.7640    9.6770 C.3    32  VAL32       0.0023
     26  N        -26.5560   14.0850   11.4790 N.am   33  GLY33      -0.1940
     27  CA       -26.7190   14.9600   12.6190 C.3    33  GLY33       0.2014
     28  C        -26.3050   14.1980   13.8770 C.2    33  GLY33       0.2638
     29  O        -26.6300   13.0120   14.0460 O.2    33  GLY33      -0.2714
     30  N        -25.5290   14.8680   14.7170 N.am   34  ALA34      -0.1977
     31  CA       -25.0660   14.3170   15.9750 C.3    34  ALA34       0.1597
     32  C        -25.5060   15.2040   17.1420 C.2    34  ALA34       0.2287
     33  O        -25.3540   16.4330   17.1040 O.2    34  ALA34      -0.2864
     34  CB       -23.5790   14.1680   15.9580 C.3    34  ALA34       0.0319
     35  N        -18.7540    9.7260   14.3260 N.3   104  LEU104     -0.1245
     36  CA       -19.5050   10.4750   13.3160 C.3   104  LEU104      0.1561
     37  C        -18.8880   10.2650   11.9440 C.2   104  LEU104      0.2260
     38  O        -19.5890   10.1210   10.9220 O.2   104  LEU104     -0.2867
     39  CB       -19.5200   11.9620   13.6750 C.3   104  LEU104      0.0270
     40  CG       -20.6620   12.8670   13.2520 C.3   104  LEU104      0.0019
     41  CD1      -21.9960   12.1800   13.3760 C.3   104  LEU104      0.0001
     42  CD2      -20.6240   14.1250   14.1360 C.3   104  LEU104      0.0001
     43  N        -20.5280    8.4870    8.6390 N.3   108  GLU108     -0.1245
     44  CA       -20.6310    9.2040    7.3720 C.3   108  GLU108      0.1567
     45  C        -19.8390    8.4720    6.2830 C.2   108  GLU108      0.2260
     46  O        -20.0750    8.6690    5.1020 O.2   108  GLU108     -0.2867
     47  CB       -20.1250   10.6650    7.5010 C.3   108  GLU108      0.0388
     48  CG       -20.3290   11.5450    6.2790 C.3   108  GLU108      0.1160
     49  CD       -19.8070   13.0030    6.4550 C.2   108  GLU108      0.3649
     50  OE1      -19.9940   13.5830    7.5700 O.co2 108  GLU108     -0.2457
     51  OE2      -19.2160   13.5480    5.4600 O.co2 108  GLU108     -0.2457
     52  N        -29.8050   12.0990    1.5740 N.3   140  HIS140     -0.1241
     53  CA       -29.9150   13.5590    1.4830 C.3   140  HIS140      0.1621
     54  C        -30.9870   13.9450    0.4360 C.2   140  HIS140      0.2264
     55  O        -31.3420   15.1070    0.3170 O.2   140  HIS140     -0.2867
     56  CB       -28.5210   14.1380    1.1890 C.3   140  HIS140      0.0745
     57  CG       -28.4050   15.6250    1.3070 C.ar  140  HIS140      0.0817
     58  ND1      -29.3320   16.4130    1.9660 N.ar  140  HIS140     -0.2268
     59  CD2      -27.4370   16.4670    0.8770 C.ar  140  HIS140      0.1154
     60  CE1      -28.9470   17.6750    1.9130 C.ar  140  HIS140      0.1986
     61  NE2      -27.7970   17.7360    1.2600 N.ar  140  HIS140     -0.2212
     62  N        -30.8420   19.8070    6.3230 N.3   145  ALA145     -0.1245
     63  CA       -30.3670   20.0230    7.6910 C.3   145  ALA145      0.1562
     64  C        -31.5190   20.3630    8.6190 C.2   145  ALA145      0.2260
     65  O        -31.6030   19.8890    9.7380 O.2   145  ALA145     -0.2867
     66  CB       -29.3660   21.1150    7.7220 C.3   145  ALA145      0.0290
     67  N        -13.7620   16.0120    3.1330 N.3   227  TRP227     -0.1241
     68  CA       -14.3340   17.1270    3.8840 C.3   227  TRP227      0.1605
     69  C        -13.2780   17.6200    4.8160 C.2   227  TRP227      0.2264
     70  O        -12.8450   16.8750    5.6890 O.2   227  TRP227     -0.2867
     71  CB       -15.5580   16.7000    4.6770 C.3   227  TRP227      0.0550
     72  CG       -16.6940   16.3000    3.7950 C.ar  227  TRP227      0.0003
     73  CD1      -16.9220   15.0750    3.2980 C.ar  227  TRP227      0.0946
     74  CD2      -17.7520   17.1350    3.3070 C.ar  227  TRP227      0.0152
     75  NE1      -18.0690   15.0740    2.5290 N.ar  227  TRP227     -0.2442
     76  CE2      -18.5920   16.3310    2.5200 C.ar  227  TRP227      0.0810
     77  CE3      -18.0610   18.4830    3.4500 C.ar  227  TRP227      0.0012
     78  CZ2      -19.7260   16.8220    1.8930 C.ar  227  TRP227      0.0191
     79  CZ3      -19.1830   18.9660    2.8280 C.ar  227  TRP227      0.0001
     80  CH2      -20.0060   18.1350    2.0600 C.ar  227  TRP227      0.0015
     81  N        -12.5520   20.1010    7.7140 N.3   229  ARG229     -0.1231
     82  CA       -13.4650   20.7090    8.6610 C.3   229  ARG229      0.1694
     83  C        -12.6810   21.7530    9.4130 C.2   229  ARG229      0.2592
     84  O        -11.4770   21.6220    9.5620 O.2   229  ARG229     -0.2718
     85  CB       -14.0590   19.6450    9.5820 C.3   229  ARG229      0.0321
     86  CG       -14.8040   18.5790    8.7580 C.3   229  ARG229      0.0489
     87  CD       -15.9450   17.9630    9.5000 C.3   229  ARG229      0.2205
     88  NE       -16.8010   17.1970    8.6000 N.pl3 229  ARG229     -0.0865
     89  CZ       -16.6600   15.9000    8.3430 C.cat 229  ARG229      0.5346
     90  NH1      -15.7030   15.1980    8.9180 N.pl3 229  ARG229      0.1354
     91  NH2      -17.4780   15.2990    7.5010 N.pl3 229  ARG229      0.1354
     92  N        -13.3510   22.8130    9.8280 N.am  230  PHE230     -0.1976
     93  CA       -12.6950   23.8800   10.5710 C.3   230  PHE230      0.1639
     94  C        -13.6940   24.6280   11.4230 C.2   230  PHE230      0.2290
     95  O        -14.8960   24.5900   11.1670 O.2   230  PHE230     -0.2864
     96  CB       -12.0080   24.8680    9.6440 C.3   230  PHE230      0.0560
     97  CG       -12.9290   25.5010    8.6480 C.ar  230  PHE230     -0.0200
     98  CD1      -13.2460   24.8410    7.4670 C.ar  230  PHE230     -0.0042
     99  CD2      -13.4910   26.7380    8.8850 C.ar  230  PHE230     -0.0042
    100  CE1      -14.0980   25.4250    6.5220 C.ar  230  PHE230     -0.0003
    101  CE2      -14.3420   27.3040    7.9630 C.ar  230  PHE230     -0.0003
    102  CZ       -14.6530   26.6330    6.7740 C.ar  230  PHE230     -0.0000
    103  N        -22.4100   28.0770    1.0020 N.3   355  GLN355     -0.1245
    104  CA       -23.6830   28.0850    1.7320 C.3   355  GLN355      0.1566
    105  C        -23.5570   28.2960    3.2300 C.2   355  GLN355      0.2260
    106  O        -22.5600   27.9840    3.8620 O.2   355  GLN355     -0.2867
    107  CB       -24.4670   26.7670    1.5320 C.3   355  GLN355      0.0367
    108  CG       -23.9150   25.5860    2.3030 C.3   355  GLN355      0.0905
    109  CD       -24.7660   24.3100    2.1880 C.2   355  GLN355      0.2608
    110  OE1      -25.6900   24.2070    1.3700 O.2   355  GLN355     -0.2717
    111  NE2      -24.4410   23.3250    3.0280 N.am  355  GLN355     -0.0878
    112  N        -25.6790   26.8310    6.4250 N.3   357  VAL357     -0.1245
    113  CA       -26.6440   25.8260    6.8490 C.3   357  VAL357      0.1561
    114  C        -27.8780   26.4650    7.4540 C.2   357  VAL357      0.2260
    115  O        -27.7720   27.2700    8.3730 O.2   357  VAL357     -0.2867
    116  CB       -26.0130   24.8840    7.8530 C.3   357  VAL357      0.0252
    117  CG1      -27.0440   23.8350    8.3160 C.3   357  VAL357      0.0019
    118  CG2      -24.7810   24.2610    7.2370 C.3   357  VAL357      0.0019
    119  N        -27.1370   19.9410   19.8230 N.3   375  LYS375     -0.1231
    120  CA       -26.5790   19.5880   18.5470 C.3   375  LYS375      0.1693
    121  C        -25.0700   19.7660   18.5730 C.2   375  LYS375      0.2592
    122  O        -24.5590   20.7020   19.1640 O.2   375  LYS375     -0.2718
    123  CB       -27.2350   20.4440   17.4450 C.3   375  LYS375      0.0285
    124  CG       -26.7760   20.1920   16.0250 C.3   375  LYS375      0.0035
    125  CD       -26.8410   18.7450   15.6270 C.3   375  LYS375      0.0206
    126  CE       -27.0780   18.5530   14.1370 C.3   375  LYS375      0.1093
    127  NZ       -26.3220   19.4780   13.2520 N.3   375  LYS375     -0.1314
    128  N        -24.3660   18.8750   17.8920 N.am  376  ILE376     -0.1966
    129  CA       -22.9370   19.0140   17.7170 C.3   376  ILE376      0.1727
    130  C        -22.6920   19.6640   16.3530 C.2   376  ILE376      0.2616
    131  O        -23.0150   19.0720   15.3310 O.2   376  ILE376     -0.2715
    132  CB       -22.2440   17.6620   17.8360 C.3   376  ILE376      0.0290
    133  CG1      -22.3460   17.1580   19.2710 C.3   376  ILE376      0.0022
    134  CG2      -20.7740   17.7580   17.4780 C.3   376  ILE376      0.0023
    135  CD1      -21.9960   15.6940   19.4110 C.3   376  ILE376      0.0001
    136  N        -22.1590   20.8910   16.3410 N.am  377  TRP377     -0.1974
    137  CA       -21.8510   21.5780   15.0770 C.3   377  TRP377      0.1640
    138  C        -20.3790   21.5570   14.7500 C.2   377  TRP377      0.2290
    139  O        -19.9980   21.3470   13.5950 O.2   377  TRP377     -0.2864
    140  CB       -22.3080   23.0400   15.0970 C.3   377  TRP377      0.0576
    141  CG       -23.7610   23.1690   14.9410 C.ar  377  TRP377      0.0006
    142  CD1      -24.6540   23.5750   15.8930 C.ar  377  TRP377      0.0946
    143  CD2      -24.5260   22.8860   13.7600 C.ar  377  TRP377      0.0152
    144  NE1      -25.9290   23.5600   15.3800 N.ar  377  TRP377     -0.2442
    145  CE2      -25.8810   23.1410   14.0740 C.ar  377  TRP377      0.0810
    146  CE3      -24.1970   22.4400   12.4650 C.ar  377  TRP377      0.0012
    147  CZ2      -26.9090   22.9610   13.1510 C.ar  377  TRP377      0.0191
    148  CZ3      -25.2230   22.2660   11.5380 C.ar  377  TRP377      0.0001
    149  CH2      -26.5640   22.5230   11.8890 C.ar  377  TRP377      0.0015
    150  N        -17.1140   20.1450   14.3060 N.3   379  ARG379     -0.1245
    151  CA       -16.3500   18.9190   14.1430 C.3   379  ARG379      0.1563
    152  C        -15.0200   19.3510   13.6380 C.2   379  ARG379      0.2260
    153  O        -14.9430   20.0580   12.6430 O.2   379  ARG379     -0.2867
    154  CB       -16.9960   17.9540   13.1520 C.3   379  ARG379      0.0307
    155  CG       -18.3740   17.5610   13.5130 C.3   379  ARG379      0.0489
    156  CD       -19.0850   16.9670   12.3340 C.3   379  ARG379      0.2205
    157  NE       -18.5080   15.7400   11.8010 N.pl3 379  ARG379     -0.0865
    158  CZ       -18.9470   15.1690   10.6770 C.cat 379  ARG379      0.5346
    159  NH1      -19.9180   15.7500    9.9710 N.pl3 379  ARG379      0.1354
    160  NH2      -18.4130   14.0290   10.2370 N.pl3 379  ARG379      0.1354
    161  N        -19.6630   12.0520    2.9170 N.3   387  SER387     -0.1217
    162  CA       -20.8750   12.2620    2.1310 C.3   387  SER387      0.1889
    163  C        -20.5280   12.7850    0.7690 C.2   387  SER387      0.2288
    164  O        -19.6240   13.6070    0.6150 O.2   387  SER387     -0.2866
    165  CB       -21.8100   13.2430    2.7940 C.3   387  SER387      0.2089
    166  OG       -22.1650   12.8030    4.0740 O.3   387  SER387     -0.2183
    167  N        -17.9990   22.2570   -2.2520 N.3   394  LEU394     -0.1245
    168  CA       -18.9260   22.8940   -1.3280 C.3   394  LEU394      0.1561
    169  C        -18.2310   23.5190   -0.1230 C.2   394  LEU394      0.2260
    170  O        -17.5060   22.8560    0.6260 O.2   394  LEU394     -0.2867
    171  CB       -19.9580   21.8980   -0.8440 C.3   394  LEU394      0.0270
    172  CG       -21.0440   22.4650    0.1000 C.3   394  LEU394      0.0019
    173  CD1      -21.9130   23.3860   -0.6380 C.3   394  LEU394      0.0001
    174  CD2      -21.9220   21.3390    0.6440 C.3   394  LEU394      0.0001
    175  N        -19.4330   25.1460    3.3320 N.3   396  SER396     -0.1217
    176  CA       -20.6300   25.1450    4.1200 C.3   396  SER396      0.1889
    177  C        -20.2750   25.6330    5.5200 C.2   396  SER396      0.2288
    178  O        -19.3850   25.1020    6.1580 O.2   396  SER396     -0.2866
    179  CB       -21.2410   23.7440    4.1390 C.3   396  SER396      0.2089
    180  OG       -22.3570   23.6480    5.0280 O.3   396  SER396     -0.2183
    181  N        -21.9870   26.7810    9.3550 N.3   398  HIS398     -0.1241
    182  CA       -23.1260   26.9540   10.2500 C.3   398  HIS398      0.1621
    183  C        -22.7530   28.0770   11.1790 C.2   398  HIS398      0.2264
    184  O        -21.7010   28.0440   11.8230 O.2   398  HIS398     -0.2867
    185  CB       -23.4900   25.7030   11.0710 C.3   398  HIS398      0.0745
    186  CG       -24.5650   25.9710   12.0780 C.ar  398  HIS398      0.0817
    187  ND1      -24.2940   26.2520   13.4020 N.ar  398  HIS398     -0.2268
    188  CD2      -25.9080   26.1050   11.9280 C.ar  398  HIS398      0.1154
    189  CE1      -25.4320   26.5090   14.0320 C.ar  398  HIS398      0.1986
    190  NE2      -26.4220   26.4390   13.1570 N.ar  398  HIS398     -0.2212
    191  N        -18.9270   26.8740   12.5120 N.3   406  ALA406     -0.1231
    192  CA       -18.3740   25.5860   12.1570 C.3   406  ALA406      0.1694
    193  C        -18.4490   25.4150   10.6470 C.2   406  ALA406      0.2593
    194  O        -19.5170   25.5190   10.0620 O.2   406  ALA406     -0.2718
    195  CB       -19.1350   24.4970   12.8340 C.3   406  ALA406      0.0304
    196  N        -17.3300   25.1120   10.0100 N.am  407  GLY407     -0.1942
    197  CA       -17.3340   25.0230    8.5710 C.3   407  GLY407      0.2014
    198  C        -16.7150   23.7770    7.9860 C.2   407  GLY407      0.2639
    199  O        -15.9450   23.0730    8.6400 O.2   407  GLY407     -0.2714
    200  N        -17.0600   23.5340    6.7210 N.am  408  SER408     -0.1949
    201  CA       -16.4670   22.4630    5.9290 C.3   408  SER408      0.1924
    202  C        -16.1870   22.9320    4.5260 C.2   408  SER408      0.2314
    203  O        -16.9830   23.6540    3.9380 O.2   408  SER408     -0.2863
    204  CB       -17.3830   21.2590    5.8300 C.3   408  SER408      0.2116
    205  OG       -17.4400   20.5720    7.0250 O.3   408  SER408     -0.2180
@<TRIPOS>BOND
     1   167   168    1
     2   168   171    1
     3   168   169    1
     4   171   172    1
     5   173   172    1
     6   169   170    2
     7   172   174    1
     8    55    54    2
     9    54    53    1
    10   164   163    2
    11   163   162    1
    12    59    61   ar
    13    59    57   ar
    14   103   104    1
    15    56    57    1
    16    56    53    1
    17    61    60   ar
    18    57    58   ar
    19   110   109    2
    20    53    52    1
    21   107   104    1
    22   107   108    1
    23     1     2    1
    24   104   105    1
    25    78    80   ar
    26    78    76   ar
    27    60    58   ar
    28    80    79   ar
    29   162   165    1
    30   162   161    1
    31   109   108    1
    32   109   111   am
    33    76    75   ar
    34    76    74   ar
    35    75    73   ar
    36   165   166    1
    37    79    77   ar
    38     2     5    1
    39     2     3    1
    40    67    68    1
    41   105   106    2
    42    73    72   ar
    43    74    77   ar
    44    74    72   ar
    45   175   176    1
    46     4     3    2
    47     8    10   ar
    48     8     6   ar
    49    10     9   ar
    50     5     6    1
    51     6     7   ar
    52     3    11   am
    53    72    71    1
    54    68    71    1
    55    68    69    1
    56   203   202    2
    57     9     7   ar
    58   176   179    1
    59   176   177    1
    60   179   180    1
    61   202   201    1
    62    11    12    1
    63    69    70    2
    64    46    45    2
    65    15    17    1
    66    15    12    1
    67    15    16    1
    68    51    49   ar
    69   177   178    2
    70    12    13    1
    71   204   201    1
    72   204   205    1
    73   201   200    1
    74    18    16    1
    75    48    49    1
    76    48    47    1
    77    45    44    1
    78    62    63    1
    79   112   113    1
    80    49    50   ar
    81   100   102   ar
    82   100    98   ar
    83   200   198   am
    84   102   101   ar
    85   113   114    1
    86   113   116    1
    87    13    14    2
    88    13    19   am
    89   118   116    1
    90    44    47    1
    91    44    43    1
    92   114   115    2
    93    98    97   ar
    94    91    89    1
    95    63    66    1
    96    63    64    1
    97    81    82    1
    98   116   117    1
    99    19    20    1
   100   101    99   ar
   101   198   197    1
   102   198   199    2
   103    89    88    2
   104    89    90    1
   105   197   196    1
   106    88    87    1
   107    64    65    2
   108    97    99   ar
   109    97    96    1
   110    82    83    1
   111    82    85    1
   112    86    87    1
   113    86    85    1
   114    24    23    1
   115   181   182    1
   116    20    23    1
   117    20    21    1
   118    83    84    2
   119    83    92   am
   120    96    93    1
   121    25    23    1
   122    92    93    1
   123   159   158    1
   124   196   193   am
   125    22    21    2
   126   194   193    2
   127   160   158    1
   128   182   185    1
   129   182   183    1
   130    21    26   am
   131    93    94    1
   132   193   192    1
   133   158   157    2
   134    38    37    2
   135   185   186    1
   136    95    94    2
   137   183   184    2
   138    26    27    1
   139   148   149   ar
   140   148   146   ar
   141   157   156    1
   142   149   147   ar
   143   188   186   ar
   144   188   190   ar
   145    37    36    1
   146   186   187   ar
   147   192   191    1
   148   192   195    1
   149   156   155    1
   150   146   143   ar
   151    27    28    1
   152   153   152    2
   153   147   145   ar
   154   154   155    1
   155   154   151    1
   156   190   189   ar
   157    40    41    1
   158    40    39    1
   159    40    42    1
   160   127   126    1
   161    36    39    1
   162    36    35    1
   163   187   189   ar
   164   139   138    2
   165   152   151    1
   166   143   145   ar
   167   143   141   ar
   168    28    29    2
   169    28    30   am
   170   145   144   ar
   171   126   125    1
   172   151   150    1
   173    30    31    1
   174   138   137    1
   175   141   140    1
   176   141   142   ar
   177   137   140    1
   178   137   136    1
   179   131   130    2
   180   144   142   ar
   181   125   124    1
   182    34    31    1
   183    31    32    1
   184   124   123    1
   185   136   130   am
   186   130   129    1
   187    33    32    2
   188   123   120    1
   189   134   132    1
   190   129   132    1
   191   129   128    1
   192   132   133    1
   193   128   121   am
   194   120   121    1
   195   120   119    1
   196   121   122    2
   197   133   135    1
