@<TRIPOS>MOLECULE
tmp/4zxxA00.pdb
 199 197 0 0 0
SMALL
GASTEIGER

@<TRIPOS>ATOM
      1  N         15.3460   40.3780   16.8990 N.3    25  LEU25      -0.1231
      2  CA        13.9220   40.0430   16.9080 C.3    25  LEU25       0.1693
      3  C         13.5940   38.8270   17.7630 C.2    25  LEU25       0.2592
      4  O         12.7190   38.9100   18.6230 O.2    25  LEU25      -0.2718
      5  CB        13.3900   39.8570   15.4560 C.3    25  LEU25       0.0284
      6  CG        11.9490   39.3630   15.2960 C.3    25  LEU25       0.0019
      7  CD1       10.9860   40.4870   15.4530 C.3    25  LEU25       0.0001
      8  CD2       11.7420   38.6660   13.9640 C.3    25  LEU25       0.0001
      9  N         14.2540   37.6940   17.4900 N.am   26  CYS26      -0.1970
     10  CA        13.9890   36.3890   18.1120 C.3    26  CYS26       0.1712
     11  C         15.1630   35.4610   17.8920 C.2    26  CYS26       0.2296
     12  O         16.0980   35.7730   17.1740 O.2    26  CYS26      -0.2864
     13  CB        12.7340   35.7750   17.4840 C.3    26  CYS26       0.0983
     14  SG        11.1810   36.3630   18.1800 S.3    26  CYS26      -0.0798
     15  N          4.5530   33.9310   17.3140 N.3    41  HIS41      -0.1226
     16  CA         4.3700   35.2620   17.9090 C.3    41  HIS41       0.1752
     17  C          5.5130   36.2630   17.5680 C.2    41  HIS41       0.2596
     18  O          5.3540   37.4640   17.7800 O.2    41  HIS41      -0.2718
     19  CB         4.1130   35.1530   19.4290 C.3    41  HIS41       0.0759
     20  CG         5.3320   35.1730   20.2930 C.ar   41  HIS41       0.0818
     21  ND1        5.9190   34.0080   20.7330 N.ar   41  HIS41      -0.2268
     22  CD2        6.0070   36.2240   20.8160 C.ar   41  HIS41       0.1154
     23  CE1        6.9380   34.3760   21.4880 C.ar   41  HIS41       0.1986
     24  NE2        7.0400   35.6980   21.5570 N.ar   41  HIS41      -0.2212
     25  N          6.6230   35.7730   16.9970 N.am   42  CYS42      -0.1970
     26  CA         7.7790   36.5920   16.6350 C.3    42  CYS42       0.1712
     27  C          7.4650   37.5120   15.5020 C.2    42  CYS42       0.2296
     28  O          8.1500   38.5270   15.3400 O.2    42  CYS42      -0.2864
     29  CB         8.9680   35.7040   16.2800 C.3    42  CYS42       0.0983
     30  SG         9.7970   34.9590   17.7020 S.3    42  CYS42      -0.0798
     31  N          4.1970   38.6530   14.7390 N.3    44  ASP44      -0.1225
     32  CA         2.9440   39.3550   15.0540 C.3    44  ASP44       0.1805
     33  C          2.9210   40.8520   14.6840 C.2    44  ASP44       0.2597
     34  O          1.8530   41.3910   14.3690 O.2    44  ASP44      -0.2718
     35  CB         2.6160   39.2020   16.5450 C.3    44  ASP44       0.1424
     36  CG         1.7330   38.0310   16.8800 C.2    44  ASP44       0.3668
     37  OD1        1.6670   37.0890   16.0680 O.co2  44  ASP44      -0.2456
     38  OD2        1.1440   38.0300   17.9840 O.co2  44  ASP44      -0.2456
     39  N          4.0930   41.5120   14.7640 N.am   45  LYS45      -0.1979
     40  CA         4.2910   42.9390   14.4990 C.3    45  LYS45       0.1596
     41  C          5.1020   43.2180   13.2040 C.2    45  LYS45       0.2287
     42  O          5.4920   44.3640   12.9840 O.2    45  LYS45      -0.2864
     43  CB         4.9680   43.6030   15.7210 C.3    45  LYS45       0.0298
     44  CG         4.1420   43.6020   17.0140 C.3    45  LYS45       0.0038
     45  CD         4.8900   44.3060   18.1680 C.3    45  LYS45       0.0206
     46  CE         4.3460   43.9520   19.5390 C.3    45  LYS45       0.1093
     47  NZ         5.2960   44.3110   20.6250 N.3    45  LYS45      -0.1314
     48  N         -1.5870   37.4820   18.8780 N.3    85  GLY85      -0.1210
     49  CA        -1.9630   38.1010   20.1430 C.3    85  GLY85       0.1956
     50  C         -2.2680   37.1130   21.2430 C.2    85  GLY85       0.2613
     51  O         -2.5560   37.5270   22.3720 O.2    85  GLY85      -0.2717
     52  N         -2.2000   35.7920   20.9210 N.am   86  THR86      -0.1938
     53  CA        -2.4370   34.6840   21.8530 C.3    86  THR86       0.2028
     54  C         -1.1800   33.7970   21.9660 C.2    86  THR86       0.2642
     55  O         -0.1440   34.1090   21.3780 O.2    86  THR86      -0.2714
     56  CB        -3.7440   33.9270   21.5150 C.3    86  THR86       0.1808
     57  OG1       -3.5960   33.1650   20.3130 O.3    86  THR86      -0.2208
     58  CG2       -4.9810   34.8610   21.4430 C.3    86  THR86       0.0379
     59  N         -1.2600   32.7090   22.7490 N.am   87  THR87      -0.1950
     60  CA        -0.1080   31.8430   23.0720 C.3    87  THR87       0.1897
     61  C         -0.1110   30.4480   22.4380 C.2    87  THR87       0.2313
     62  O          0.9590   29.8600   22.2950 O.2    87  THR87      -0.2863
     63  CB         0.0090   31.7140   24.6160 C.3    87  THR87       0.1794
     64  OG1       -1.2080   31.1630   25.1400 O.3    87  THR87      -0.2208
     65  CG2        0.3210   33.0580   25.3140 C.3    87  THR87       0.0378
     66  N          2.2790   28.0770   19.1430 N.3    90  ASP90      -0.1239
     67  CA         3.3240   29.0690   18.9320 C.3    90  ASP90       0.1674
     68  C          4.5910   28.4820   18.2880 C.2    90  ASP90       0.2266
     69  O          5.6530   28.3380   18.9220 O.2    90  ASP90      -0.2867
     70  CB         3.6030   29.8150   20.2410 C.3    90  ASP90       0.1410
     71  CG         4.4230   31.0750   20.0940 C.2    90  ASP90       0.3668
     72  OD1        4.3950   31.6850   18.9920 O.co2  90  ASP90      -0.2456
     73  OD2        5.1010   31.4470   21.0640 O.co2  90  ASP90      -0.2456
     74  N         -2.8990   32.8320   30.5170 N.3   169  PRO169     -0.2116
     75  CA        -3.3510   31.7860   29.5730 C.3   169  PRO169      0.1372
     76  C         -3.2200   30.3750   30.1680 C.2   169  PRO169      0.2244
     77  O         -2.4640   30.1590   31.1300 O.2   169  PRO169     -0.2868
     78  CB        -2.4390   31.9780   28.3430 C.3   169  PRO169      0.0268
     79  CG        -1.7320   33.2920   28.5520 C.3   169  PRO169      0.0207
     80  CD        -1.6580   33.4770   30.0370 C.3   169  PRO169      0.0892
     81  N         15.5350   31.4620   34.0330 N.3   186  ASP186     -0.1225
     82  CA        14.5070   31.4540   32.9920 C.3   186  ASP186      0.1805
     83  C         15.0690   31.9070   31.6260 C.2   186  ASP186      0.2598
     84  O         16.2390   32.2760   31.5020 O.2   186  ASP186     -0.2718
     85  CB        13.3750   32.4330   33.3980 C.3   186  ASP186      0.1424
     86  CG        11.9850   32.1250   32.8690 C.2   186  ASP186      0.3668
     87  OD1       11.8620   31.2470   31.9800 O.co2 186  ASP186     -0.2456
     88  OD2       11.0240   32.7880   33.3170 O.co2 186  ASP186     -0.2456
     89  N         14.2060   31.8700   30.6120 N.am  187  SER187     -0.1938
     90  CA        14.4260   32.4270   29.2920 C.3   187  SER187      0.2055
     91  C         13.4190   33.5730   29.2750 C.2   187  SER187      0.2643
     92  O         12.4570   33.5260   30.0390 O.2   187  SER187     -0.2714
     93  CB        14.1180   31.4060   28.2040 C.3   187  SER187      0.2130
     94  OG        12.7680   30.9780   28.2320 O.3   187  SER187     -0.2179
     95  N         13.6560   34.6290   28.5040 N.am  188  CYS188     -0.1953
     96  CA        12.7290   35.7600   28.4810 C.3   188  CYS188      0.1843
     97  C         12.3810   36.1990   27.0400 C.2   188  CYS188      0.2625
     98  O         12.8630   35.5830   26.1000 O.2   188  CYS188     -0.2714
     99  CB        13.2430   36.9060   29.3570 C.3   188  CYS188      0.0997
    100  SG        13.4400   36.4530   31.1090 S.3   188  CYS188     -0.0797
    101  N         11.5030   37.2080   26.8620 N.am  189  LYS189     -0.1977
    102  CA        10.9890   37.6690   25.5570 C.3   189  LYS189      0.1596
    103  C         12.0330   37.7650   24.4060 C.2   189  LYS189      0.2287
    104  O         11.6670   37.5190   23.2650 O.2   189  LYS189     -0.2864
    105  CB        10.2100   38.9910   25.6820 C.3   189  LYS189      0.0298
    106  CG        10.9020   40.1060   26.4440 C.3   189  LYS189      0.0038
    107  CD        10.5410   41.4700   25.8780 C.3   189  LYS189      0.0206
    108  CE        10.0810   42.4650   26.9200 C.3   189  LYS189      0.1093
    109  NZ        11.1870   42.9530   27.7820 N.3   189  LYS189     -0.1314
    110  N         12.7120   34.3410   22.7360 N.3   192  SER192     -0.1217
    111  CA        11.5420   33.8300   22.0120 C.3   192  SER192      0.1889
    112  C         11.9470   33.2060   20.7140 C.2   192  SER192      0.2288
    113  O         12.8450   33.7230   20.0410 O.2   192  SER192     -0.2866
    114  CB        10.5190   34.9320   21.7650 C.3   192  SER192      0.2089
    115  OG         9.8010   35.1730   22.9640 O.3   192  SER192     -0.2183
    116  N         11.1770   28.5400   22.9330 N.3   210  VAL210     -0.1231
    117  CA        10.9800   29.6640   23.8790 C.3   210  VAL210      0.1692
    118  C          9.7030   30.3790   23.4370 C.2   210  VAL210      0.2593
    119  O          9.6610   30.9060   22.3340 O.2   210  VAL210     -0.2718
    120  CB        12.2110   30.6130   23.9250 C.3   210  VAL210      0.0266
    121  CG1       11.9860   31.7680   24.8950 C.3   210  VAL210      0.0020
    122  CG2       13.4730   29.8510   24.2820 C.3   210  VAL210      0.0020
    123  N          8.6300   30.2710   24.2270 N.am  211  SER211     -0.1938
    124  CA         7.3130   30.7720   23.8140 C.3   211  SER211      0.2055
    125  C          6.7530   31.8810   24.6900 C.2   211  SER211      0.2643
    126  O          6.6300   32.9870   24.2000 O.2   211  SER211     -0.2714
    127  CB         6.3190   29.6150   23.6920 C.3   211  SER211      0.2130
    128  OG         5.0050   30.0400   23.3780 O.3   211  SER211     -0.2179
    129  N          6.3710   31.5990   25.9480 N.am  212  TRP212     -0.1959
    130  CA         5.7780   32.6130   26.8250 C.3   212  TRP212      0.1771
    131  C          5.9110   32.3240   28.3050 C.2   212  TRP212      0.2620
    132  O          6.3150   31.2380   28.7220 O.2   212  TRP212     -0.2715
    133  CB         4.3010   32.8640   26.4650 C.3   212  TRP212      0.0590
    134  CG         3.3920   31.7170   26.7660 C.ar  212  TRP212      0.0006
    135  CD1        3.1530   30.6350   25.9750 C.ar  212  TRP212      0.0946
    136  CD2        2.5910   31.5450   27.9380 C.ar  212  TRP212      0.0152
    137  NE1        2.2810   29.7800   26.5970 N.ar  212  TRP212     -0.2442
    138  CE2        1.9030   30.3220   27.7970 C.ar  212  TRP212      0.0810
    139  CE3        2.4050   32.2940   29.1120 C.ar  212  TRP212      0.0012
    140  CZ2        1.0440   29.8270   28.7870 C.ar  212  TRP212      0.0191
    141  CZ3        1.5670   31.7920   30.0970 C.ar  212  TRP212      0.0001
    142  CH2        0.8940   30.5750   29.9260 C.ar  212  TRP212      0.0015
    143  N          5.5440   33.3150   29.0870 N.am  213  GLY213     -0.1940
    144  CA         5.5880   33.2480   30.5330 C.3   213  GLY213      0.2014
    145  C          5.1490   34.5630   31.1190 C.2   213  GLY213      0.2639
    146  O          4.6870   35.4560   30.3960 O.2   213  GLY213     -0.2714
    147  N          5.3210   34.6820   32.4410 N.am  214  GLN214     -0.1963
    148  CA         4.9980   35.8540   33.2350 C.3   214  GLN214      0.1733
    149  C          6.2330   36.7150   33.4230 C.2   214  GLN214      0.2617
    150  O          7.2350   36.2450   33.9610 O.2   214  GLN214     -0.2715
    151  CB         4.4000   35.4270   34.5840 C.3   214  GLN214      0.0408
    152  CG         2.8880   35.2650   34.5340 C.3   214  GLN214      0.0908
    153  CD         2.1860   36.5870   34.3360 C.2   214  GLN214      0.2608
    154  OE1        2.6080   37.6440   34.8490 O.2   214  GLN214     -0.2717
    155  NE2        1.0960   36.5510   33.5810 N.am  214  GLN214     -0.0878
    156  N          6.1510   37.9460   32.9170 N.am  215  GLY215     -0.1940
    157  CA         7.1980   38.9640   32.9700 C.3   215  GLY215      0.2014
    158  C          8.5180   38.4950   32.4060 C.2   215  GLY215      0.2639
    159  O          8.6920   38.4330   31.1780 O.2   215  GLY215     -0.2714
    160  N          9.4490   38.1490   33.3190 N.am  216  CYS216     -0.1967
    161  CA        10.7820   37.6240   33.0400 C.3   216  CYS216      0.1712
    162  C         11.3810   37.1660   34.3510 C.2   216  CYS216      0.2296
    163  O         11.5770   37.9860   35.2440 O.2   216  CYS216     -0.2864
    164  CB        11.6580   38.6590   32.3430 C.3   216  CYS216      0.0983
    165  SG        13.3950   38.1820   32.1950 S.3   216  CYS216     -0.0798
    166  N          6.9100   29.5010   36.0150 N.3   222  PHE222     -0.1227
    167  CA         7.8080   28.7320   35.1430 C.3   222  PHE222      0.1736
    168  C          7.7770   29.3030   33.7200 C.2   222  PHE222      0.2596
    169  O          6.9280   30.1440   33.4170 O.2   222  PHE222     -0.2718
    170  CB         7.4060   27.2410   35.1390 C.3   222  PHE222      0.0547
    171  CG         7.6680   26.5320   36.4450 C.ar  222  PHE222     -0.0202
    172  CD1        8.9310   26.0340   36.7440 C.ar  222  PHE222     -0.0042
    173  CD2        6.6560   26.3700   37.3810 C.ar  222  PHE222     -0.0042
    174  CE1        9.1800   25.3920   37.9610 C.ar  222  PHE222     -0.0003
    175  CE2        6.9070   25.7340   38.6040 C.ar  222  PHE222     -0.0003
    176  CZ         8.1670   25.2490   38.8850 C.ar  222  PHE222     -0.0000
    177  N          8.7140   28.8710   32.8810 N.am  223  GLY223     -0.1942
    178  CA         8.7540   29.2530   31.4760 C.3   223  GLY223      0.2014
    179  C          7.8690   28.2980   30.6960 C.2   223  GLY223      0.2639
    180  O          7.7410   27.1420   31.0930 O.2   223  GLY223     -0.2714
    181  N          7.2220   28.7670   29.6080 N.am  224  VAL224     -0.1963
    182  CA         6.3400   27.9310   28.7920 C.3   224  VAL224      0.1727
    183  C          6.9260   27.8250   27.3670 C.2   224  VAL224      0.2616
    184  O          7.2890   28.8210   26.7300 O.2   224  VAL224     -0.2715
    185  CB         4.8180   28.3080   28.8380 C.3   224  VAL224      0.0290
    186  CG1        3.9430   27.1710   28.3080 C.3   224  VAL224      0.0023
    187  CG2        4.3740   28.6850   30.2550 C.3   224  VAL224      0.0023
    188  N          7.0350   26.5800   26.9080 N.am  225  TYR225     -0.1974
    189  CA         7.6650   26.1700   25.6790 C.3   225  TYR225      0.1639
    190  C          6.6870   25.4260   24.7830 C.2   225  TYR225      0.2290
    191  O          5.8330   24.7080   25.2840 O.2   225  TYR225     -0.2864
    192  CB         8.8970   25.2900   26.0230 C.3   225  TYR225      0.0560
    193  CG         9.9450   26.0140   26.8540 C.ar  225  TYR225     -0.0198
    194  CD1       10.9690   26.7390   26.2470 C.ar  225  TYR225     -0.0009
    195  CD2        9.8850   26.0130   28.2470 C.ar  225  TYR225     -0.0009
    196  CE1       11.9020   27.4440   27.0030 C.ar  225  TYR225      0.0417
    197  CE2       10.8200   26.7040   29.0150 C.ar  225  TYR225      0.0417
    198  CZ        11.8280   27.4220   28.3900 C.ar  225  TYR225      0.1957
    199  OH        12.7660   28.0950   29.1480 O.3   225  TYR225     -0.2866
@<TRIPOS>BOND
     1    42    41    2
     2    41    40    1
     3     8     6    1
     4    34    33    2
     5    40    39    1
     6    40    43    1
     7    33    39   am
     8    33    32    1
     9    31    32    1
    10    32    35    1
    11     6     7    1
    12     6     5    1
    13    28    27    2
    14     5     2    1
    15    27    26    1
    16    43    44    1
    17    37    36   ar
    18    29    26    1
    19    29    30    1
    20    35    36    1
    21    26    25    1
    22    36    38   ar
    23     1     2    1
    24     2     3    1
    25    25    17   am
    26    44    45    1
    27    12    11    2
    28    15    16    1
    29    13    10    1
    30    13    14    1
    31     9     3   am
    32     9    10    1
    33    17    18    2
    34    17    16    1
    35    30    14    1
    36     3     4    2
    37    11    10    1
    38    16    19    1
    39    45    46    1
    40    68    69    2
    41    68    67    1
    42    48    49    1
    43    67    66    1
    44    67    70    1
    45    72    71   ar
    46    19    20    1
    47    46    47    1
    48   113   112    2
    49    71    70    1
    50    71    73   ar
    51    49    50    1
    52    20    21   ar
    53    20    22   ar
    54    57    56    1
    55   112   111    1
    56    21    23   ar
    57    22    24   ar
    58    52    50   am
    59    52    53    1
    60    50    51    2
    61    55    54    2
    62    58    56    1
    63    23    24   ar
    64    56    53    1
    65   114   111    1
    66   114   115    1
    67    53    54    1
    68    54    59   am
    69   111   110    1
    70    62    61    2
    71   119   118    2
    72    61    60    1
    73    59    60    1
    74   116   117    1
    75    60    63    1
    76   104   103    2
    77   128   127    1
    78   118   117    1
    79   118   123   am
    80   127   124    1
    81   124   123    1
    82   124   125    1
    83   117   120    1
    84   120   122    1
    85   120   121    1
    86   126   125    2
    87   103   102    1
    88    63    64    1
    89    63    65    1
    90   125   129   am
    91   190   191    2
    92   190   189    1
    93   102   105    1
    94   102   101    1
    95   189   192    1
    96   189   188    1
    97   105   106    1
    98   107   106    1
    99   107   108    1
   100   129   130    1
   101   135   137   ar
   102   135   134   ar
   103   192   193    1
   104    98    97    2
   105   194   193   ar
   106   194   196   ar
   107   133   134    1
   108   133   130    1
   109   137   138   ar
   110   184   183    2
   111   134   136   ar
   112   130   131    1
   113   193   195   ar
   114   101    97   am
   115   188   183   am
   116   108   109    1
   117   196   198   ar
   118    97    96    1
   119   183   182    1
   120   138   136   ar
   121   138   140   ar
   122   136   139   ar
   123    93    94    1
   124    93    90    1
   125   195   197   ar
   126   131   132    2
   127   131   143   am
   128   186   185    1
   129    78    79    1
   130    78    75    1
   131   198   197   ar
   132   198   199    1
   133    96    95    1
   134    96    99    1
   135    95    91   am
   136    79    80    1
   137   140   142   ar
   138   182   185    1
   139   182   181    1
   140   185   187    1
   141   143   144    1
   142   139   141   ar
   143    91    90    1
   144    91    92    2
   145    90    89    1
   146    99   100    1
   147    75    76    1
   148    75    74    1
   149   181   179   am
   150   142   141   ar
   151    80    74    1
   152    76    77    2
   153   146   145    2
   154   144   145    1
   155    89    83   am
   156   179   180    2
   157   179   178    1
   158   100   165    1
   159   145   147   am
   160   159   158    2
   161   178   177    1
   162    84    83    2
   163    83    82    1
   164    87    86   ar
   165   165   164    1
   166   164   161    1
   167   158   157    1
   168   158   160   am
   169   147   148    1
   170    86    88   ar
   171    86    85    1
   172   177   168   am
   173   156   157    1
   174   156   149   am
   175    82    85    1
   176    82    81    1
   177   161   160    1
   178   161   162    1
   179   148   149    1
   180   148   151    1
   181   169   168    2
   182   149   150    2
   183   155   153   am
   184   168   167    1
   185   153   152    1
   186   153   154    2
   187   162   163    2
   188   152   151    1
   189   170   167    1
   190   170   171    1
   191   167   166    1
   192   171   172   ar
   193   171   173   ar
   194   172   174   ar
   195   173   175   ar
   196   174   176   ar
   197   175   176   ar
