@<TRIPOS>MOLECULE
tmp/4zxyA00.pdb
 185 183 0 0 0
SMALL
GASTEIGER

@<TRIPOS>ATOM
      1  N          4.8530   32.2180   17.9670 N.3    41  HIS41      -0.1226
      2  CA         4.6930   33.5790   18.5110 C.3    41  HIS41       0.1752
      3  C          5.7430   34.5440   17.9930 C.2    41  HIS41       0.2596
      4  O          5.4670   35.7360   17.9430 O.2    41  HIS41      -0.2718
      5  CB         4.5900   33.6040   20.0600 C.3    41  HIS41       0.0759
      6  CG         5.9080   33.5470   20.7780 C.ar   41  HIS41       0.0818
      7  ND1        6.3920   32.3650   21.3000 N.ar   41  HIS41      -0.2268
      8  CD2        6.7770   34.5420   21.0780 C.ar   41  HIS41       0.1154
      9  CE1        7.5580   32.6550   21.8480 C.ar   41  HIS41       0.1986
     10  NE2        7.8390   33.9510   21.7350 N.ar   41  HIS41      -0.2212
     11  N          6.9010   34.0460   17.5450 N.am   42  CYS42      -0.1970
     12  CA         7.9940   34.8450   16.9720 C.3    42  CYS42       0.1712
     13  C          7.5350   35.6770   15.7840 C.2    42  CYS42       0.2296
     14  O          8.1810   36.6560   15.4400 O.2    42  CYS42      -0.2864
     15  CB         9.1580   33.9440   16.5600 C.3    42  CYS42       0.0983
     16  SG        10.1530   33.3280   17.9340 S.3    42  CYS42      -0.0798
     17  N          4.2580   36.9240   15.2540 N.3    44  ASP44      -0.1225
     18  CA         3.0220   37.6740   15.5290 C.3    44  ASP44       0.1805
     19  C          3.0490   39.1210   15.0380 C.2    44  ASP44       0.2597
     20  O          1.9990   39.6420   14.6620 O.2    44  ASP44      -0.2718
     21  CB         2.7110   37.6670   17.0300 C.3    44  ASP44       0.1424
     22  CG         2.0250   36.4160   17.5320 C.2    44  ASP44       0.3668
     23  OD1        1.8410   35.4550   16.7190 O.co2  44  ASP44      -0.2456
     24  OD2        1.7030   36.3660   18.7380 O.co2  44  ASP44      -0.2456
     25  N          4.2310   39.7600   15.0400 N.am   45  LYS45      -0.1979
     26  CA         4.3640   41.1870   14.6610 C.3    45  LYS45       0.1596
     27  C          5.1410   41.4190   13.3540 C.2    45  LYS45       0.2287
     28  O          5.5680   42.5390   13.0960 O.2    45  LYS45      -0.2864
     29  CB         4.9690   41.9840   15.8320 C.3    45  LYS45       0.0298
     30  CG         4.0420   42.0610   17.0550 C.3    45  LYS45       0.0038
     31  CD         4.8310   42.2910   18.3280 C.3    45  LYS45       0.0206
     32  CE         4.2750   41.4950   19.4870 C.3    45  LYS45       0.1093
     33  NZ         5.1220   41.6400   20.7020 N.3    45  LYS45      -0.1314
     34  N         -0.9020   35.9740   19.8170 N.3    85  GLY85      -0.1210
     35  CA        -1.0470   36.5960   21.1240 C.3    85  GLY85       0.1956
     36  C         -1.3880   35.6110   22.2180 C.2    85  GLY85       0.2613
     37  O         -1.6580   36.0390   23.3360 O.2    85  GLY85      -0.2717
     38  N         -1.4070   34.2910   21.9220 N.am   86  THR86      -0.1938
     39  CA        -1.6850   33.2740   22.9430 C.3    86  THR86       0.2028
     40  C         -0.4900   32.2890   23.0340 C.2    86  THR86       0.2642
     41  O          0.5500   32.5300   22.4210 O.2    86  THR86      -0.2714
     42  CB        -3.0620   32.5920   22.8010 C.3    86  THR86       0.1808
     43  OG1       -3.0430   31.7330   21.6590 O.3    86  THR86      -0.2208
     44  CG2       -4.2520   33.5930   22.7550 C.3    86  THR86       0.0379
     45  N         -0.6270   31.2220   23.8520 N.am   87  THR87      -0.1950
     46  CA         0.4470   30.2830   24.1700 C.3    87  THR87       0.1897
     47  C          0.4000   28.9270   23.4760 C.2    87  THR87       0.2313
     48  O          1.4570   28.3360   23.2760 O.2    87  THR87      -0.2863
     49  CB         0.4370   29.9960   25.6960 C.3    87  THR87       0.1794
     50  OG1       -0.8650   29.5610   26.0840 O.3    87  THR87      -0.2208
     51  CG2        0.8500   31.1720   26.5220 C.3    87  THR87       0.0378
     52  N          2.5200   26.5070   19.9990 N.3    90  ASP90      -0.1239
     53  CA         3.5640   27.4780   19.6810 C.3    90  ASP90       0.1674
     54  C          4.7420   26.8700   18.9130 C.2    90  ASP90       0.2266
     55  O          5.8400   26.6660   19.4470 O.2    90  ASP90      -0.2867
     56  CB         3.9980   28.2060   20.9610 C.3    90  ASP90       0.1410
     57  CG         4.8200   29.4440   20.7210 C.2    90  ASP90       0.3668
     58  OD1        4.7950   29.9580   19.5940 O.co2  90  ASP90      -0.2456
     59  OD2        5.5360   29.8540   21.6380 O.co2  90  ASP90      -0.2456
     60  N         -1.8130   31.4470   32.0550 N.3   165  PRO165     -0.2116
     61  CA        -2.3360   30.4930   31.0620 C.3   165  PRO165      0.1372
     62  C         -2.2300   29.0370   31.5310 C.2   165  PRO165      0.2244
     63  O         -1.5190   28.7210   32.4950 O.2   165  PRO165     -0.2868
     64  CB        -1.4910   30.7670   29.8040 C.3   165  PRO165      0.0268
     65  CG        -0.7380   32.0360   30.0780 C.3   165  PRO165      0.0207
     66  CD        -0.5640   32.0710   31.5740 C.3   165  PRO165      0.0892
     67  N         17.0030   30.0030   33.6990 N.3   182  ASP182     -0.1225
     68  CA        15.8630   29.9350   32.7890 C.3   182  ASP182      0.1805
     69  C         16.2680   30.4410   31.4270 C.2   182  ASP182      0.2598
     70  O         17.2950   31.0920   31.3100 O.2   182  ASP182     -0.2718
     71  CB        14.7130   30.8110   33.3440 C.3   182  ASP182      0.1424
     72  CG        13.3250   30.5980   32.7820 C.2   182  ASP182      0.3668
     73  OD1       13.1590   29.7170   31.8820 O.co2 182  ASP182     -0.2456
     74  OD2       12.4070   31.3300   33.2030 O.co2 182  ASP182     -0.2456
     75  N         15.4780   30.1080   30.4010 N.am  183  SER183     -0.1938
     76  CA        15.5800   30.6640   29.0510 C.3   183  SER183      0.2055
     77  C         14.6640   31.9250   29.1200 C.2   183  SER183      0.2643
     78  O         13.8500   32.0100   30.0350 O.2   183  SER183     -0.2714
     79  CB        15.0600   29.6790   28.0110 C.3   183  SER183      0.2130
     80  OG        13.7950   29.1620   28.3750 O.3   183  SER183     -0.2179
     81  N         14.8460   32.9110   28.2400 N.am  184  CYS184     -0.1953
     82  CA        14.0630   34.1670   28.2690 C.3   184  CYS184      0.1843
     83  C         13.3690   34.4060   26.9750 C.2   184  CYS184      0.2625
     84  O         13.5520   33.6360   26.0450 O.2   184  CYS184     -0.2714
     85  CB        14.9480   35.3600   28.6130 C.3   184  CYS184      0.0997
     86  SG        16.0500   35.0930   30.0130 S.3   184  CYS184     -0.0797
     87  N         12.6610   35.5490   26.8710 N.am  185  LYS185     -0.1977
     88  CA        11.9390   35.9160   25.6580 C.3   185  LYS185      0.1596
     89  C         12.8310   35.9740   24.4110 C.2   185  LYS185      0.2287
     90  O         12.3780   35.5590   23.3550 O.2   185  LYS185     -0.2864
     91  CB        11.1100   37.1980   25.8330 C.3   185  LYS185      0.0298
     92  CG        11.8560   38.5000   26.0710 C.3   185  LYS185      0.0038
     93  CD        10.8700   39.6890   25.9980 C.3   185  LYS185      0.0206
     94  CE        11.6000   41.0040   26.1740 C.3   185  LYS185      0.1093
     95  NZ        10.6950   42.1810   26.1050 N.3   185  LYS185     -0.1314
     96  N         13.3050   32.6060   22.5580 N.3   188  SER188     -0.1217
     97  CA        12.0830   32.0840   21.9270 C.3   188  SER188      0.1889
     98  C         12.3950   31.4210   20.5960 C.2   188  SER188      0.2288
     99  O         13.1860   31.9710   19.8110 O.2   188  SER188     -0.2866
    100  CB        11.0670   33.2050   21.7120 C.3   188  SER188      0.2089
    101  OG        10.5700   33.6730   22.9560 O.3   188  SER188     -0.2183
    102  N         11.7360   26.7850   22.9880 N.3   206  VAL206     -0.1231
    103  CA        11.6070   27.8630   23.9810 C.3   206  VAL206      0.1692
    104  C         10.3030   28.5890   23.6470 C.2   206  VAL206      0.2593
    105  O         10.1820   29.1390   22.5510 O.2   206  VAL206     -0.2718
    106  CB        12.7960   28.8510   23.9820 C.3   206  VAL206      0.0266
    107  CG1       12.5560   29.9770   25.0090 C.3   206  VAL206      0.0020
    108  CG2       14.1140   28.1290   24.2500 C.3   206  VAL206      0.0020
    109  N          9.3270   28.5650   24.5740 N.am  207  SER207     -0.1938
    110  CA         8.0080   29.1220   24.2660 C.3   207  SER207      0.2055
    111  C          7.5750   30.3310   25.1050 C.2   207  SER207      0.2643
    112  O          7.4500   31.4270   24.5670 O.2   207  SER207     -0.2714
    113  CB         6.9510   28.0210   24.3380 C.3   207  SER207      0.2130
    114  OG         5.6930   28.4560   23.8480 O.3   207  SER207     -0.2179
    115  N          7.2760   30.1380   26.3840 N.am  208  TRP208     -0.1959
    116  CA         6.7590   31.2300   27.2140 C.3   208  TRP208      0.1771
    117  C          7.0270   30.9640   28.6850 C.2   208  TRP208      0.2620
    118  O          7.5430   29.9040   29.0550 O.2   208  TRP208     -0.2715
    119  CB         5.2530   31.4710   26.9500 C.3   208  TRP208      0.0590
    120  CG         4.3570   30.3330   27.3570 C.ar  208  TRP208      0.0006
    121  CD1        4.0740   29.2180   26.6300 C.ar  208  TRP208      0.0946
    122  CD2        3.6580   30.1840   28.6080 C.ar  208  TRP208      0.0152
    123  NE1        3.2290   28.3910   27.3350 N.ar  208  TRP208     -0.2442
    124  CE2        2.9480   28.9630   28.5480 C.ar  208  TRP208      0.0810
    125  CE3        3.5340   30.9810   29.7630 C.ar  208  TRP208      0.0012
    126  CZ2        2.1340   28.5110   29.6000 C.ar  208  TRP208      0.0191
    127  CZ3        2.7260   30.5340   30.8090 C.ar  208  TRP208      0.0001
    128  CH2        2.0440   29.3100   30.7250 C.ar  208  TRP208      0.0015
    129  N          6.7270   31.9660   29.4920 N.am  209  GLY209     -0.1940
    130  CA         6.9030   31.9550   30.9370 C.3   209  GLY209      0.2014
    131  C          6.4930   33.3030   31.5050 C.2   209  GLY209      0.2639
    132  O          6.0550   34.1830   30.7600 O.2   209  GLY209     -0.2714
    133  N          6.6110   33.4570   32.8270 N.am  210  GLN210     -0.1963
    134  CA         6.2490   34.6770   33.5590 C.3   210  GLN210      0.1733
    135  C          7.5300   35.3720   33.9510 C.2   210  GLN210      0.2617
    136  O          8.0990   35.0060   34.9650 O.2   210  GLN210     -0.2715
    137  CB         5.4220   34.3230   34.8230 C.3   210  GLN210      0.0408
    138  CG         3.9590   33.8980   34.5390 C.3   210  GLN210      0.0908
    139  CD         3.6170   32.4440   34.9000 C.2   210  GLN210      0.2608
    140  OE1        4.3310   31.5120   34.5450 O.2   210  GLN210     -0.2717
    141  NE2        2.4870   32.2530   35.5800 N.am  210  GLN210     -0.0878
    142  N          8.0130   36.3010   33.1260 N.am  211  GLY211     -0.1940
    143  CA         9.2540   37.0360   33.3570 C.3   211  GLY211      0.2014
    144  C         10.4510   36.1140   33.4690 C.2   211  GLY211      0.2639
    145  O         10.3350   35.0440   34.0790 O.2   211  GLY211     -0.2714
    146  N         11.6150   36.5120   32.9480 N.am  212  CYS212     -0.1967
    147  CA        12.7380   35.6010   32.9990 C.3   212  CYS212      0.1712
    148  C         13.2700   35.2950   34.4080 C.2   212  CYS212      0.2296
    149  O         13.6260   36.1960   35.1790 O.2   212  CYS212     -0.2864
    150  CB        13.8700   36.0010   32.0660 C.3   212  CYS212      0.0983
    151  SG        14.8830   34.5810   31.5990 S.3   212  CYS212     -0.0798
    152  N          8.5190   28.1760   36.3090 N.3   218  PHE218     -0.1227
    153  CA         9.4450   27.4390   35.4180 C.3   218  PHE218      0.1736
    154  C          9.2530   27.9520   34.0040 C.2   218  PHE218      0.2596
    155  O          8.2310   28.6010   33.7210 O.2   218  PHE218     -0.2718
    156  CB         9.1180   25.9260   35.4320 C.3   218  PHE218      0.0547
    157  CG         9.2770   25.2580   36.7770 C.ar  218  PHE218     -0.0202
    158  CD1        8.2400   25.2690   37.7060 C.ar  218  PHE218     -0.0042
    159  CD2       10.4580   24.6140   37.1140 C.ar  218  PHE218     -0.0042
    160  CE1        8.3910   24.6720   38.9480 C.ar  218  PHE218     -0.0003
    161  CE2       10.6040   24.0050   38.3590 C.ar  218  PHE218     -0.0003
    162  CZ         9.5670   24.0420   39.2680 C.ar  218  PHE218     -0.0000
    163  N         10.1750   27.5900   33.1050 N.am  219  GLY219     -0.1942
    164  CA        10.0220   27.9020   31.6900 C.3   219  GLY219      0.2014
    165  C          9.0410   26.9280   31.0610 C.2   219  GLY219      0.2639
    166  O          8.9580   25.7720   31.4850 O.2   219  GLY219     -0.2714
    167  N          8.2440   27.3950   30.0940 N.am  220  VAL220     -0.1963
    168  CA         7.2980   26.5490   29.3770 C.3   220  VAL220      0.1727
    169  C          7.7910   26.4010   27.9380 C.2   220  VAL220      0.2616
    170  O          8.1990   27.3790   27.3030 O.2   220  VAL220     -0.2715
    171  CB         5.8110   26.9750   29.4950 C.3   220  VAL220      0.0290
    172  CG1        4.8960   25.8550   29.0110 C.3   220  VAL220      0.0023
    173  CG2        5.4560   27.3400   30.9390 C.3   220  VAL220      0.0023
    174  N          7.7850   25.1520   27.4620 N.am  221  TYR221     -0.1974
    175  CA         8.3270   24.7030   26.1900 C.3   221  TYR221      0.1639
    176  C          7.2590   24.0140   25.3860 C.2   221  TYR221      0.2290
    177  O          6.3990   23.3800   25.9690 O.2   221  TYR221     -0.2864
    178  CB         9.5020   23.7280   26.4920 C.3   221  TYR221      0.0560
    179  CG        10.6420   24.4140   27.2240 C.ar  221  TYR221     -0.0198
    180  CD1       10.6440   24.5280   28.6200 C.ar  221  TYR221     -0.0009
    181  CD2       11.7110   24.9570   26.5250 C.ar  221  TYR221     -0.0009
    182  CE1       11.6410   25.2560   29.2840 C.ar  221  TYR221      0.0417
    183  CE2       12.7240   25.6570   27.1760 C.ar  221  TYR221      0.0417
    184  CZ        12.6880   25.8060   28.5510 C.ar  221  TYR221      0.1957
    185  OH        13.7160   26.5070   29.1270 O.3   221  TYR221     -0.2866
@<TRIPOS>BOND
     1    28    27    2
     2    27    26    1
     3    26    25    1
     4    26    29    1
     5    20    19    2
     6    19    25   am
     7    19    18    1
     8    17    18    1
     9    14    13    2
    10    18    21    1
    11    13    12    1
    12    29    30    1
    13    15    12    1
    14    15    16    1
    15    23    22   ar
    16    12    11    1
    17    21    22    1
    18    30    31    1
    19    22    24   ar
    20    11     3   am
    21     4     3    2
    22     1     2    1
    23     3     2    1
    24    31    32    1
    25     2     5    1
    26    54    55    2
    27    54    53    1
    28    32    33    1
    29    58    57   ar
    30    53    52    1
    31    53    56    1
    32    99    98    2
    33    34    35    1
    34     5     6    1
    35    98    97    1
    36    57    56    1
    37    57    59   ar
    38     6     8   ar
    39     6     7   ar
    40     8    10   ar
    41    35    36    1
    42     7     9   ar
    43    43    42    1
    44   100    97    1
    45   100   101    1
    46    10     9   ar
    47    38    36   am
    48    38    39    1
    49    97    96    1
    50    36    37    2
    51    41    40    2
    52   105   104    2
    53    44    42    1
    54    42    39    1
    55    39    40    1
    56   102   103    1
    57    40    45   am
    58    48    47    2
    59    90    89    2
    60    47    46    1
    61   104   103    1
    62   104   109   am
    63   114   113    1
    64    45    46    1
    65   103   106    1
    66   106   108    1
    67   106   107    1
    68    46    49    1
    69   110   113    1
    70   110   109    1
    71   110   111    1
    72    89    88    1
    73   112   111    2
    74   111   115   am
    75   176   177    2
    76   176   175    1
    77    88    91    1
    78    88    87    1
    79    49    50    1
    80    49    51    1
    81    91    92    1
    82    93    92    1
    83    93    94    1
    84    84    83    2
    85    95    94    1
    86   175   178    1
    87   175   174    1
    88   115   116    1
    89   178   179    1
    90   181   183   ar
    91   181   179   ar
    92   121   123   ar
    93   121   120   ar
    94    87    83   am
    95   119   116    1
    96   119   120    1
    97    83    82    1
    98   183   184   ar
    99   116   117    1
   100   179   180   ar
   101   170   169    2
   102   123   124   ar
   103   120   122   ar
   104   174   169   am
   105   169   168    1
   106    79    80    1
   107    79    76    1
   108    81    82    1
   109    81    77   am
   110    82    85    1
   111   124   122   ar
   112   124   126   ar
   113   184   185    1
   114   184   182   ar
   115   122   125   ar
   116    85    86    1
   117   180   182   ar
   118   117   118    2
   119   117   129   am
   120   172   171    1
   121    76    77    1
   122    76    75    1
   123    77    78    2
   124   168   171    1
   125   168   167    1
   126   129   130    1
   127   171   173    1
   128   126   128   ar
   129   125   127   ar
   130    64    65    1
   131    64    61    1
   132    86   151    1
   133    65    66    1
   134   167   165   am
   135    75    69   am
   136   128   127   ar
   137   132   131    2
   138   130   131    1
   139   165   166    2
   140   165   164    1
   141    61    62    1
   142    61    60    1
   143    70    69    2
   144    69    68    1
   145   131   133   am
   146    62    63    2
   147    66    60    1
   148   151   150    1
   149   164   163    1
   150    73    72   ar
   151   150   147    1
   152    72    74   ar
   153    72    71    1
   154    68    71    1
   155    68    67    1
   156   133   134    1
   157   146   147    1
   158   146   144   am
   159   147   148    1
   160   163   154   am
   161   142   143    1
   162   142   135   am
   163   143   144    1
   164   144   145    2
   165   134   135    1
   166   134   137    1
   167   155   154    2
   168   135   136    2
   169   154   153    1
   170   148   149    2
   171   138   137    1
   172   138   139    1
   173   140   139    2
   174   139   141   am
   175   153   156    1
   176   153   152    1
   177   156   157    1
   178   157   159   ar
   179   157   158   ar
   180   159   161   ar
   181   158   160   ar
   182   161   162   ar
   183   160   162   ar
