@<TRIPOS>MOLECULE
tmp/4zy1J00.pdb
 206 195 0 0 0
SMALL
GASTEIGER

@<TRIPOS>ATOM
      1  N        108.3710  210.7370  -22.7700 N.3   285  LYS285     -0.1245
      2  CA       106.9670  210.7980  -23.1540 C.3   285  LYS285      0.1561
      3  C        106.8530  210.8560  -24.6690 C.2   285  LYS285      0.2260
      4  O        107.4280  211.7370  -25.3080 O.2   285  LYS285     -0.2867
      5  CB       106.2870  212.0100  -22.5180 C.3   285  LYS285      0.0271
      6  CG       104.9000  212.3280  -23.0510 C.3   285  LYS285      0.0035
      7  CD       104.3270  213.5520  -22.3490 C.3   285  LYS285      0.0206
      8  CE       102.9760  213.9460  -22.9180 C.3   285  LYS285      0.1093
      9  NZ       102.3860  215.1160  -22.2130 N.3   285  LYS285     -0.1314
     10  N         98.7460  215.2860  -29.3360 N.3   290  ASP290     -0.1239
     11  CA        97.8750  215.4620  -28.1860 C.3   290  ASP290      0.1674
     12  C         96.6970  216.3620  -28.5400 C.2   290  ASP290      0.2266
     13  O         96.7600  217.5770  -28.3670 O.2   290  ASP290     -0.2867
     14  CB        98.6600  216.0450  -27.0100 C.3   290  ASP290      0.1410
     15  CG        97.8800  216.0130  -25.7130 C.2   290  ASP290      0.3668
     16  OD1       96.7990  215.3880  -25.6770 O.co2 290  ASP290     -0.2456
     17  OD2       98.3530  216.6130  -24.7260 O.co2 290  ASP290     -0.2456
     18  N         91.5640  220.2450  -26.5290 N.3   297  LYS297     -0.1245
     19  CA        92.2330  221.5350  -26.4260 C.3   297  LYS297      0.1561
     20  C         91.4860  222.5810  -27.2460 C.2   297  LYS297      0.2260
     21  O         91.8090  222.8200  -28.4110 O.2   297  LYS297     -0.2867
     22  CB        93.6870  221.4250  -26.8910 C.3   297  LYS297      0.0271
     23  CG        94.5160  220.4480  -26.0750 C.3   297  LYS297      0.0035
     24  CD        95.9270  220.3230  -26.6180 C.3   297  LYS297      0.0206
     25  CE        96.7710  219.4110  -25.7400 C.3   297  LYS297      0.1093
     26  NZ        96.8730  219.9180  -24.3420 N.3   297  LYS297     -0.1314
     27  N         94.7050  229.5980  -26.4240 N.3   301  GLY301     -0.1210
     28  CA        96.0640  229.4830  -25.9320 C.3   301  GLY301      0.1956
     29  C         96.4970  228.0540  -25.6720 C.2   301  GLY301      0.2613
     30  O         97.6310  227.8080  -25.2600 O.2   301  GLY301     -0.2717
     31  N         95.5960  227.1050  -25.9100 N.am  302  SER302     -0.1938
     32  CA        95.9240  225.6940  -25.7340 C.3   302  SER302      0.2055
     33  C         96.8780  225.2240  -26.8300 C.2   302  SER302      0.2642
     34  O         97.5520  224.2040  -26.6780 O.2   302  SER302     -0.2714
     35  CB        94.6550  224.8380  -25.7210 C.3   302  SER302      0.2130
     36  OG        93.7210  225.2800  -26.6900 O.3   302  SER302     -0.2179
     37  N         96.9210  225.9780  -27.9280 N.am  303  MET303     -0.1976
     38  CA        97.8740  225.7600  -29.0190 C.3   303  MET303      0.1605
     39  C         97.9190  224.3110  -29.5010 C.2   303  MET303      0.2287
     40  O         98.9550  223.6510  -29.4180 O.2   303  MET303     -0.2864
     41  CB        99.2730  226.2120  -28.5900 C.3   303  MET303      0.0413
     42  CG        99.4560  227.7240  -28.5970 C.3   303  MET303      0.0598
     43  SD       101.0560  228.2530  -27.9580 S.3   303  MET303     -0.1393
     44  CE       100.6220  228.7020  -26.2790 C.3   303  MET303      0.0692
     45  N        100.4040  222.8820  -32.1240 N.3   306  LEU306     -0.1231
     46  CA       101.7800  222.6850  -31.6910 C.3   306  LEU306      0.1693
     47  C        101.9690  221.2550  -31.1920 C.2   306  LEU306      0.2591
     48  O        103.0910  220.7690  -31.0530 O.2   306  LEU306     -0.2718
     49  CB       102.1310  223.6920  -30.5890 C.3   306  LEU306      0.0284
     50  CG       103.5000  223.6360  -29.9080 C.3   306  LEU306      0.0019
     51  CD1      104.5600  224.2550  -30.8000 C.3   306  LEU306      0.0001
     52  CD2      103.4560  224.3250  -28.5490 C.3   306  LEU306      0.0001
     53  N        100.8480  220.5760  -30.9640 N.am  307  MET307     -0.1979
     54  CA       100.8180  219.3220  -30.2150 C.3   307  MET307      0.1605
     55  C        101.4610  218.1240  -30.9110 C.2   307  MET307      0.2287
     56  O        101.3880  217.0020  -30.4130 O.2   307  MET307     -0.2864
     57  CB        99.3710  218.9940  -29.8480 C.3   307  MET307      0.0413
     58  CG        98.8510  219.9120  -28.7610 C.3   307  MET307      0.0598
     59  SD        99.9840  219.9260  -27.3600 S.3   307  MET307     -0.1393
     60  CE        99.6120  221.5140  -26.6230 C.3   307  MET307      0.0692
     61  N        104.4400  218.3210  -30.9150 N.3   309  PHE309     -0.1227
     62  CA       105.6240  218.4560  -30.0730 C.3   309  PHE309      0.1736
     63  C        105.5750  217.5660  -28.8310 C.2   309  PHE309      0.2595
     64  O        106.5630  217.4630  -28.1020 O.2   309  PHE309     -0.2718
     65  CB       105.7940  219.9170  -29.6370 C.3   309  PHE309      0.0547
     66  CG       105.1680  220.2280  -28.3060 C.ar  309  PHE309     -0.0202
     67  CD1      105.9570  220.4940  -27.2030 C.ar  309  PHE309     -0.0042
     68  CD2      103.7940  220.2410  -28.1560 C.ar  309  PHE309     -0.0042
     69  CE1      105.3870  220.7770  -25.9760 C.ar  309  PHE309     -0.0003
     70  CE2      103.2220  220.5150  -26.9340 C.ar  309  PHE309     -0.0003
     71  CZ       104.0140  220.7840  -25.8420 C.ar  309  PHE309     -0.0000
     72  N        104.4310  216.9290  -28.5820 N.am  310  ASP310     -0.1974
     73  CA       104.2480  216.1390  -27.3620 C.3   310  ASP310      0.1709
     74  C        105.1050  214.8670  -27.3900 C.2   310  ASP310      0.2293
     75  O        104.9810  214.0020  -26.5240 O.2   310  ASP310     -0.2864
     76  CB       102.7710  215.7890  -27.1700 C.3   310  ASP310      0.1436
     77  CG       102.3360  215.8960  -25.7320 C.2   310  ASP310      0.3671
     78  OD1      102.9970  216.6190  -24.9640 O.co2 310  ASP310     -0.2456
     79  OD2      101.3310  215.2610  -25.3680 O.co2 310  ASP310     -0.2456
     80  N         90.7640  213.9560  -16.3570 N.3   368  ASN368     -0.1240
     81  CA        91.0520  214.7830  -17.5210 C.3   368  ASN368      0.1653
     82  C         91.8740  214.0070  -18.5500 C.2   368  ASN368      0.2266
     83  O         93.0100  213.6170  -18.2820 O.2   368  ASN368     -0.2867
     84  CB        91.7890  216.0550  -17.0890 C.3   368  ASN368      0.1155
     85  CG        91.8330  217.1090  -18.1780 C.2   368  ASN368      0.2627
     86  OD1       91.8860  216.7960  -19.3660 O.2   368  ASN368     -0.2716
     87  ND2       91.8100  218.3730  -17.7730 N.am  368  ASN368     -0.0877
     88  N         93.3150  215.0000  -21.0670 N.3   370  ASP370     -0.1225
     89  CA        94.4340  215.7730  -21.5900 C.3   370  ASP370      0.1805
     90  C         95.6460  215.6850  -20.6640 C.2   370  ASP370      0.2598
     91  O         96.7050  216.2450  -20.9510 O.2   370  ASP370     -0.2718
     92  CB        94.0290  217.2320  -21.7980 C.3   370  ASP370      0.1424
     93  CG        94.9450  217.9560  -22.7610 C.2   370  ASP370      0.3668
     94  OD1       95.6920  217.2760  -23.4950 O.co2 370  ASP370     -0.2456
     95  OD2       94.9160  219.2040  -22.7860 O.co2 370  ASP370     -0.2456
     96  N         95.4800  214.9860  -19.5470 N.am  371  ALA371     -0.1966
     97  CA        96.6010  214.6680  -18.6720 C.3   371  ALA371      0.1728
     98  C         97.0610  213.2450  -18.9610 C.2   371  ALA371      0.2616
     99  O         97.2580  212.4430  -18.0480 O.2   371  ALA371     -0.2715
    100  CB        96.2120  214.8270  -17.2140 C.3   371  ALA371      0.0334
    101  N         97.2310  212.9440  -20.2440 N.am  372  GLU372     -0.1963
    102  CA        97.4830  211.5820  -20.7000 C.3   372  GLU372      0.1733
    103  C         98.9480  211.1750  -20.5710 C.2   372  GLU372      0.2617
    104  O         99.2700  209.9860  -20.5710 O.2   372  GLU372     -0.2715
    105  CB        97.0320  211.4250  -22.1560 C.3   372  GLU372      0.0429
    106  CG        98.0490  211.8940  -23.1960 C.3   372  GLU372      0.1163
    107  CD        98.2930  213.3950  -23.1650 C.2   372  GLU372      0.3649
    108  OE1       97.4300  214.1340  -22.6490 O.co2 372  GLU372     -0.2457
    109  OE2       99.3520  213.8340  -23.6610 O.co2 372  GLU372     -0.2457
    110  N         99.8290  212.1640  -20.4650 N.am  373  GLY373     -0.1940
    111  CA       101.2570  211.9140  -20.4060 C.3   373  GLY373      0.2014
    112  C        101.6790  211.1120  -19.1910 C.2   373  GLY373      0.2638
    113  O        102.4810  210.1870  -19.2990 O.2   373  GLY373     -0.2714
    114  N        101.1320  211.4640  -18.0330 N.am  374  ARG374     -0.1977
    115  CA       101.4790  210.7880  -16.7900 C.3   374  ARG374      0.1597
    116  C        100.9480  209.3570  -16.7700 C.2   374  ARG374      0.2287
    117  O        101.5050  208.4910  -16.0970 O.2   374  ARG374     -0.2864
    118  CB       100.9420  211.5690  -15.5890 C.3   374  ARG374      0.0334
    119  CG        99.4280  211.5500  -15.4540 C.3   374  ARG374      0.0492
    120  CD        98.9520  212.6240  -14.4970 C.3   374  ARG374      0.2205
    121  NE        99.1480  213.9590  -15.0530 N.pl3 374  ARG374     -0.0865
    122  CZ        98.8780  215.0870  -14.4040 C.cat 374  ARG374      0.5346
    123  NH1       98.4060  215.0450  -13.1650 N.pl3 374  ARG374      0.1354
    124  NH2       99.0870  216.2570  -14.9930 N.pl3 374  ARG374      0.1354
    125  N        107.1740  216.5860  -21.9480 N.3   397  THR397     -0.1203
    126  CA       106.4030  217.8170  -22.0490 C.3   397  THR397      0.1994
    127  C        105.0930  217.6160  -21.2960 C.2   397  THR397      0.2618
    128  O        104.0360  217.4450  -21.9050 O.2   397  THR397     -0.2717
    129  CB       106.1180  218.1970  -23.5120 C.3   397  THR397      0.1784
    130  OG1      105.4190  217.1250  -24.1560 O.3   397  THR397     -0.2211
    131  CG2      107.4170  218.4610  -24.2540 C.3   397  THR397      0.0376
    132  N        105.1700  217.6300  -19.9690 N.am  398  LEU398     -0.1965
    133  CA       104.0700  217.1500  -19.1400 C.3   398  LEU398      0.1728
    134  C        103.0270  218.2130  -18.7980 C.2   398  LEU398      0.2617
    135  O        101.8430  218.0170  -19.0580 O.2   398  LEU398     -0.2715
    136  CB       104.6190  216.5400  -17.8480 C.3   398  LEU398      0.0311
    137  CG       103.7570  215.4170  -17.2650 C.3   398  LEU398      0.0022
    138  CD1      103.6570  214.2600  -18.2490 C.3   398  LEU398      0.0001
    139  CD2      104.3040  214.9440  -15.9320 C.3   398  LEU398      0.0001
    140  N        103.4520  219.3260  -18.2060 N.am  399  THR399     -0.1937
    141  CA       102.4950  220.3290  -17.7380 C.3   399  THR399      0.2028
    142  C        102.7280  221.7200  -18.3230 C.2   399  THR399      0.2642
    143  O        103.8490  222.2260  -18.3280 O.2   399  THR399     -0.2714
    144  CB       102.5140  220.4500  -16.2000 C.3   399  THR399      0.1808
    145  OG1      103.8150  220.8640  -15.7660 O.3   399  THR399     -0.2208
    146  CG2      102.1550  219.1190  -15.5490 C.3   399  THR399      0.0379
    147  N        101.6500  222.3400  -18.7940 N.am  400  GLY400     -0.1954
    148  CA       101.7170  223.6810  -19.3450 C.3   400  GLY400      0.1869
    149  C        102.0170  224.7280  -18.2900 C.2   400  GLY400      0.2309
    150  O        102.4090  225.8500  -18.6120 O.2   400  GLY400     -0.2863
    151  N        105.1820  227.0190  -18.0390 N.3   403  LEU403     -0.1245
    152  CA       105.2670  228.3160  -18.6960 C.3   403  LEU403      0.1561
    153  C        105.0820  229.4560  -17.7010 C.2   403  LEU403      0.2260
    154  O        105.6090  230.5500  -17.8930 O.2   403  LEU403     -0.2867
    155  CB       104.2230  228.4150  -19.8090 C.3   403  LEU403      0.0270
    156  CG       104.4970  227.5720  -21.0550 C.3   403  LEU403      0.0019
    157  CD1      103.2660  227.5080  -21.9440 C.3   403  LEU403      0.0001
    158  CD2      105.6870  228.1360  -21.8200 C.3   403  LEU403      0.0001
    159  N         94.4370  213.4750  -11.8760 N.3   458  ILE458     -0.1245
    160  CA        94.7120  214.8830  -11.6090 C.3   458  ILE458      0.1561
    161  C         94.0420  215.3490  -10.3230 C.2   458  ILE458      0.2260
    162  O         93.3030  214.6000   -9.6850 O.2   458  ILE458     -0.2867
    163  CB        94.2450  215.7850  -12.7670 C.3   458  ILE458      0.0252
    164  CG1       92.9100  215.2910  -13.3290 C.3   458  ILE458      0.0019
    165  CG2       95.2920  215.8320  -13.8650 C.3   458  ILE458      0.0019
    166  CD1       91.7170  216.0840  -12.8510 C.3   458  ILE458      0.0001
    167  N        100.0800  222.1050  -10.8270 N.3   465  SER465     -0.1217
    168  CA        99.8970  220.8110  -11.4730 C.3   465  SER465      0.1889
    169  C        101.2070  220.0690  -11.7100 C.2   465  SER465      0.2288
    170  O        101.2400  218.8410  -11.6680 O.2   465  SER465     -0.2866
    171  CB        99.1550  220.9890  -12.8010 C.3   465  SER465      0.2089
    172  OG        99.7580  221.9970  -13.5920 O.3   465  SER465     -0.2183
    173  N        108.0030  220.9440  -20.8150 N.3   488  ALA488     -0.1231
    174  CA       106.8330  221.4150  -21.5530 C.3   488  ALA488      0.1694
    175  C        106.9460  222.8810  -21.9620 C.2   488  ALA488      0.2592
    176  O        106.4130  223.2870  -22.9950 O.2   488  ALA488     -0.2718
    177  CB       105.5770  221.2000  -20.7320 C.3   488  ALA488      0.0304
    178  N        107.6420  223.6720  -21.1550 N.am  489  GLY489     -0.1957
    179  CA       107.7750  225.0910  -21.4250 C.3   489  GLY489      0.1869
    180  C        108.9800  225.4470  -22.2750 C.2   489  GLY489      0.2309
    181  O        109.0110  226.5030  -22.9040 O.2   489  GLY489     -0.2863
    182  N        109.7980  223.9850  -27.1710 N.3   492  TRP492     -0.1241
    183  CA       109.6180  224.7010  -28.4280 C.3   492  TRP492      0.1605
    184  C        110.2850  226.0740  -28.4270 C.2   492  TRP492      0.2264
    185  O        110.2240  226.8080  -27.4410 O.2   492  TRP492     -0.2867
    186  CB       108.1290  224.8560  -28.7400 C.3   492  TRP492      0.0550
    187  CG       107.8630  225.2670  -30.1530 C.ar  492  TRP492      0.0003
    188  CD1      107.5100  226.5090  -30.5950 C.ar  492  TRP492      0.0946
    189  CD2      107.9360  224.4330  -31.3150 C.ar  492  TRP492      0.0152
    190  NE1      107.3550  226.5000  -31.9600 N.ar  492  TRP492     -0.2442
    191  CE2      107.6090  225.2360  -32.4270 C.ar  492  TRP492      0.0810
    192  CE3      108.2390  223.0840  -31.5240 C.ar  492  TRP492      0.0012
    193  CZ2      107.5810  224.7360  -33.7270 C.ar  492  TRP492      0.0191
    194  CZ3      108.2080  222.5890  -32.8150 C.ar  492  TRP492      0.0001
    195  CH2      107.8830  223.4130  -33.9000 C.ar  492  TRP492      0.0015
    196  N        109.7730  229.4390  -29.8480 N.3   494  PHE494     -0.1241
    197  CA       108.6910  230.2010  -30.4640 C.3   494  PHE494      0.1605
    198  C        109.1860  231.3390  -31.3500 C.2   494  PHE494      0.2264
    199  O        108.5200  231.7120  -32.3150 O.2   494  PHE494     -0.2867
    200  CB       107.7570  230.7500  -29.3860 C.3   494  PHE494      0.0534
    201  CG       106.9270  229.6960  -28.7200 C.ar  494  PHE494     -0.0203
    202  CD1      107.3730  229.0670  -27.5700 C.ar  494  PHE494     -0.0042
    203  CD2      105.7050  229.3220  -29.2530 C.ar  494  PHE494     -0.0042
    204  CE1      106.6110  228.0900  -26.9590 C.ar  494  PHE494     -0.0003
    205  CE2      104.9380  228.3470  -28.6470 C.ar  494  PHE494     -0.0003
    206  CZ       105.3920  227.7300  -27.4990 C.ar  494  PHE494     -0.0000
@<TRIPOS>BOND
     1   195   193   ar
     2   195   194   ar
     3   193   191   ar
     4   194   192   ar
     5   191   190   ar
     6   191   189   ar
     7   199   198    2
     8    45    46    1
     9   190   188   ar
    10    46    47    1
    11    46    49    1
    12   192   189   ar
    13   198   197    1
    14   189   187   ar
    15    47    48    2
    16    47    53   am
    17    53    54    1
    18    61    62    1
    19    55    56    2
    20    55    54    1
    21    51    50    1
    22   188   187   ar
    23    49    50    1
    24   197   196    1
    25   197   200    1
    26    54    57    1
    27   187   186    1
    28    62    65    1
    29    62    63    1
    30    50    52    1
    31    57    58    1
    32    65    66    1
    33    39    40    2
    34    39    38    1
    35   200   201    1
    36    10    11    1
    37   203   201   ar
    38   203   205   ar
    39    38    41    1
    40    38    37    1
    41    63    72   am
    42    63    64    2
    43    58    59    1
    44   186   183    1
    45   201   202   ar
    46   205   206   ar
    47    42    41    1
    48    42    43    1
    49    72    73    1
    50    12    13    2
    51    12    11    1
    52   183   184    1
    53   183   182    1
    54   184   185    2
    55    21    20    2
    56    66    68   ar
    57    66    67   ar
    58    11    14    1
    59    68    70   ar
    60    43    44    1
    61    37    33   am
    62   202   204   ar
    63   206   204   ar
    64    74    73    1
    65    74    75    2
    66    73    76    1
    67    59    60    1
    68    20    19    1
    69    67    69   ar
    70    76    77    1
    71    14    15    1
    72    70    71   ar
    73    22    19    1
    74    22    23    1
    75    33    34    2
    76    33    32    1
    77    36    35    1
    78    24    23    1
    79    24    25    1
    80    18    19    1
    81    27    28    1
    82    69    71   ar
    83    28    29    1
    84    31    32    1
    85    31    29   am
    86    25    26    1
    87    32    35    1
    88    77    79   ar
    89    77    78   ar
    90    15    16   ar
    91    15    17   ar
    92    29    30    2
    93     4     3    2
    94     3     2    1
    95   131   129    1
    96   130   129    1
    97   109   107   ar
    98   129   126    1
    99    94    93   ar
   100   106   107    1
   101   106   105    1
   102   107   108   ar
   103     2     1    1
   104     2     5    1
   105     6     5    1
   106     6     7    1
   107   176   175    2
   108     8     7    1
   109     8     9    1
   110   181   180    2
   111    95    93   ar
   112    93    92    1
   113   180   179    1
   114   105   102    1
   115   126   125    1
   116   126   127    1
   117   175   174    1
   118   175   178   am
   119   157   156    1
   120   128   127    2
   121   158   156    1
   122    92    89    1
   123    89    88    1
   124    89    90    1
   125   174   173    1
   126   174   177    1
   127   179   178    1
   128   127   132   am
   129   156   155    1
   130    91    90    2
   131   102   103    1
   132   102   101    1
   133    90    96   am
   134   104   103    2
   135   103   110   am
   136   110   111    1
   137   111   112    1
   138   101    98   am
   139   132   133    1
   140   155   152    1
   141    96    97    1
   142    86    85    2
   143   148   147    1
   144   148   149    1
   145   113   112    2
   146   112   114   am
   147   133   134    1
   148   133   136    1
   149   135   134    2
   150    98    97    1
   151    98    99    2
   152   134   140   am
   153   147   142   am
   154   152   151    1
   155   152   153    1
   156    97   100    1
   157   150   149    2
   158    82    83    2
   159    82    81    1
   160   143   142    2
   161   142   141    1
   162   138   137    1
   163   140   141    1
   164    85    87   am
   165    85    84    1
   166   114   115    1
   167   154   153    2
   168   136   137    1
   169   141   144    1
   170    81    84    1
   171    81    80    1
   172   137   139    1
   173   115   116    1
   174   115   118    1
   175   116   117    2
   176   144   145    1
   177   144   146    1
   178   118   119    1
   179   119   120    1
   180   121   120    1
   181   121   122    2
   182   124   122    1
   183   122   123    1
   184   165   163    1
   185   172   171    1
   186   164   166    1
   187   164   163    1
   188   171   168    1
   189   163   160    1
   190   159   160    1
   191   169   170    2
   192   169   168    1
   193   160   161    1
   194   168   167    1
   195   161   162    2
