@<TRIPOS>MOLECULE
tmp/4zy3A00.pdb
 139 130 0 0 0
SMALL
GASTEIGER

@<TRIPOS>ATOM
      1  N        -47.7720  -11.9870   -8.7790 N.3    10  TYR10      -0.1241
      2  CA       -49.0540  -12.6900   -8.9430 C.3    10  TYR10       0.1605
      3  C        -49.1370  -13.2980  -10.3220 C.2    10  TYR10       0.2264
      4  O        -48.9090  -12.6330  -11.3400 O.2    10  TYR10      -0.2867
      5  CB       -50.1350  -11.6930   -8.7840 C.3    10  TYR10       0.0534
      6  CG       -51.5420  -12.2300   -9.0020 C.ar   10  TYR10      -0.0201
      7  CD1      -52.3110  -12.6600   -7.9030 C.ar   10  TYR10      -0.0009
      8  CD2      -52.0910  -12.3630  -10.3120 C.ar   10  TYR10      -0.0009
      9  CE1      -53.6190  -13.2040   -8.1080 C.ar   10  TYR10       0.0417
     10  CE2      -53.4250  -12.8620  -10.5090 C.ar   10  TYR10       0.0417
     11  CZ       -54.1430  -13.2870   -9.3830 C.ar   10  TYR10       0.1957
     12  OH       -55.4450  -13.7870   -9.4250 O.3    10  TYR10      -0.2866
     13  N        -48.2320  -10.5080   -3.2900 N.3    39  SER39      -0.1202
     14  CA       -48.2400   -9.6250   -4.4390 C.3    39  SER39       0.2020
     15  C        -48.5690   -8.1970   -3.9410 C.2    39  SER39       0.2619
     16  O        -48.9960   -8.0170   -2.8220 O.2    39  SER39      -0.2717
     17  CB       -49.2980  -10.0450   -5.4230 C.3    39  SER39       0.2103
     18  OG       -50.5250  -10.2810   -4.7720 O.3    39  SER39      -0.2182
     19  N        -48.3020   -7.1950   -4.7570 N.am   40  GLY40      -0.1956
     20  CA       -48.6230   -5.8030   -4.3850 C.3    40  GLY40       0.1869
     21  C        -47.6780   -5.2730   -3.3060 C.2    40  GLY40       0.2309
     22  O        -48.0090   -4.2910   -2.6420 O.2    40  GLY40      -0.2863
     23  N        -53.1770  -13.2450   -2.1820 N.3    58  ASN58      -0.1240
     24  CA       -54.3930  -13.6070   -2.9070 C.3    58  ASN58       0.1653
     25  C        -54.2500  -15.0890   -3.1920 C.2    58  ASN58       0.2266
     26  O        -53.4610  -15.4660   -4.0610 O.2    58  ASN58      -0.2867
     27  CB       -54.4420  -12.8970   -4.2480 C.3    58  ASN58       0.1155
     28  CG       -54.7200  -11.4190   -4.1470 C.2    58  ASN58       0.2627
     29  OD1      -53.9640  -10.5350   -4.6900 O.2    58  ASN58      -0.2716
     30  ND2      -55.8330  -11.1110   -3.5150 N.am   58  ASN58      -0.0877
     31  N        -51.4560   -3.2160    1.2500 N.3    90  ASN90      -0.1225
     32  CA       -51.3570   -3.7690   -0.0930 C.3    90  ASN90       0.1785
     33  C        -51.1930   -2.6930   -1.1140 C.2    90  ASN90       0.2597
     34  O        -51.7130   -1.6190   -0.9270 O.2    90  ASN90      -0.2718
     35  CB       -52.6230   -4.5950   -0.4060 C.3    90  ASN90       0.1169
     36  CG       -52.5810   -5.2680   -1.7370 C.2    90  ASN90       0.2627
     37  OD1      -51.5350   -5.8090   -2.1650 O.2    90  ASN90      -0.2716
     38  ND2      -53.7870   -5.3620   -2.4140 N.am   90  ASN90      -0.0877
     39  N        -50.5320   -2.9780   -2.2310 N.am   91  ARG91      -0.1979
     40  CA       -50.2750   -1.9700   -3.2620 C.3    91  ARG91       0.1597
     41  C        -49.5550   -0.7770   -2.6650 C.2    91  ARG91       0.2287
     42  O        -49.8820    0.3460   -2.9080 O.2    91  ARG91      -0.2864
     43  CB       -51.5500   -1.5570   -3.9790 C.3    91  ARG91       0.0334
     44  CG       -52.3110   -2.7580   -4.5000 C.3    91  ARG91       0.0492
     45  CD       -53.5240   -2.3250   -5.2960 C.3    91  ARG91       0.2205
     46  NE       -54.3840   -3.4640   -5.5440 N.pl3  91  ARG91      -0.0865
     47  CZ       -55.5940   -3.3270   -6.0810 C.cat  91  ARG91       0.5346
     48  NH1      -56.0350   -2.1330   -6.4100 N.pl3  91  ARG91       0.1354
     49  NH2      -56.3500   -4.3730   -6.2890 N.pl3  91  ARG91       0.1354
     50  N        -51.6460    1.7680   -4.8140 N.3   138  GLY138     -0.1225
     51  CA       -51.0840    1.7490   -6.1420 C.3   138  GLY138      0.1811
     52  C        -50.1750    2.9030   -6.4030 C.2   138  GLY138      0.2280
     53  O        -50.0770    3.3700   -7.4830 O.2   138  GLY138     -0.2866
     54  N        -58.8650    8.0010   -9.3510 N.3   159  ARG159     -0.1245
     55  CA       -57.4980    7.6460   -9.7320 C.3   159  ARG159      0.1563
     56  C        -56.6900    8.9240   -9.9200 C.2   159  ARG159      0.2260
     57  O        -57.2060    9.9490  -10.3930 O.2   159  ARG159     -0.2867
     58  CB       -57.6030    6.8250  -10.9550 C.3   159  ARG159      0.0307
     59  CG       -56.4870    5.8540  -11.1130 C.3   159  ARG159      0.0489
     60  CD       -56.8480    4.8420  -12.1400 C.3   159  ARG159      0.2205
     61  NE       -58.0020    4.1220  -11.7310 N.pl3 159  ARG159     -0.0865
     62  CZ       -58.0450    3.1090  -10.8830 C.cat 159  ARG159      0.5346
     63  NH1      -57.0020    2.6420  -10.2180 N.pl3 159  ARG159      0.1354
     64  NH2      -59.2170    2.5840  -10.6340 N.pl3 159  ARG159      0.1354
     65  N        -52.3900    4.8730  -11.7450 N.3   184  SER184     -0.1202
     66  CA       -52.1980    4.0140  -10.5920 C.3   184  SER184      0.2020
     67  C        -51.4470    2.7880  -11.0070 C.2   184  SER184      0.2619
     68  O        -51.4170    2.3950  -12.2150 O.2   184  SER184     -0.2717
     69  CB       -53.5670    3.6740   -9.9750 C.3   184  SER184      0.2103
     70  OG       -54.3600    2.8290  -10.7990 O.3   184  SER184     -0.2182
     71  N        -50.7010    2.1660  -10.1110 N.am  185  GLY185     -0.1956
     72  CA       -49.9380    0.9880  -10.4720 C.3   185  GLY185      0.1869
     73  C        -48.7980    1.1570  -11.4700 C.2   185  GLY185      0.2309
     74  O        -48.5080    0.2710  -12.2360 O.2   185  GLY185     -0.2863
     75  N        -52.1620    2.5030  -14.8470 N.3   201  TYR201     -0.1241
     76  CA       -53.5720    2.3190  -15.3430 C.3   201  TYR201      0.1605
     77  C        -54.2070    3.6990  -15.1670 C.2   201  TYR201      0.2264
     78  O        -54.0630    4.3720  -14.1000 O.2   201  TYR201     -0.2867
     79  CB       -54.1940    1.2240  -14.5170 C.3   201  TYR201      0.0534
     80  CG       -55.6500    1.0110  -14.9490 C.ar  201  TYR201     -0.0201
     81  CD1      -55.9230    0.4240  -16.1520 C.ar  201  TYR201     -0.0009
     82  CD2      -56.7220    1.3880  -14.1160 C.ar  201  TYR201     -0.0009
     83  CE1      -57.2400    0.1690  -16.5550 C.ar  201  TYR201      0.0417
     84  CE2      -58.0440    1.1620  -14.5260 C.ar  201  TYR201      0.0417
     85  CZ       -58.2760    0.5730  -15.7290 C.ar  201  TYR201      0.1957
     86  OH       -59.5570    0.3320  -16.1540 O.3   201  TYR201     -0.2866
     87  N        -54.3230    0.0790  -19.6210 N.3   206  GLN206     -0.1245
     88  CA       -52.9050    0.0490  -19.2810 C.3   206  GLN206      0.1566
     89  C        -52.1350    0.9930  -20.2050 C.2   206  GLN206      0.2260
     90  O        -52.4450    1.0870  -21.4100 O.2   206  GLN206     -0.2867
     91  CB       -52.4020   -1.3610  -19.4840 C.3   206  GLN206      0.0367
     92  CG       -52.6810   -2.2950  -18.3350 C.3   206  GLN206      0.0905
     93  CD       -54.1160   -2.7350  -18.1670 C.2   206  GLN206      0.2608
     94  OE1      -54.8740   -2.7060  -19.1390 O.2   206  GLN206     -0.2717
     95  NE2      -54.4780   -3.2090  -16.9430 N.am  206  GLN206     -0.0878
     96  N        -49.3940   -2.3440  -16.2840 N.3   231  SER231     -0.1202
     97  CA       -49.7620   -1.8270  -14.9430 C.3   231  SER231      0.2020
     98  C        -49.2220   -2.8520  -13.9440 C.2   231  SER231      0.2618
     99  O        -48.9950   -4.0060  -14.2680 O.2   231  SER231     -0.2717
    100  CB       -51.2800   -1.6010  -14.7380 C.3   231  SER231      0.2103
    101  OG       -52.0000   -2.8270  -14.9570 O.3   231  SER231     -0.2182
    102  N        -48.9630   -2.4030  -12.7330 N.am  232  ALA232     -0.1979
    103  CA       -48.4790   -3.3160  -11.6680 C.3   232  ALA232      0.1597
    104  C        -47.1470   -3.8950  -12.0630 C.2   232  ALA232      0.2287
    105  O        -46.8680   -5.0420  -11.8670 O.2   232  ALA232     -0.2864
    106  CB       -49.5430   -4.4060  -11.3680 C.3   232  ALA232      0.0319
    107  N        -49.1510   -6.3480  -15.9770 N.3   248  TYR248     -0.1241
    108  CA       -50.3400   -6.9020  -16.6850 C.3   248  TYR248      0.1605
    109  C        -50.5930   -5.9660  -17.8410 C.2   248  TYR248      0.2264
    110  O        -50.5630   -4.7600  -17.6290 O.2   248  TYR248     -0.2867
    111  CB       -51.5140   -6.8950  -15.7690 C.3   248  TYR248      0.0534
    112  CG       -52.7310   -7.6400  -16.3470 C.ar  248  TYR248     -0.0201
    113  CD1      -52.6660   -8.9930  -16.7060 C.ar  248  TYR248     -0.0009
    114  CD2      -53.8900   -6.9300  -16.5900 C.ar  248  TYR248     -0.0009
    115  CE1      -53.7750   -9.6680  -17.3070 C.ar  248  TYR248      0.0417
    116  CE2      -55.0050   -7.5710  -17.1860 C.ar  248  TYR248      0.0417
    117  CZ       -54.9480   -8.9010  -17.4970 C.ar  248  TYR248      0.1957
    118  OH       -56.0990   -9.4390  -18.0590 O.3   248  TYR248     -0.2866
    119  N        -50.1250  -11.6790  -18.3190 N.3   253  PHE253     -0.1241
    120  CA       -49.2050  -11.2900  -17.2690 C.3   253  PHE253      0.1605
    121  C        -47.8430  -11.4490  -17.9510 C.2   253  PHE253      0.2264
    122  O        -47.4970  -12.5570  -18.3630 O.2   253  PHE253     -0.2867
    123  CB       -49.4020  -12.2210  -16.1040 C.3   253  PHE253      0.0534
    124  CG       -50.6600  -11.9430  -15.3350 C.ar  253  PHE253     -0.0203
    125  CD1      -51.8580  -12.5990  -15.6620 C.ar  253  PHE253     -0.0042
    126  CD2      -50.6580  -11.0190  -14.3110 C.ar  253  PHE253     -0.0042
    127  CE1      -53.0120  -12.2720  -14.9840 C.ar  253  PHE253     -0.0003
    128  CE2      -51.7810  -10.6830  -13.6310 C.ar  253  PHE253     -0.0003
    129  CZ       -52.9570  -11.3740  -13.9300 C.ar  253  PHE253     -0.0000
    130  N        -47.2490  -10.1290  -12.2560 N.3   278  SER278     -0.1202
    131  CA       -47.4250   -8.7120  -11.9620 C.3   278  SER278      0.2020
    132  C        -47.3110   -8.5440  -10.4670 C.2   278  SER278      0.2619
    133  O        -47.1600   -9.4860   -9.7010 O.2   278  SER278     -0.2717
    134  CB       -48.7820   -8.1610  -12.4390 C.3   278  SER278      0.2103
    135  OG       -49.7870   -8.7970  -11.6440 O.3   278  SER278     -0.2182
    136  N        -47.2100   -7.3020  -10.0710 N.am  279  GLY279     -0.1956
    137  CA       -47.2210   -6.8710   -8.6700 C.3   279  GLY279      0.1869
    138  C        -46.0450   -7.3510   -7.8980 C.2   279  GLY279      0.2309
    139  O        -46.2070   -7.6660   -6.6830 O.2   279  GLY279     -0.2863
@<TRIPOS>BOND
     1    90    89    2
     2    89    88    1
     3    87    88    1
     4    91    88    1
     5    91    92    1
     6    94    93    2
     7   122   121    2
     8    92    93    1
     9   119   120    1
    10    93    95   am
    11   118   117    1
    12   121   120    1
    13   109   110    2
    14   109   108    1
    15   117   115   ar
    16   117   116   ar
    17   115   113   ar
    18   120   123    1
    19   116   114   ar
    20   113   112   ar
    21   108   107    1
    22   108   111    1
    23   114   112   ar
    24    83    81   ar
    25    83    85   ar
    26   112   111    1
    27    96    97    1
    28    86    85    1
    29    81    80   ar
    30   123   124    1
    31    85    84   ar
    32   125   124   ar
    33   125   127   ar
    34    76    77    1
    35    76    75    1
    36    76    79    1
    37   124   126   ar
    38    77    78    2
    39   127   129   ar
    40   101   100    1
    41    80    79    1
    42    80    82   ar
    43    97   100    1
    44    97    98    1
    45    84    82   ar
    46   126   128   ar
    47    99    98    2
    48    98   102   am
    49   129   128   ar
    50   102   103    1
    51   134   131    1
    52   134   135    1
    53   130   131    1
    54    74    73    2
    55    68    67    2
    56    60    61    1
    57    60    59    1
    58   104   105    2
    59   104   103    1
    60   131   132    1
    61    65    66    1
    62    61    62    2
    63   103   106    1
    64    73    72    1
    65     4     3    2
    66    59    58    1
    67    67    66    1
    68    67    71   am
    69    58    55    1
    70    62    64    1
    71    62    63    1
    72    70    69    1
    73    66    69    1
    74    10     8   ar
    75    10    11   ar
    76    72    71    1
    77   132   136   am
    78   132   133    2
    79    57    56    2
    80     3     2    1
    81     8     6   ar
    82   136   137    1
    83    56    55    1
    84    55    54    1
    85    12    11    1
    86    11     9   ar
    87     6     5    1
    88     6     7   ar
    89     2     5    1
    90     2     1    1
    91   137   138    1
    92     9     7   ar
    93   138   139    2
    94    53    52    2
    95    48    47    1
    96    52    51    1
    97    49    47    1
    98    51    50    1
    99    47    46    2
   100    46    45    1
   101    17    18    1
   102    17    14    1
   103    45    44    1
   104    19    20    1
   105    19    15   am
   106    29    28    2
   107    44    43    1
   108    14    15    1
   109    14    13    1
   110    20    21    1
   111    27    28    1
   112    27    24    1
   113    28    30   am
   114    26    25    2
   115    43    40    1
   116    15    16    2
   117    21    22    2
   118    40    41    1
   119    40    39    1
   120    25    24    1
   121    42    41    2
   122    24    23    1
   123    38    36   am
   124    39    33   am
   125    37    36    2
   126    36    35    1
   127    33    34    2
   128    33    32    1
   129    35    32    1
   130    32    31    1
