@<TRIPOS>MOLECULE
tmp/4zy4B00.pdb
 144 133 0 0 0
SMALL
GASTEIGER

@<TRIPOS>ATOM
      1  N         10.3380  -18.5180  -16.0660 N.3    28  ILE28      -0.1245
      2  CA        11.2790  -17.4440  -16.4000 C.3    28  ILE28       0.1561
      3  C         11.5690  -16.5260  -15.2180 C.2    28  ILE28       0.2260
      4  O         12.4350  -15.6550  -15.2940 O.2    28  ILE28      -0.2867
      5  CB        10.7740  -16.5680  -17.5660 C.3    28  ILE28       0.0252
      6  CG1        9.5150  -15.7960  -17.1580 C.3    28  ILE28       0.0019
      7  CG2       10.5530  -17.4140  -18.8140 C.3    28  ILE28       0.0019
      8  CD1        9.1000  -14.7280  -18.1490 C.3    28  ILE28       0.0001
      9  N          6.2580  -16.8680  -12.3220 N.3    36  VAL36      -0.1245
     10  CA         5.9270  -16.4510  -13.6790 C.3    36  VAL36       0.1561
     11  C          6.5050  -17.4030  -14.7260 C.2    36  VAL36       0.2260
     12  O          7.7220  -17.5280  -14.8630 O.2    36  VAL36      -0.2867
     13  CB         6.4300  -15.0280  -13.9660 C.3    36  VAL36       0.0252
     14  CG1        6.0320  -14.6040  -15.3700 C.3    36  VAL36       0.0019
     15  CG2        5.8780  -14.0530  -12.9380 C.3    36  VAL36       0.0019
     16  N          2.8130  -14.8200  -21.1800 N.3    49  ALA49      -0.1245
     17  CA         3.3810  -14.9310  -19.8390 C.3    49  ALA49       0.1562
     18  C          2.2630  -15.2150  -18.8410 C.2    49  ALA49       0.2260
     19  O          1.1710  -14.6570  -18.9440 O.2    49  ALA49      -0.2867
     20  CB         4.1280  -13.6690  -19.4600 C.3    49  ALA49       0.0290
     21  N          1.4340  -15.4660  -14.7690 N.3    51  LYS51      -0.1245
     22  CA         1.7360  -15.3360  -13.3480 C.3    51  LYS51       0.1561
     23  C          0.7780  -16.2060  -12.5570 C.2    51  LYS51       0.2260
     24  O         -0.4280  -16.2220  -12.8090 O.2    51  LYS51      -0.2867
     25  CB         1.6450  -13.8800  -12.8870 C.3    51  LYS51       0.0271
     26  CG         2.2410  -13.6270  -11.5130 C.3    51  LYS51       0.0035
     27  CD         2.2860  -12.1370  -11.2020 C.3    51  LYS51       0.0206
     28  CE         3.1530  -11.8470   -9.9860 C.3    51  LYS51       0.1093
     29  NZ         3.1330  -10.4030   -9.6030 N.3    51  LYS51      -0.1314
     30  N          3.1250   -3.7890  -20.3590 N.3    79  VAL79      -0.1245
     31  CA         2.7830   -5.2130  -20.4040 C.3    79  VAL79       0.1561
     32  C          1.3290   -5.3630  -19.9550 C.2    79  VAL79       0.2260
     33  O          1.0180   -5.1610  -18.7840 O.2    79  VAL79      -0.2867
     34  CB         3.7010   -6.0780  -19.5090 C.3    79  VAL79       0.0252
     35  CG1        3.2170   -7.5150  -19.4840 C.3    79  VAL79       0.0019
     36  CG2        5.1420   -6.0150  -19.9820 C.3    79  VAL79       0.0019
     37  N         -0.5020  -12.4570  -19.2250 N.3    95  MET95      -0.1230
     38  CA        -0.0140  -11.1580  -19.6650 C.3    95  MET95       0.1702
     39  C          0.6840  -11.3190  -21.0020 C.2    95  MET95       0.2592
     40  O          1.1030  -12.4220  -21.3460 O.2    95  MET95      -0.2718
     41  CB         0.9460  -10.5630  -18.6340 C.3    95  MET95       0.0401
     42  CG         0.3470  -10.3880  -17.2520 C.3    95  MET95       0.0596
     43  SD         1.6210  -10.2340  -15.9830 S.3    95  MET95      -0.1393
     44  CE         0.6160  -10.0570  -14.5150 C.3    95  MET95       0.0692
     45  N          0.8140  -10.2340  -21.7590 N.am   96  GLU96      -0.1966
     46  CA         1.4880  -10.3350  -23.0450 C.3    96  GLU96       0.1733
     47  C          2.9820  -10.5170  -22.8020 C.2    96  GLU96       0.2616
     48  O          3.5390   -9.9550  -21.8670 O.2    96  GLU96      -0.2715
     49  CB         1.1920   -9.1220  -23.9360 C.3    96  GLU96       0.0429
     50  CG         1.5530   -7.7630  -23.3840 C.3    96  GLU96       0.1163
     51  CD         0.6980   -6.6580  -23.9920 C.2    96  GLU96       0.3649
     52  OE1       -0.1300   -6.9500  -24.8790 O.co2  96  GLU96      -0.2457
     53  OE2        0.8400   -5.4950  -23.5750 O.co2  96  GLU96      -0.2457
     54  N          3.6170  -11.3440  -23.6240 N.am   97  TYR97      -0.1960
     55  CA         4.9960  -11.7460  -23.3750 C.3    97  TYR97       0.1771
     56  C          5.9560  -11.1250  -24.3770 C.2    97  TYR97       0.2619
     57  O          5.6660  -11.0640  -25.5700 O.2    97  TYR97      -0.2715
     58  CB         5.1080  -13.2730  -23.4090 C.3    97  TYR97       0.0574
     59  CG         6.5170  -13.8070  -23.4950 C.ar   97  TYR97      -0.0198
     60  CD1        7.4040  -13.6540  -22.4400 C.ar   97  TYR97      -0.0009
     61  CD2        6.9580  -14.4780  -24.6330 C.ar   97  TYR97      -0.0009
     62  CE1        8.6990  -14.1470  -22.5160 C.ar   97  TYR97       0.0417
     63  CE2        8.2540  -14.9800  -24.7200 C.ar   97  TYR97       0.0417
     64  CZ         9.1160  -14.8160  -23.6570 C.ar   97  TYR97       0.1957
     65  OH        10.4010  -15.3080  -23.7280 O.3    97  TYR97      -0.2866
     66  N          7.0950  -10.6510  -23.8790 N.am   98  LEU98      -0.1963
     67  CA         8.1550  -10.1220  -24.7330 C.3    98  LEU98       0.1728
     68  C          9.3970  -10.9790  -24.5890 C.2    98  LEU98       0.2616
     69  O          9.9750  -11.0620  -23.5050 O.2    98  LEU98      -0.2715
     70  CB         8.4800   -8.6690  -24.3840 C.3    98  LEU98       0.0311
     71  CG         7.3960   -7.6290  -24.6680 C.3    98  LEU98       0.0022
     72  CD1        7.9310   -6.2340  -24.4070 C.3    98  LEU98       0.0001
     73  CD2        6.8920   -7.7380  -26.0950 C.3    98  LEU98       0.0001
     74  N          9.8020  -11.6160  -25.6840 N.am   99  ALA99      -0.1977
     75  CA        10.9480  -12.5130  -25.6610 C.3    99  ALA99       0.1597
     76  C         12.2690  -11.7630  -25.8180 C.2    99  ALA99       0.2287
     77  O         13.3300  -12.3180  -25.5610 O.2    99  ALA99      -0.2864
     78  CB        10.8090  -13.5630  -26.7400 C.3    99  ALA99       0.0319
     79  N         13.6450   -9.6660  -23.9900 N.3   101  GLY101     -0.1210
     80  CA        14.3560   -9.4750  -22.7370 C.3   101  GLY101      0.1956
     81  C         14.2860   -8.0480  -22.2220 C.2   101  GLY101      0.2612
     82  O         13.5440   -7.2210  -22.7530 O.2   101  GLY101     -0.2717
     83  N         15.0620   -7.7530  -21.1820 N.am  102  SER102     -0.1952
     84  CA        15.0340   -6.4240  -20.5800 C.3   102  SER102      0.1924
     85  C         16.1370   -5.5260  -21.1320 C.2   102  SER102      0.2314
     86  O         17.1260   -5.9970  -21.6840 O.2   102  SER102     -0.2863
     87  CB        15.1520   -6.5120  -19.0530 C.3   102  SER102      0.2116
     88  OG        16.5090   -6.4750  -18.6430 O.3   102  SER102     -0.2180
     89  N         20.1800   -5.8100  -20.1770 N.3   105  ASP105     -0.1239
     90  CA        21.0950   -6.6570  -20.9280 C.3   105  ASP105      0.1674
     91  C         21.6350   -5.9200  -22.1530 C.2   105  ASP105      0.2266
     92  O         22.8080   -6.0360  -22.4850 O.2   105  ASP105     -0.2867
     93  CB        20.4070   -7.9560  -21.3450 C.3   105  ASP105      0.1410
     94  CG        20.3560   -8.9760  -20.2200 C.2   105  ASP105      0.3668
     95  OD1       21.1800   -8.8760  -19.2860 O.co2 105  ASP105     -0.2456
     96  OD2       19.4950   -9.8810  -20.2730 O.co2 105  ASP105     -0.2456
     97  N         15.9020   -2.8370  -16.0360 N.3   144  ASP144     -0.1225
     98  CA        15.4210   -4.2150  -15.9080 C.3   144  ASP144      0.1805
     99  C         13.8990   -4.3040  -15.7570 C.2   144  ASP144      0.2597
    100  O         13.3570   -5.3930  -15.5620 O.2   144  ASP144     -0.2718
    101  CB        16.0980   -4.9170  -14.7280 C.3   144  ASP144      0.1424
    102  CG        15.9170   -4.1690  -13.4220 C.2   144  ASP144      0.3668
    103  OD1       15.9050   -2.9180  -13.4510 O.co2 144  ASP144     -0.2456
    104  OD2       15.7910   -4.8310  -12.3670 O.co2 144  ASP144     -0.2456
    105  N         13.2150   -3.1670  -15.8570 N.am  145  ASN145     -0.1974
    106  CA        11.7530   -3.1450  -15.8270 C.3   145  ASN145      0.1688
    107  C         11.1880   -2.6320  -17.1370 C.2   145  ASN145      0.2292
    108  O          9.9850   -2.4010  -17.2760 O.2   145  ASN145     -0.2864
    109  CB        11.2410   -2.2900  -14.6710 C.3   145  ASN145      0.1181
    110  CG        11.3970   -2.9730  -13.3380 C.2   145  ASN145      0.2629
    111  OD1       11.7420   -4.1530  -13.2720 O.2   145  ASN145     -0.2716
    112  ND2       11.1320   -2.2410  -12.2640 N.am  145  ASN145     -0.0877
    113  N         10.8260   -3.8690  -20.8830 N.3   147  LEU147     -0.1245
    114  CA        10.9090   -5.0700  -21.6970 C.3   147  LEU147      0.1561
    115  C         10.8740   -4.7420  -23.1930 C.2   147  LEU147      0.2260
    116  O         10.2390   -3.7700  -23.6180 O.2   147  LEU147     -0.2867
    117  CB         9.7810   -6.0340  -21.3290 C.3   147  LEU147      0.0270
    118  CG         9.8540   -6.6710  -19.9390 C.3   147  LEU147      0.0019
    119  CD1        8.7010   -7.6440  -19.7340 C.3   147  LEU147      0.0001
    120  CD2       11.1840   -7.3640  -19.7230 C.3   147  LEU147      0.0001
    121  N          7.0970   -2.8350  -17.1920 N.3   157  THR157     -0.1203
    122  CA         6.5510   -3.8910  -16.3350 C.3   157  THR157      0.1994
    123  C          6.9020   -3.6570  -14.8740 C.2   157  THR157      0.2617
    124  O          7.5270   -2.6530  -14.5300 O.2   157  THR157     -0.2717
    125  CB         7.0560   -5.3010  -16.7350 C.3   157  THR157      0.1784
    126  OG1        6.3740   -6.2910  -15.9540 O.3   157  THR157     -0.2211
    127  CG2        8.5560   -5.4310  -16.4960 C.3   157  THR157      0.0376
    128  N          6.4850   -4.5990  -14.0280 N.am  158  ASP158     -0.1973
    129  CA         6.7640   -4.5700  -12.5960 C.3   158  ASP158      0.1709
    130  C          6.3150   -3.2750  -11.9270 C.2   158  ASP158      0.2293
    131  O          7.1150   -2.5750  -11.3130 O.2   158  ASP158     -0.2864
    132  CB         8.2550   -4.7850  -12.3430 C.3   158  ASP158      0.1436
    133  CG         8.6120   -6.2460  -12.1710 C.2   158  ASP158      0.3671
    134  OD1        9.0360   -6.8840  -13.1580 O.co2 158  ASP158     -0.2456
    135  OD2        8.4660   -6.7560  -11.0390 O.co2 158  ASP158     -0.2456
    136  N         21.6110  -11.0160  -26.8150 N.3   289  LYS289     -0.1245
    137  CA        21.3810  -12.4420  -26.6540 C.3   289  LYS289      0.1561
    138  C         22.5620  -13.2630  -27.1440 C.2   289  LYS289      0.2260
    139  O         22.7430  -14.3990  -26.7160 O.2   289  LYS289     -0.2867
    140  CB        20.0930  -12.8530  -27.3610 C.3   289  LYS289      0.0271
    141  CG        18.8920  -12.1530  -26.7500 C.3   289  LYS289      0.0035
    142  CD        17.5950  -12.8940  -26.9560 C.3   289  LYS289      0.0206
    143  CE        16.5120  -12.2890  -26.0870 C.3   289  LYS289      0.1093
    144  NZ        15.2350  -13.0110  -26.2650 N.3   289  LYS289     -0.1314
@<TRIPOS>BOND
     1   140   141    1
     2   140   137    1
     3   138   139    2
     4   138   137    1
     5   142   141    1
     6   142   143    1
     7   136   137    1
     8    78    75    1
     9   144   143    1
    10    73    71    1
    11    76    75    1
    12    76    77    2
    13    74    75    1
    14    74    68   am
    15    57    56    2
    16    52    51   ar
    17    67    68    1
    18    67    70    1
    19    67    66    1
    20    63    61   ar
    21    63    64   ar
    22    71    72    1
    23    71    70    1
    24    61    59   ar
    25    68    69    2
    26    56    66   am
    27    56    55    1
    28    51    53   ar
    29    51    50    1
    30    79    80    1
    31    49    50    1
    32    49    46    1
    33    65    64    1
    34    64    62   ar
    35    54    55    1
    36    54    47   am
    37   116   115    2
    38    59    58    1
    39    59    60   ar
    40    58    55    1
    41   115   114    1
    42    46    47    1
    43    46    45    1
    44    47    48    2
    45    82    81    2
    46    80    81    1
    47    62    60   ar
    48    92    91    2
    49    81    83   am
    50    91    90    1
    51    45    39   am
    52   114   117    1
    53   114   113    1
    54    86    85    2
    55    40    39    2
    56    93    90    1
    57    93    94    1
    58   117   118    1
    59    83    84    1
    60    16    17    1
    61    85    84    1
    62    39    38    1
    63    90    89    1
    64    84    87    1
    65    31    30    1
    66    31    32    1
    67    31    34    1
    68    96    94   ar
    69    94    95   ar
    70    36    34    1
    71    32    33    2
    72   118   119    1
    73   118   120    1
    74    17    20    1
    75    17    18    1
    76    38    37    1
    77    38    41    1
    78    34    35    1
    79    87    88    1
    80    19    18    2
    81     7     5    1
    82    41    42    1
    83     8     6    1
    84     5     6    1
    85     5     2    1
    86   108   107    2
    87    42    43    1
    88   121   122    1
    89   107   106    1
    90   125   127    1
    91   125   122    1
    92   125   126    1
    93     2     1    1
    94     2     3    1
    95   122   123    1
    96    97    98    1
    97    43    44    1
    98    98    99    1
    99    98   101    1
   100   105   106    1
   101   105    99   am
   102   106   109    1
   103    99   100    2
   104    14    13    1
   105     4     3    2
   106   123   124    2
   107   123   128   am
   108    12    11    2
   109    21    22    1
   110   101   102    1
   111    11    10    1
   112   109   110    1
   113   128   129    1
   114    13    10    1
   115    13    15    1
   116    10     9    1
   117   103   102   ar
   118   102   104   ar
   119    22    25    1
   120    22    23    1
   121   110   111    2
   122   110   112   am
   123   134   133   ar
   124    25    26    1
   125    24    23    2
   126   129   132    1
   127   129   130    1
   128   132   133    1
   129   133   135   ar
   130   130   131    2
   131    26    27    1
   132    27    28    1
   133    28    29    1
