@<TRIPOS>MOLECULE
tmp/4zy5A00.pdb
 158 147 0 0 0
SMALL
GASTEIGER

@<TRIPOS>ATOM
      1  N          8.5740  -17.1980   11.4320 N.3    25  ILE25      -0.1231
      2  CA         8.6520  -16.1880   12.4860 C.3    25  ILE25       0.1692
      3  C          9.4420  -14.9580   12.0500 C.2    25  ILE25       0.2593
      4  O         10.6690  -14.9430   12.1270 O.2    25  ILE25      -0.2718
      5  CB         9.3010  -16.7620   13.7600 C.3    25  ILE25       0.0266
      6  CG1        8.8060  -18.1900   14.0190 C.3    25  ILE25       0.0019
      7  CG2        9.0350  -15.8520   14.9580 C.3    25  ILE25       0.0020
      8  CD1        7.3290  -18.3020   14.3310 C.3    25  ILE25       0.0001
      9  N          8.7310  -13.9260   11.6040 N.am   26  GLY26      -0.1942
     10  CA         9.3580  -12.6810   11.1960 C.3    26  GLY26       0.2014
     11  C         10.0670  -12.7530    9.8560 C.2    26  GLY26       0.2638
     12  O         10.5710  -13.8040    9.4610 O.2    26  GLY26      -0.2714
     13  N         10.1120  -11.6210    9.1560 N.am   27  GLN27      -0.1977
     14  CA        10.7510  -11.5510    7.8440 C.3    27  GLN27       0.1601
     15  C         10.9390  -10.1170    7.3670 C.2    27  GLN27       0.2287
     16  O         10.0100   -9.3110    7.4130 O.2    27  GLN27      -0.2864
     17  CB         9.9360  -12.3470    6.8150 C.3    27  GLN27       0.0394
     18  CG         8.4660  -11.9780    6.7540 C.3    27  GLN27       0.0908
     19  CD         7.6740  -12.9010    5.8470 C.2    27  GLN27       0.2608
     20  OE1        8.0650  -14.0450    5.6080 O.2    27  GLN27      -0.2717
     21  NE2        6.5560  -12.4070    5.3340 N.am   27  GLN27      -0.0878
     22  N         12.7450  -15.4610    7.7640 N.3    33  VAL33      -0.1245
     23  CA        13.2100  -16.3180    8.8630 C.3    33  VAL33       0.1561
     24  C         12.1650  -17.3580    9.2970 C.2    33  VAL33       0.2260
     25  O         10.9710  -17.0670    9.3200 O.2    33  VAL33      -0.2867
     26  CB        13.6070  -15.4740   10.0900 C.3    33  VAL33       0.0252
     27  CG1       14.3330  -16.3240   11.1260 C.3    33  VAL33       0.0019
     28  CG2       14.4780  -14.3010    9.6630 C.3    33  VAL33       0.0019
     29  N         16.7710  -21.8500   14.2350 N.3    46  ALA46      -0.1245
     30  CA        16.2090  -20.8180   13.3710 C.3    46  ALA46       0.1562
     31  C         16.9150  -20.8380   12.0210 C.2    46  ALA46       0.2260
     32  O         18.1200  -21.0810   11.9510 O.2    46  ALA46      -0.2867
     33  CB        16.3350  -19.4500   14.0160 C.3    46  ALA46       0.0290
     34  N         17.3440  -18.7030    8.2850 N.3    48  LYS48      -0.1245
     35  CA        17.1050  -17.5750    7.3960 C.3    48  LYS48       0.1561
     36  C         17.2620  -18.0080    5.9460 C.2    48  LYS48       0.2260
     37  O         18.1360  -18.8130    5.6250 O.2    48  LYS48      -0.2867
     38  CB        18.0590  -16.4220    7.7170 C.3    48  LYS48       0.0271
     39  CG        17.9450  -15.2300    6.7750 C.3    48  LYS48       0.0035
     40  CD        18.5940  -13.9920    7.3670 C.3    48  LYS48       0.0206
     41  CE        20.0440  -14.2500    7.7370 C.3    48  LYS48       0.1093
     42  NZ        20.5690  -13.2140    8.6730 N.3    48  LYS48      -0.1314
     43  N         24.9610  -14.9650   18.3070 N.3    72  VAL72      -0.1245
     44  CA        24.0380  -15.9700   17.8070 C.3    72  VAL72       0.1561
     45  C         24.7920  -16.9860   16.9520 C.2    72  VAL72       0.2260
     46  O         25.2530  -16.6820   15.8510 O.2    72  VAL72      -0.2867
     47  CB        22.8950  -15.3400   16.9970 C.3    72  VAL72       0.0252
     48  CG1       21.8670  -16.3930   16.6390 C.3    72  VAL72       0.0019
     49  CG2       22.2430  -14.2290   17.7930 C.3    72  VAL72       0.0019
     50  N         20.9290  -21.0860   12.1960 N.3    85  MET85      -0.1230
     51  CA        21.5450  -20.5730   13.4090 C.3    85  MET85       0.1702
     52  C         20.6980  -20.9670   14.6110 C.2    85  MET85       0.2592
     53  O         19.6050  -21.5080   14.4490 O.2    85  MET85      -0.2718
     54  CB        21.7010  -19.0540   13.3440 C.3    85  MET85       0.0401
     55  CG        21.8160  -18.4820   11.9420 C.3    85  MET85       0.0596
     56  SD        22.0110  -16.6950   11.9890 S.3    85  MET85      -0.1393
     57  CE        21.5220  -16.2420   10.3280 C.3    85  MET85       0.0692
     58  N         21.1910  -20.7020   15.8170 N.am   86  GLU86      -0.1966
     59  CA        20.4210  -21.0490   17.0040 C.3    86  GLU86       0.1733
     60  C         19.1950  -20.1580   17.1190 C.2    86  GLU86       0.2616
     61  O         19.1870  -19.0260   16.6360 O.2    86  GLU86      -0.2715
     62  CB        21.2700  -20.9530   18.2740 C.3    86  GLU86       0.0429
     63  CG        22.0150  -19.6530   18.4630 C.3    86  GLU86       0.1163
     64  CD        22.5740  -19.5160   19.8670 C.2    86  GLU86       0.3649
     65  OE1       23.7870  -19.2520   20.0070 O.co2  86  GLU86      -0.2457
     66  OE2       21.7950  -19.6690   20.8340 O.co2  86  GLU86      -0.2457
     67  N         18.1550  -20.6880   17.7530 N.am   87  TYR87      -0.1960
     68  CA        16.9010  -19.9680   17.9070 C.3    87  TYR87       0.1771
     69  C         16.7860  -19.3620   19.2920 C.2    87  TYR87       0.2619
     70  O         16.8240  -20.0700   20.2980 O.2    87  TYR87      -0.2715
     71  CB        15.7130  -20.8930   17.6380 C.3    87  TYR87       0.0574
     72  CG        14.3650  -20.2680   17.9210 C.ar   87  TYR87      -0.0198
     73  CD1       13.9760  -19.0900   17.2930 C.ar   87  TYR87      -0.0009
     74  CD2       13.4740  -20.8640   18.8040 C.ar   87  TYR87      -0.0009
     75  CE1       12.7400  -18.5200   17.5400 C.ar   87  TYR87       0.0417
     76  CE2       12.2350  -20.2990   19.0620 C.ar   87  TYR87       0.0417
     77  CZ        11.8730  -19.1280   18.4280 C.ar   87  TYR87       0.1957
     78  OH        10.6410  -18.5660   18.6810 O.3    87  TYR87      -0.2866
     79  N         16.6710  -18.0390   19.3270 N.am   88  LEU88      -0.1963
     80  CA        16.4040  -17.3170   20.5560 C.3    88  LEU88       0.1728
     81  C         14.9400  -16.9220   20.5520 C.2    88  LEU88       0.2616
     82  O         14.5020  -16.1480   19.7000 O.2    88  LEU88      -0.2715
     83  CB        17.3040  -16.0930   20.6880 C.3    88  LEU88       0.0311
     84  CG        18.7280  -16.3760   21.1750 C.3    88  LEU88       0.0022
     85  CD1       19.5800  -16.9950   20.0830 C.3    88  LEU88       0.0001
     86  CD2       19.3680  -15.1010   21.6920 C.3    88  LEU88       0.0001
     87  N         14.1860  -17.4720   21.4980 N.am   89  ALA89      -0.1977
     88  CA        12.7340  -17.3430   21.4920 C.3    89  ALA89       0.1597
     89  C         12.2460  -16.0440   22.1320 C.2    89  ALA89       0.2287
     90  O         11.1110  -15.6310   21.9050 O.2    89  ALA89      -0.2864
     91  CB        12.1030  -18.5420   22.1950 C.3    89  ALA89       0.0319
     92  N         13.0860  -13.0980   21.4490 N.3    91  GLY91      -0.1210
     93  CA        12.8630  -12.0900   20.4290 C.3    91  GLY91       0.1956
     94  C         13.8680  -10.9500   20.4540 C.2    91  GLY91       0.2612
     95  O         14.8680  -11.0040   21.1790 O.2    91  GLY91      -0.2717
     96  N         13.6030   -9.9100   19.6670 N.am   92  SER92      -0.1952
     97  CA        14.5550   -8.8100   19.5140 C.3    92  SER92       0.1924
     98  C         14.4660   -7.8210   20.6620 C.2    92  SER92       0.2314
     99  O         13.4270   -7.6930   21.3100 O.2    92  SER92      -0.2863
    100  CB        14.3300   -8.0780   18.1920 C.3    92  SER92       0.2116
    101  OG        13.1350   -7.3220   18.2390 O.3    92  SER92      -0.2180
    102  N         22.5890   -2.1450   16.9690 N.3   132  LYS132     -0.1245
    103  CA        21.3200   -1.4920   17.2650 C.3   132  LYS132      0.1561
    104  C         20.4410   -2.5640   17.8840 C.2   132  LYS132      0.2260
    105  O         20.7350   -3.7490   17.7380 O.2   132  LYS132     -0.2867
    106  CB        20.6740   -0.9040   16.0120 C.3   132  LYS132      0.0271
    107  CG        20.4150   -1.9320   14.9250 C.3   132  LYS132      0.0035
    108  CD        19.7420   -1.3230   13.7040 C.3   132  LYS132      0.0206
    109  CE        19.5610   -2.3910   12.6360 C.3   132  LYS132      0.1093
    110  NZ        19.1920   -1.8470   11.3070 N.3   132  LYS132     -0.1314
    111  N         17.7670   -3.8510   17.1010 N.3   134  ASP134     -0.1225
    112  CA        17.2460   -4.7890   16.1050 C.3   134  ASP134      0.1805
    113  C         18.1460   -6.0180   15.9210 C.2   134  ASP134      0.2597
    114  O         17.6710   -7.0950   15.5610 O.2   134  ASP134     -0.2718
    115  CB        17.0570   -4.0780   14.7590 C.3   134  ASP134      0.1424
    116  CG        16.2320   -2.7990   14.8830 C.2   134  ASP134      0.3668
    117  OD1       15.1010   -2.7470   14.3460 O.co2 134  ASP134     -0.2456
    118  OD2       16.7140   -1.8460   15.5310 O.co2 134  ASP134     -0.2456
    119  N         19.4420   -5.8570   16.1780 N.am  135  ASN135     -0.1974
    120  CA        20.3890   -6.9520   16.0050 C.3   135  ASN135      0.1688
    121  C         20.8020   -7.5460   17.3380 C.2   135  ASN135      0.2292
    122  O         21.8840   -8.1190   17.4780 O.2   135  ASN135     -0.2864
    123  CB        21.6130   -6.4800   15.2270 C.3   135  ASN135      0.1181
    124  CG        21.2600   -6.0570   13.8170 C.2   135  ASN135      0.2629
    125  OD1       20.2910   -6.5520   13.2420 O.2   135  ASN135     -0.2716
    126  ND2       22.0300   -5.1280   13.2570 N.am  135  ASN135     -0.0877
    127  N         19.2110  -10.3040   19.9340 N.3   137  LEU137     -0.1245
    128  CA        18.1880  -11.3090   20.1950 C.3   137  LEU137      0.1561
    129  C         18.2310  -11.7380   21.6550 C.2   137  LEU137      0.2260
    130  O         19.2920  -11.7280   22.2830 O.2   137  LEU137     -0.2867
    131  CB        18.3710  -12.5110   19.2650 C.3   137  LEU137      0.0270
    132  CG        18.0210  -12.1880   17.8130 C.3   137  LEU137      0.0019
    133  CD1       18.3580  -13.3410   16.8890 C.3   137  LEU137      0.0001
    134  CD2       16.5450  -11.8310   17.7090 C.3   137  LEU137      0.0001
    135  N         23.6700  -10.4600   16.5580 N.3   147  THR147     -0.1203
    136  CA        23.5110  -11.0810   15.2440 C.3   147  THR147      0.1994
    137  C         23.6950  -10.0780   14.0920 C.2   147  THR147      0.2617
    138  O         24.0910   -8.9320   14.3130 O.2   147  THR147     -0.2717
    139  CB        22.1270  -11.7610   15.1090 C.3   147  THR147      0.1784
    140  OG1       22.0930  -12.5640   13.9130 O.3   147  THR147     -0.2211
    141  CG2       21.0140  -10.7210   15.0700 C.3   147  THR147      0.0376
    142  N         23.4230  -10.5410   12.8700 N.am  148  ASP148     -0.1973
    143  CA        23.5040   -9.7440   11.6380 C.3   148  ASP148      0.1709
    144  C         24.9300   -9.2450   11.3570 C.2   148  ASP148      0.2293
    145  O         25.2660   -8.1010   11.6470 O.2   148  ASP148     -0.2864
    146  CB        22.5150   -8.5690   11.7040 C.3   148  ASP148      0.1436
    147  CG        22.3740   -7.8340   10.3740 C.2   148  ASP148      0.3671
    148  OD1       22.8660   -8.3470    9.3470 O.co2 148  ASP148     -0.2456
    149  OD2       21.7570   -6.7420   10.3520 O.co2 148  ASP148     -0.2456
    150  N          6.0350   -9.3190   24.4510 N.3   279  LYS279     -0.1245
    151  CA         5.1940  -10.2510   23.7170 C.3   279  LYS279      0.1561
    152  C          3.7130   -9.9380   23.8890 C.2   279  LYS279      0.2260
    153  O          2.9200  -10.1180   22.9670 O.2   279  LYS279     -0.2867
    154  CB         5.4900  -11.6800   24.1610 C.3   279  LYS279      0.0271
    155  CG         6.9360  -12.0700   23.9100 C.3   279  LYS279      0.0035
    156  CD         7.1620  -13.5650   24.0040 C.3   279  LYS279      0.0206
    157  CE         8.5520  -13.9090   23.4970 C.3   279  LYS279      0.1093
    158  NZ         8.8290  -13.2530   22.1810 N.3   279  LYS279     -0.1314
@<TRIPOS>BOND
     1    21    19   am
     2    20    19    2
     3    37    36    2
     4    19    18    1
     5    36    35    1
     6    18    17    1
     7    39    40    1
     8    39    38    1
     9    17    14    1
    10    40    41    1
    11    15    16    2
    12    15    14    1
    13    35    38    1
    14    35    34    1
    15    41    42    1
    16    22    23    1
    17    14    13    1
    18    23    24    1
    19    23    26    1
    20    13    11   am
    21    24    25    2
    22   148   147   ar
    23    12    11    2
    24    28    26    1
    25    11    10    1
    26    26    27    1
    27    57    56    1
    28   149   147   ar
    29   147   146    1
    30    10     9    1
    31   110   109    1
    32   144   143    1
    33   144   145    2
    34     1     2    1
    35     9     3   am
    36   143   146    1
    37   143   142    1
    38    55    56    1
    39    55    54    1
    40    32    31    2
    41    31    30    1
    42     3     4    2
    43     3     2    1
    44    50    51    1
    45     2     5    1
    46   109   108    1
    47   142   137   am
    48   125   124    2
    49   126   124   am
    50    54    51    1
    51    30    33    1
    52    30    29    1
    53    51    52    1
    54   108   107    1
    55     5     6    1
    56     5     7    1
    57   124   123    1
    58   140   139    1
    59     6     8    1
    60   137   138    2
    61   137   136    1
    62   117   116   ar
    63    53    52    2
    64    52    58   am
    65   115   116    1
    66   115   112    1
    67   116   118   ar
    68   107   106    1
    69   141   139    1
    70   139   136    1
    71   123   120    1
    72   136   135    1
    73   114   113    2
    74    58    59    1
    75    46    45    2
    76   113   112    1
    77   113   119   am
    78   120   119    1
    79   120   121    1
    80   106   103    1
    81   112   111    1
    82    61    60    2
    83    48    47    1
    84   133   132    1
    85    45    44    1
    86   102   103    1
    87    47    49    1
    88    47    44    1
    89    59    60    1
    90    59    62    1
    91    60    67   am
    92   103   104    1
    93    73    75   ar
    94    73    72   ar
    95   121   122    2
    96    75    77   ar
    97    71    68    1
    98    71    72    1
    99   134   132    1
   100   105   104    2
   101    67    68    1
   102    44    43    1
   103   132   131    1
   104    68    69    1
   105    72    74   ar
   106   100   101    1
   107   100    97    1
   108    62    63    1
   109    77    78    1
   110    77    76   ar
   111    63    64    1
   112    74    76   ar
   113   131   128    1
   114    69    79   am
   115    69    70    2
   116    79    80    1
   117    97    96    1
   118    97    98    1
   119    96    94   am
   120    82    81    2
   121    64    65   ar
   122    64    66   ar
   123   127   128    1
   124    85    84    1
   125   128   129    1
   126    93    94    1
   127    93    92    1
   128    94    95    2
   129    81    80    1
   130    81    87   am
   131    80    83    1
   132    98    99    2
   133    83    84    1
   134    84    86    1
   135    88    87    1
   136    88    89    1
   137    88    91    1
   138   129   130    2
   139    90    89    2
   140   158   157    1
   141   153   152    2
   142   157   156    1
   143   151   152    1
   144   151   154    1
   145   151   150    1
   146   155   156    1
   147   155   154    1
