@<TRIPOS>MOLECULE
tmp/4zy6A00.pdb
 149 139 0 0 0
SMALL
GASTEIGER

@<TRIPOS>ATOM
      1  N          8.4180  -19.3550   11.5450 N.3    26  ILE26      -0.1231
      2  CA         8.4590  -18.2020   12.4580 C.3    26  ILE26       0.1692
      3  C          8.9740  -16.9390   11.7150 C.2    26  ILE26       0.2593
      4  O          8.8980  -15.8300   12.2420 O.2    26  ILE26      -0.2718
      5  CB         9.2350  -18.5290   13.7850 C.3    26  ILE26       0.0266
      6  CG1        8.8880  -17.5430   14.9370 C.3    26  ILE26       0.0019
      7  CG2       10.7540  -18.6400   13.5840 C.3    26  ILE26       0.0020
      8  CD1        7.6240  -17.8760   15.7730 C.3    26  ILE26       0.0001
      9  N          9.4450  -17.1370   10.4850 N.am   27  GLY27      -0.1942
     10  CA        10.0140  -16.1070    9.6220 C.3    27  GLY27       0.2014
     11  C          9.0360  -15.1340    9.0000 C.2    27  GLY27       0.2638
     12  O          7.8310  -15.4030    8.9240 O.2    27  GLY27      -0.2714
     13  N          9.5750  -13.9930    8.5340 N.am   28  GLN28      -0.1977
     14  CA         8.8220  -12.9030    7.9100 C.3    28  GLN28       0.1601
     15  C          9.2950  -12.6260    6.4710 C.2    28  GLN28       0.2287
     16  O         10.1640  -13.3360    5.9560 O.2    28  GLN28      -0.2864
     17  CB         8.9200  -11.6370    8.7830 C.3    28  GLN28       0.0394
     18  CG         8.2790  -11.7250   10.1660 C.3    28  GLN28       0.0908
     19  CD         6.8130  -12.0710   10.1000 C.2    28  GLN28       0.2608
     20  OE1        6.0640  -11.3930    9.3690 O.2    28  GLN28      -0.2717
     21  NE2        6.4100  -13.1390   10.7120 N.am   28  GLN28      -0.0878
     22  N         12.3900  -17.9540    8.1060 N.3    34  VAL34      -0.1245
     23  CA        12.9580  -18.6250    9.2790 C.3    34  VAL34       0.1561
     24  C         12.0120  -19.6700    9.8480 C.2    34  VAL34       0.2260
     25  O         10.8080  -19.4540    9.9150 O.2    34  VAL34      -0.2867
     26  CB        13.4550  -17.6240   10.3640 C.3    34  VAL34       0.0252
     27  CG1       14.4200  -18.2950   11.3400 C.3    34  VAL34       0.0019
     28  CG2       14.1180  -16.4070    9.7260 C.3    34  VAL34       0.0019
     29  N         17.0810  -23.0850   15.0560 N.3    47  ALA47      -0.1245
     30  CA        16.5640  -22.0480   14.1580 C.3    47  ALA47       0.1562
     31  C         17.2260  -22.2410   12.7930 C.2    47  ALA47       0.2260
     32  O         18.4570  -22.3190   12.6990 O.2    47  ALA47      -0.2867
     33  CB        16.8810  -20.6610   14.7070 C.3    47  ALA47       0.0290
     34  N         17.3410  -20.8060    8.8170 N.3    49  LYS49      -0.1245
     35  CA        17.0350  -19.7880    7.8100 C.3    49  LYS49       0.1561
     36  C         16.9940  -20.4610    6.4310 C.2    49  LYS49       0.2260
     37  O         17.8050  -21.3530    6.1570 O.2    49  LYS49      -0.2867
     38  CB        18.0740  -18.6640    7.8320 C.3    49  LYS49       0.0271
     39  CG        17.6330  -17.4670    8.6680 C.3    49  LYS49       0.0035
     40  CD        18.8020  -16.8490    9.4300 C.3    49  LYS49       0.0206
     41  CE        19.3870  -15.6150    8.7830 C.3    49  LYS49       0.1093
     42  NZ        20.6660  -15.2170    9.4320 N.3    49  LYS49      -0.1314
     43  N         24.7410  -15.8430   18.7040 N.3    72  VAL72      -0.1245
     44  CA        23.7720  -16.8530   18.2560 C.3    72  VAL72       0.1561
     45  C         24.5880  -17.7710   17.3550 C.2    72  VAL72       0.2260
     46  O         24.8110  -17.4680   16.1790 O.2    72  VAL72      -0.2867
     47  CB        22.5130  -16.2650   17.5480 C.3    72  VAL72       0.0252
     48  CG1       21.5770  -17.3790   17.0610 C.3    72  VAL72       0.0019
     49  CG2       21.7560  -15.3080   18.4720 C.3    72  VAL72       0.0019
     50  N         21.2170  -22.6460   13.0640 N.3    86  MET86      -0.1230
     51  CA        21.8150  -21.9380   14.1890 C.3    86  MET86       0.1702
     52  C         20.9750  -22.0870   15.4420 C.2    86  MET86       0.2592
     53  O         19.8430  -22.5840   15.3760 O.2    86  MET86      -0.2718
     54  CB        22.1820  -20.4680   13.8830 C.3    86  MET86       0.0401
     55  CG        21.1650  -19.6900   13.0960 C.3    86  MET86       0.0596
     56  SD        21.9920  -18.4100   12.1180 S.3    86  MET86      -0.1393
     57  CE        22.5100  -17.3040   13.3770 C.3    86  MET86       0.0692
     58  N         21.5560  -21.7360   16.6030 N.am   87  GLU87      -0.1966
     59  CA        20.8410  -21.9170   17.8520 C.3    87  GLU87       0.1733
     60  C         19.5650  -21.0850   17.9090 C.2    87  GLU87       0.2616
     61  O         19.4690  -20.0290   17.2760 O.2    87  GLU87      -0.2715
     62  CB        21.7320  -21.7270   19.0780 C.3    87  GLU87       0.0429
     63  CG        22.2660  -20.3340   19.3160 C.3    87  GLU87       0.1163
     64  CD        22.9040  -20.1820   20.6790 C.2    87  GLU87       0.3649
     65  OE1       24.0690  -19.7310   20.7420 O.co2  87  GLU87      -0.2457
     66  OE2       22.2480  -20.5350   21.6860 O.co2  87  GLU87      -0.2457
     67  N         18.5530  -21.6380   18.5860 N.am   88  TYR88      -0.1960
     68  CA        17.2480  -21.0080   18.7360 C.3    88  TYR88       0.1771
     69  C         17.1250  -20.3570   20.0970 C.2    88  TYR88       0.2619
     70  O         17.4680  -20.9520   21.1150 O.2    88  TYR88      -0.2715
     71  CB        16.1110  -22.0150   18.4610 C.3    88  TYR88       0.0574
     72  CG        14.7100  -21.4940   18.7000 C.ar   88  TYR88      -0.0198
     73  CD1       14.2590  -20.3310   18.0760 C.ar   88  TYR88      -0.0009
     74  CD2       13.8150  -22.1900   19.5080 C.ar   88  TYR88      -0.0009
     75  CE1       12.9740  -19.8390   18.3030 C.ar   88  TYR88       0.0417
     76  CE2       12.5140  -21.7210   19.7210 C.ar   88  TYR88       0.0417
     77  CZ        12.0950  -20.5550   19.1020 C.ar   88  TYR88       0.1957
     78  OH        10.8210  -20.0880   19.3010 O.3    88  TYR88      -0.2866
     79  N         16.6490  -19.1140   20.0930 N.am   89  LEU89      -0.1963
     80  CA        16.4180  -18.2860   21.2680 C.3    89  LEU89       0.1728
     81  C         14.9420  -17.9130   21.1710 C.2    89  LEU89       0.2616
     82  O         14.5490  -17.1450   20.2920 O.2    89  LEU89      -0.2715
     83  CB        17.3660  -17.0630   21.2490 C.3    89  LEU89       0.0311
     84  CG        18.7930  -17.3700   21.7160 C.3    89  LEU89       0.0022
     85  CD1       19.6810  -17.7540   20.5630 C.3    89  LEU89       0.0001
     86  CD2       19.3880  -16.2060   22.4490 C.3    89  LEU89       0.0001
     87  N         14.1110  -18.5910   21.9820 N.am   90  ALA90      -0.1977
     88  CA        12.6480  -18.4850   21.9450 C.3    90  ALA90       0.1597
     89  C         12.0790  -17.1850   22.4770 C.2    90  ALA90       0.2287
     90  O         10.9260  -16.8750   22.1850 O.2    90  ALA90      -0.2864
     91  CB        12.0200  -19.6720   22.6710 C.3    90  ALA90       0.0319
     92  N         12.8270  -14.2360   21.6260 N.3    92  GLY92      -0.1210
     93  CA        12.7240  -13.2480   20.5640 C.3    92  GLY92       0.1956
     94  C         13.7360  -12.1280   20.6690 C.2    92  GLY92       0.2612
     95  O         14.7340  -12.2560   21.3860 O.2    92  GLY92      -0.2717
     96  N         13.4910  -11.0200   19.9380 N.am   93  SER93      -0.1952
     97  CA        14.4410   -9.9120   19.8870 C.3    93  SER93       0.1924
     98  C         14.3040   -8.9210   21.0430 C.2    93  SER93       0.2314
     99  O         13.2390   -8.7940   21.6480 O.2    93  SER93      -0.2863
    100  CB        14.3950   -9.1960   18.5300 C.3    93  SER93       0.2116
    101  OG        13.2860   -8.3170   18.4230 O.3    93  SER93      -0.2180
    102  N         17.5080   -5.0120   17.3270 N.3   135  ASP135     -0.1225
    103  CA        16.9780   -5.9830   16.3390 C.3   135  ASP135      0.1805
    104  C         17.9020   -7.1920   16.1690 C.2   135  ASP135      0.2597
    105  O         17.4370   -8.2690   15.8020 O.2   135  ASP135     -0.2718
    106  CB        16.6880   -5.3110   14.9630 C.3   135  ASP135      0.1424
    107  CG        15.9940   -3.9420   15.0400 C.2   135  ASP135      0.3668
    108  OD1       14.9090   -3.7780   14.4220 O.co2 135  ASP135     -0.2456
    109  OD2       16.5240   -3.0480   15.7200 O.co2 135  ASP135     -0.2456
    110  N         19.1960   -7.0220   16.4780 N.am  136  ASN136     -0.1974
    111  CA        20.1910   -8.0830   16.3220 C.3   136  ASN136      0.1688
    112  C         20.6350   -8.6920   17.6520 C.2   136  ASN136      0.2292
    113  O         21.6580   -9.3840   17.7300 O.2   136  ASN136     -0.2864
    114  CB        21.3710   -7.5730   15.4830 C.3   136  ASN136      0.1181
    115  CG        20.9650   -7.3590   14.0520 C.2   136  ASN136      0.2629
    116  OD1       20.0970   -8.0550   13.5170 O.2   136  ASN136     -0.2716
    117  ND2       21.6190   -6.4470   13.3810 N.am  136  ASN136     -0.0877
    118  N         19.1870  -11.3020   20.3560 N.3   138  LEU138     -0.1245
    119  CA        18.1800  -12.3330   20.6070 C.3   138  LEU138      0.1561
    120  C         18.2190  -12.7480   22.0630 C.2   138  LEU138      0.2260
    121  O         19.2720  -12.6840   22.7100 O.2   138  LEU138     -0.2867
    122  CB        18.2960  -13.5260   19.6200 C.3   138  LEU138      0.0270
    123  CG        17.8660  -13.1850   18.1790 C.3   138  LEU138      0.0019
    124  CD1       18.2160  -14.2670   17.2640 C.3   138  LEU138      0.0001
    125  CD2       16.3680  -12.9250   18.0820 C.3   138  LEU138      0.0001
    126  N         23.4270  -11.5270   16.9480 N.3   148  THR148     -0.1203
    127  CA        23.2930  -12.1450   15.6270 C.3   148  THR148      0.1994
    128  C         23.6070  -11.1060   14.5150 C.2   148  THR148      0.2617
    129  O         23.9960   -9.9660   14.8280 O.2   148  THR148     -0.2717
    130  CB        21.9270  -12.8870   15.4650 C.3   148  THR148      0.1784
    131  OG1       21.9770  -13.6590   14.2550 O.3   148  THR148     -0.2211
    132  CG2       20.7180  -11.9290   15.4350 C.3   148  THR148      0.0376
    133  N         23.4550  -11.5290   13.2260 N.am  149  ASP149     -0.1973
    134  CA        23.6200  -10.7470   11.9890 C.3   149  ASP149      0.1709
    135  C         25.0680  -10.3290   11.7090 C.2   149  ASP149      0.2293
    136  O         25.4640   -9.1920   11.9760 O.2   149  ASP149     -0.2864
    137  CB        22.6620   -9.5310   11.9640 C.3   149  ASP149      0.1436
    138  CG        22.5300   -8.8400   10.6100 C.2   149  ASP149      0.3671
    139  OD1       22.9270   -9.4440    9.5900 O.co2 149  ASP149     -0.2456
    140  OD2       22.0500   -7.6910   10.5770 O.co2 149  ASP149     -0.2456
    141  N          5.9320  -10.2640   24.7300 N.3   280  LYS280     -0.1245
    142  CA         5.1420  -11.2690   24.0080 C.3   280  LYS280      0.1561
    143  C          3.6710  -10.9750   24.1590 C.2   280  LYS280      0.2260
    144  O          2.9360  -11.0780   23.1890 O.2   280  LYS280     -0.2867
    145  CB         5.4770  -12.6870   24.4870 C.3   280  LYS280      0.0271
    146  CG         6.9290  -13.0700   24.1550 C.3   280  LYS280      0.0035
    147  CD         7.0950  -14.4980   23.6210 C.3   280  LYS280      0.0206
    148  CE         8.4380  -14.7290   22.9660 C.3   280  LYS280      0.1093
    149  NZ         8.5630  -14.0210   21.6590 N.3   280  LYS280     -0.1314
@<TRIPOS>BOND
     1    16    15    2
     2    37    36    2
     3    36    35    1
     4    15    14    1
     5    35    38    1
     6    35    34    1
     7    38    39    1
     8    14    13    1
     9    14    17    1
    10    22    23    1
    11    13    11   am
    12    39    40    1
    13    41    40    1
    14    41    42    1
    15    17    18    1
    16    12    11    2
    17    11    10    1
    18    23    24    1
    19    23    26    1
    20    20    19    2
    21   139   138   ar
    22    10     9    1
    23    28    26    1
    24    24    25    2
    25    19    18    1
    26    19    21   am
    27    26    27    1
    28     9     3   am
    29   140   138   ar
    30   138   137    1
    31     1     2    1
    32   135   136    2
    33   135   134    1
    34     3     4    2
    35     3     2    1
    36   137   134    1
    37   134   133    1
    38    56    55    1
    39    56    57    1
    40     2     5    1
    41    32    31    2
    42    31    30    1
    43    50    51    1
    44    55    54    1
    45   133   128   am
    46   117   115   am
    47   116   115    2
    48     7     5    1
    49     5     6    1
    50    54    51    1
    51   115   114    1
    52    30    33    1
    53    30    29    1
    54    51    52    1
    55   131   130    1
    56   108   107   ar
    57   128   129    2
    58   128   127    1
    59     6     8    1
    60   106   107    1
    61   106   103    1
    62   107   109   ar
    63    53    52    2
    64   132   130    1
    65    52    58   am
    66   130   127    1
    67   114   111    1
    68   127   126    1
    69   105   104    2
    70   104   103    1
    71   104   110   am
    72    46    45    2
    73   111   110    1
    74   111   112    1
    75   103   102    1
    76    58    59    1
    77    48    47    1
    78   124   123    1
    79    61    60    2
    80    45    44    1
    81    47    44    1
    82    47    49    1
    83   112   113    2
    84    59    60    1
    85    59    62    1
    86    60    67   am
    87    73    75   ar
    88    73    72   ar
    89   125   123    1
    90   123   122    1
    91    44    43    1
    92    75    77   ar
    93   101   100    1
    94    71    72    1
    95    71    68    1
    96   100    97    1
    97    67    68    1
    98    72    74   ar
    99    68    69    1
   100    62    63    1
   101    77    78    1
   102    77    76   ar
   103    63    64    1
   104    74    76   ar
   105   122   119    1
   106    97    96    1
   107    97    98    1
   108    96    94   am
   109    79    69   am
   110    79    80    1
   111    69    70    2
   112    82    81    2
   113   118   119    1
   114    85    84    1
   115    93    94    1
   116    93    92    1
   117   119   120    1
   118    94    95    2
   119    64    65   ar
   120    64    66   ar
   121    98    99    2
   122    81    80    1
   123    81    87   am
   124    83    80    1
   125    83    84    1
   126   149   148    1
   127    84    86    1
   128    88    87    1
   129    88    89    1
   130    88    91    1
   131   120   121    2
   132    90    89    2
   133   148   147    1
   134   144   143    2
   135   147   146    1
   136   142   143    1
   137   142   145    1
   138   142   141    1
   139   146   145    1
