@<TRIPOS>MOLECULE
tmp/4zycC00.pdb
 171 166 0 0 0
SMALL
GASTEIGER

@<TRIPOS>ATOM
      1  N          1.7230    0.6960   -4.6280 N.3    25  MET25      -0.1230
      2  CA         2.6250    1.7280   -4.1150 C.3    25  MET25       0.1702
      3  C          2.9580    1.4760   -2.6480 C.2    25  MET25       0.2592
      4  O          4.0840    1.6960   -2.2160 O.2    25  MET25      -0.2718
      5  CB         2.0320    3.1340   -4.2890 C.3    25  MET25       0.0401
      6  CG         2.1960    3.7120   -5.6880 C.3    25  MET25       0.0596
      7  SD         3.9240    3.8740   -6.1900 S.3    25  MET25      -0.1393
      8  CE         4.4750    5.2740   -5.2290 C.3    25  MET25       0.0692
      9  N          1.9570    1.0040   -1.9030 N.am   26  LYS26      -0.1980
     10  CA         2.0920    0.6470   -0.5000 C.3    26  LYS26       0.1596
     11  C          3.2120   -0.3770   -0.3100 C.2    26  LYS26       0.2287
     12  O          4.0470   -0.2270    0.5810 O.2    26  LYS26      -0.2864
     13  CB         0.7620    0.0650   -0.0030 C.3    26  LYS26       0.0298
     14  CG         0.5920   -0.0290    1.4960 C.3    26  LYS26       0.0038
     15  CD        -0.8730   -0.3900    1.8010 C.3    26  LYS26       0.0206
     16  CE        -1.1920   -0.3430    3.2880 C.3    26  LYS26       0.1093
     17  NZ        -2.3420   -1.2430    3.6460 N.3    26  LYS26      -0.1314
     18  N          6.6700    1.1430   -1.0170 N.3    29  LEU29      -0.1231
     19  CA         7.0920    1.9560    0.1290 C.3    29  LEU29       0.1693
     20  C          7.5790    1.1030    1.3050 C.2    29  LEU29       0.2592
     21  O          8.5600    1.4450    1.9640 O.2    29  LEU29      -0.2718
     22  CB         5.9810    2.9150    0.5440 C.3    29  LEU29       0.0284
     23  CG         5.7530    4.0270   -0.4860 C.3    29  LEU29       0.0019
     24  CD1        4.3310    4.5880   -0.3840 C.3    29  LEU29       0.0001
     25  CD2        6.8030    5.1210   -0.3440 C.3    29  LEU29       0.0001
     26  N          6.9060   -0.0230    1.5340 N.am   30  PHE30      -0.1976
     27  CA         7.3270   -0.9990    2.5450 C.3    30  PHE30       0.1639
     28  C          8.7640   -1.5100    2.3090 C.2    30  PHE30       0.2290
     29  O          9.6120   -1.4460    3.2030 O.2    30  PHE30      -0.2864
     30  CB         6.3390   -2.1700    2.5840 C.3    30  PHE30       0.0560
     31  CG         6.7900   -3.3230    3.4420 C.ar   30  PHE30      -0.0200
     32  CD1        6.9510   -3.1630    4.8210 C.ar   30  PHE30      -0.0042
     33  CD2        7.0600   -4.5640    2.8740 C.ar   30  PHE30      -0.0042
     34  CE1        7.3800   -4.2170    5.6160 C.ar   30  PHE30      -0.0003
     35  CE2        7.4790   -5.6310    3.6630 C.ar   30  PHE30      -0.0003
     36  CZ         7.6320   -5.4550    5.0440 C.ar   30  PHE30      -0.0000
     37  N         11.0870   -0.3000    0.1780 N.3    32  LEU32      -0.1231
     38  CA        12.0010    0.8360    0.2370 C.3    32  LEU32       0.1693
     39  C         12.3160    1.2550    1.6760 C.2    32  LEU32       0.2592
     40  O         13.4560    1.5740    1.9940 O.2    32  LEU32      -0.2718
     41  CB        11.4420    2.0230   -0.5420 C.3    32  LEU32       0.0284
     42  CG        11.6800    1.9740   -2.0540 C.3    32  LEU32       0.0019
     43  CD1       10.9180    3.1120   -2.7270 C.3    32  LEU32       0.0001
     44  CD2       13.1440    2.0890   -2.3870 C.3    32  LEU32       0.0001
     45  N         11.2950    1.2720    2.5300 N.am   33  GLY33      -0.1957
     46  CA        11.4820    1.5610    3.9510 C.3    33  GLY33       0.1869
     47  C         12.4410    0.5820    4.6150 C.2    33  GLY33       0.2309
     48  O         13.3550    0.9980    5.3200 O.2    33  GLY33      -0.2863
     49  N         16.0660    1.3880    3.4110 N.3    36  ILE36      -0.1231
     50  CA        16.5630    2.5800    4.0950 C.3    36  ILE36       0.1692
     51  C         17.0150    2.2660    5.5310 C.2    36  ILE36       0.2591
     52  O         18.0960    2.7000    5.9660 O.2    36  ILE36      -0.2718
     53  CB        15.4960    3.7080    4.0830 C.3    36  ILE36       0.0266
     54  CG1       15.3260    4.2660    2.6670 C.3    36  ILE36       0.0019
     55  CG2       15.8560    4.8430    5.0750 C.3    36  ILE36       0.0020
     56  CD1       14.0120    5.0730    2.4570 C.3    36  ILE36       0.0001
     57  N         16.1950    1.5010    6.2470 N.am   37  MET37      -0.1979
     58  CA        16.4750    1.1530    7.6400 C.3    37  MET37       0.1605
     59  C         17.6060    0.1320    7.8080 C.2    37  MET37       0.2287
     60  O         18.4740    0.3150    8.6620 O.2    37  MET37      -0.2864
     61  CB        15.2010    0.6930    8.3480 C.3    37  MET37       0.0413
     62  CG        14.3030    1.8560    8.7390 C.3    37  MET37       0.0598
     63  SD        12.8700    1.3370    9.6850 S.3    37  MET37      -0.1393
     64  CE        11.6790    1.0600    8.3870 C.3    37  MET37       0.0692
     65  N         19.1270    6.7640    7.1710 N.3    42  TYR42      -0.1241
     66  CA        18.5420    7.8890    7.8770 C.3    42  TYR42       0.1605
     67  C         19.5120    8.4130    8.9200 C.2    42  TYR42       0.2264
     68  O         20.3970    7.6850    9.3740 O.2    42  TYR42      -0.2867
     69  CB        17.2080    7.5080    8.5150 C.3    42  TYR42       0.0534
     70  CG        17.3170    6.4460    9.5830 C.ar   42  TYR42      -0.0201
     71  CD1       17.4020    6.7960   10.9310 C.ar   42  TYR42      -0.0009
     72  CD2       17.3300    5.0900    9.2480 C.ar   42  TYR42      -0.0009
     73  CE1       17.5050    5.8150   11.9270 C.ar   42  TYR42       0.0417
     74  CE2       17.4290    4.1020   10.2320 C.ar   42  TYR42       0.0417
     75  CZ        17.5120    4.4780   11.5680 C.ar   42  TYR42       0.1957
     76  OH        17.6090    3.5140   12.5410 O.3    42  TYR42      -0.2866
     77  N         15.8390   11.6070   12.6780 N.3    47  GLN47      -0.1231
     78  CA        15.2760   10.4030   12.0580 C.3    47  GLN47       0.1698
     79  C         14.5530   10.6420   10.7400 C.2    47  GLN47       0.2592
     80  O         14.3790    9.7090    9.9560 O.2    47  GLN47      -0.2718
     81  CB        14.2810    9.7550   13.0250 C.3    47  GLN47       0.0381
     82  CG        14.8120    9.5720   14.4330 C.3    47  GLN47       0.0905
     83  CD        15.5310    8.2560   14.5930 C.2    47  GLN47       0.2608
     84  OE1       14.9110    7.2350   14.8640 O.2    47  GLN47      -0.2717
     85  NE2       16.8430    8.2740   14.4160 N.am   47  GLN47      -0.0878
     86  N         14.1230   11.8820   10.5160 N.am   48  HIS48      -0.1976
     87  CA        13.3320   12.2410    9.3430 C.3    48  HIS48       0.1656
     88  C         14.1550   12.3830    8.0600 C.2    48  HIS48       0.2291
     89  O         13.5930   12.3770    6.9630 O.2    48  HIS48      -0.2864
     90  CB        12.5350   13.5220    9.6040 C.3    48  HIS48       0.0771
     91  CG        11.4400   13.3610   10.6120 C.ar   48  HIS48       0.0820
     92  ND1       11.4520   14.0000   11.8350 N.ar   48  HIS48      -0.2267
     93  CD2       10.2960   12.6340   10.5810 C.ar   48  HIS48       0.1154
     94  CE1       10.3640   13.6760   12.5110 C.ar   48  HIS48       0.1986
     95  NE2        9.6430   12.8530   11.7710 N.ar   48  HIS48      -0.2212
     96  N         20.3520    4.0240   -3.8310 N.3    57  LEU57      -0.1245
     97  CA        19.0890    4.7580   -3.6960 C.3    57  LEU57       0.1561
     98  C         19.1770    6.1890   -4.2350 C.2    57  LEU57       0.2260
     99  O         18.2630    6.6650   -4.9120 O.2    57  LEU57      -0.2867
    100  CB        18.6030    4.7600   -2.2400 C.3    57  LEU57       0.0270
    101  CG        17.2340    5.4110   -2.0160 C.3    57  LEU57       0.0019
    102  CD1       16.1550    4.6650   -2.7830 C.3    57  LEU57       0.0001
    103  CD2       16.8970    5.4940   -0.5310 C.3    57  LEU57       0.0001
    104  N         16.9670    7.8300   -7.2360 N.3    61  PHE61      -0.1241
    105  CA        16.0780    8.9160   -6.8490 C.3    61  PHE61       0.1605
    106  C         16.5520   10.2420   -7.4240 C.2    61  PHE61       0.2264
    107  O         15.7730   11.1770   -7.5430 O.2    61  PHE61      -0.2867
    108  CB        15.9650    8.9880   -5.3230 C.3    61  PHE61       0.0534
    109  CG        14.8900    8.0980   -4.7430 C.ar   61  PHE61      -0.0203
    110  CD1       14.3580    7.0380   -5.4770 C.ar   61  PHE61      -0.0042
    111  CD2       14.4290    8.3110   -3.4460 C.ar   61  PHE61      -0.0042
    112  CE1       13.3660    6.2190   -4.9330 C.ar   61  PHE61      -0.0003
    113  CE2       13.4460    7.5010   -2.8920 C.ar   61  PHE61      -0.0003
    114  CZ        12.9090    6.4510   -3.6380 C.ar   61  PHE61      -0.0000
    115  N         16.8020   13.3420    1.2010 N.3    66  PHE66      -0.1241
    116  CA        15.4120   13.7820    1.2230 C.3    66  PHE66       0.1605
    117  C         14.8560   13.6430    2.6330 C.2    66  PHE66       0.2264
    118  O         15.4130   12.9050    3.4580 O.2    66  PHE66      -0.2867
    119  CB        14.5490   12.9830    0.2120 C.3    66  PHE66       0.0534
    120  CG        14.5530   11.4860    0.4440 C.ar   66  PHE66      -0.0203
    121  CD1       13.5750   10.8850    1.2420 C.ar   66  PHE66      -0.0042
    122  CD2       15.5190   10.6770   -0.1510 C.ar   66  PHE66      -0.0042
    123  CE1       13.5760    9.5020    1.4650 C.ar   66  PHE66      -0.0003
    124  CE2       15.5270    9.2860    0.0660 C.ar   66  PHE66      -0.0003
    125  CZ        14.5480    8.7020    0.8700 C.ar   66  PHE66      -0.0000
    126  N         11.6530   12.3590    4.9730 N.3    68  VAL68      -0.1231
    127  CA        10.5330   11.4200    4.8990 C.3    68  VAL68       0.1692
    128  C          9.1870   12.1490    5.0110 C.2    68  VAL68       0.2591
    129  O          8.1550   11.5830    4.6710 O.2    68  VAL68      -0.2718
    130  CB        10.6430   10.2670    5.9530 C.3    68  VAL68       0.0266
    131  CG1       11.9650    9.5360    5.8080 C.3    68  VAL68       0.0020
    132  CG2       10.4730   10.8050    7.3770 C.3    68  VAL68       0.0020
    133  N          9.2050   13.4040    5.4710 N.am   69  LYS69      -0.1980
    134  CA         7.9850   14.2280    5.5500 C.3    69  LYS69       0.1596
    135  C          7.5440   14.8040    4.1920 C.2    69  LYS69       0.2287
    136  O          6.4310   15.3080    4.0580 O.2    69  LYS69      -0.2864
    137  CB         8.1610   15.3810    6.5530 C.3    69  LYS69       0.0298
    138  CG         8.2260   14.9680    8.0250 C.3    69  LYS69       0.0038
    139  CD         8.5720   16.1780    8.8820 C.3    69  LYS69       0.0206
    140  CE         8.6910   15.8460   10.3620 C.3    69  LYS69       0.1093
    141  NZ         7.3690   15.7690   11.0430 N.3    69  LYS69      -0.1314
    142  N          6.2350   13.9770    1.1970 N.3    71  HIS71      -0.1241
    143  CA         5.5300   12.8380    0.6180 C.3    71  HIS71       0.1621
    144  C          5.4020   12.9350   -0.8990 C.2    71  HIS71       0.2264
    145  O          5.5680   11.9390   -1.6030 O.2    71  HIS71      -0.2867
    146  CB         4.1420   12.7250    1.2560 C.3    71  HIS71       0.0745
    147  CG         4.1750   12.3660    2.7110 C.ar   71  HIS71       0.0817
    148  ND1        3.0310   12.1700    3.4540 N.ar   71  HIS71      -0.2268
    149  CD2        5.2130   12.1420    3.5540 C.ar   71  HIS71       0.1154
    150  CE1        3.3630   11.8610    4.6960 C.ar   71  HIS71       0.1986
    151  NE2        4.6810   11.8390    4.7820 N.ar   71  HIS71      -0.2212
    152  N          8.6660   12.1150   -2.4790 N.3    74  ILE74      -0.1231
    153  CA         8.9380   10.6760   -2.3930 C.3    74  ILE74       0.1692
    154  C          8.2000    9.9570   -3.5120 C.2    74  ILE74       0.2592
    155  O          8.7680    9.1070   -4.1900 O.2    74  ILE74      -0.2718
    156  CB         8.5280   10.0900   -1.0260 C.3    74  ILE74       0.0266
    157  CG1        9.4640   10.5830    0.0740 C.3    74  ILE74       0.0019
    158  CG2        8.5670    8.5540   -1.0560 C.3    74  ILE74       0.0020
    159  CD1        8.8220   10.5860    1.4240 C.3    74  ILE74       0.0001
    160  N          6.9300   10.3040   -3.6990 N.am   75  TYR75      -0.1976
    161  CA         6.1520    9.7410   -4.7900 C.3    75  TYR75       0.1639
    162  C          6.7700   10.0750   -6.1460 C.2    75  TYR75       0.2290
    163  O          6.8800    9.2110   -7.0050 O.2    75  TYR75      -0.2864
    164  CB         4.6960   10.1950   -4.7140 C.3    75  TYR75       0.0560
    165  CG         3.8420    9.2730   -3.8770 C.ar   75  TYR75      -0.0198
    166  CD1        3.8930    9.3220   -2.4880 C.ar   75  TYR75      -0.0009
    167  CD2        2.9930    8.3460   -4.4740 C.ar   75  TYR75      -0.0009
    168  CE1        3.1250    8.4700   -1.7060 C.ar   75  TYR75       0.0417
    169  CE2        2.2120    7.4830   -3.7010 C.ar   75  TYR75       0.0417
    170  CZ         2.2870    7.5570   -2.3160 C.ar   75  TYR75       0.1957
    171  OH         1.5270    6.7180   -1.5370 O.3    75  TYR75      -0.2866
@<TRIPOS>BOND
     1   107   106    2
     2   106   105    1
     3   104   105    1
     4   163   162    2
     5   105   108    1
     6     7     6    1
     7     7     8    1
     8   162   161    1
     9     6     5    1
    10   110   112   ar
    11   110   109   ar
    12   108   109    1
    13   112   114   ar
    14    99    98    2
    15   161   164    1
    16   161   160    1
    17   109   111   ar
    18   164   165    1
    19     1     2    1
    20   167   165   ar
    21   167   169   ar
    22     5     2    1
    23    98    97    1
    24   155   154    2
    25     2     3    1
    26   165   166   ar
    27    96    97    1
    28   169   170   ar
    29   160   154   am
    30    97   100    1
    31   114   113   ar
    32   154   153    1
    33   111   113   ar
    34   102   101    1
    35    43    42    1
    36     3     4    2
    37     3     9   am
    38   166   168   ar
    39   152   153    1
    40   153   156    1
    41    44    42    1
    42   170   168   ar
    43   170   171    1
    44   100   101    1
    45    42    41    1
    46   101   103    1
    47     9    10    1
    48   145   144    2
    49   158   156    1
    50   156   157    1
    51    18    19    1
    52   144   143    1
    53    41    38    1
    54    10    11    1
    55    10    13    1
    56    23    24    1
    57    23    25    1
    58    23    22    1
    59    11    12    2
    60   122   124   ar
    61   122   120   ar
    62    13    14    1
    63   124   125   ar
    64   157   159    1
    65    19    22    1
    66    19    20    1
    67    37    38    1
    68   119   120    1
    69   119   116    1
    70    38    39    1
    71   120   121   ar
    72   143   142    1
    73   143   146    1
    74   125   123   ar
    75   115   116    1
    76   116   117    1
    77   121   123   ar
    78   146   147    1
    79    20    26   am
    80    20    21    2
    81    14    15    1
    82    26    27    1
    83    39    40    2
    84    39    45   am
    85    15    16    1
    86    28    27    1
    87    28    29    2
    88    56    54    1
    89    45    46    1
    90    27    30    1
    91    30    31    1
    92   117   118    2
    93    54    53    1
    94   147   148   ar
    95   147   149   ar
    96    33    31   ar
    97    33    35   ar
    98    16    17    1
    99    49    50    1
   100    31    32   ar
   101   148   150   ar
   102   149   151   ar
   103    35    36   ar
   104    46    47    1
   105   136   135    2
   106    53    50    1
   107    53    55    1
   108    50    51    1
   109   135   134    1
   110    47    48    2
   111   129   128    2
   112   150   151   ar
   113    32    34   ar
   114   127   126    1
   115   127   128    1
   116   127   130    1
   117   128   133   am
   118    36    34   ar
   119   133   134    1
   120    51    52    2
   121    51    57   am
   122   134   137    1
   123   131   130    1
   124   130   132    1
   125    57    58    1
   126   137   138    1
   127    89    88    2
   128    65    66    1
   129    58    59    1
   130    58    61    1
   131    59    60    2
   132    66    69    1
   133    66    67    1
   134   138   139    1
   135    88    87    1
   136    61    62    1
   137    64    63    1
   138    69    70    1
   139    62    63    1
   140   139   140    1
   141    67    68    2
   142    72    70   ar
   143    72    74   ar
   144    87    90    1
   145    87    86    1
   146    70    71   ar
   147    90    91    1
   148    80    79    2
   149    74    75   ar
   150   140   141    1
   151    86    79   am
   152    93    91   ar
   153    93    95   ar
   154    91    92   ar
   155    79    78    1
   156    71    73   ar
   157    75    73   ar
   158    75    76    1
   159    95    94   ar
   160    92    94   ar
   161    78    77    1
   162    78    81    1
   163    81    82    1
   164    85    83   am
   165    82    83    1
   166    83    84    2
