@<TRIPOS>MOLECULE
tmp/4zyfA00.pdb
 204 195 0 0 0
SMALL
GASTEIGER

@<TRIPOS>ATOM
      1  N         -1.0300   -4.5030   11.1160 N.3     1  GLN1       -0.1231
      2  CA        -1.1990   -4.5230    9.6320 C.3     1  GLN1        0.1698
      3  C          0.1550   -4.5650    8.9310 C.2     1  GLN1        0.2592
      4  O          1.0630   -3.8050    9.2660 O.2     1  GLN1       -0.2718
      5  CB        -2.0120   -3.3130    9.1550 C.3     1  GLN1        0.0381
      6  CG        -2.3890   -3.3410    7.6690 C.3     1  GLN1        0.0905
      7  CD        -3.4820   -4.3500    7.3460 C.2     1  GLN1        0.2608
      8  OE1       -4.5960   -4.2600    7.8610 O.2     1  GLN1       -0.2717
      9  NE2       -3.1670   -5.3120    6.4800 N.am    1  GLN1       -0.0878
     10  N          0.2600   -5.4540    7.9460 N.am    2  ILE2       -0.1980
     11  CA         1.5030   -5.7300    7.2280 C.3     2  ILE2        0.1595
     12  C          2.0500   -4.4910    6.5080 C.2     2  ILE2        0.2287
     13  O          1.3120   -3.8130    5.7930 O.2     2  ILE2       -0.2864
     14  CB         1.3170   -6.9230    6.2320 C.3     2  ILE2        0.0276
     15  CG1        1.1120   -8.2370    6.9910 C.3     2  ILE2        0.0022
     16  CG2        2.5130   -7.0770    5.3040 C.3     2  ILE2        0.0022
     17  CD1       -0.3290   -8.5680    7.3060 C.3     2  ILE2        0.0001
     18  N          4.8750   -6.0180   -0.1670 N.3     7  GLN7       -0.1245
     19  CA         4.3190   -6.3400   -1.4880 C.3     7  GLN7        0.1566
     20  C          5.2650   -6.0160   -2.6600 C.2     7  GLN7        0.2260
     21  O          5.0270   -6.4270   -3.8000 O.2     7  GLN7       -0.2867
     22  CB         2.9160   -5.7500   -1.6820 C.3     7  GLN7        0.0367
     23  CG         2.8490   -4.2470   -1.8680 C.3     7  GLN7        0.0905
     24  CD         1.4170   -3.7520   -2.0120 C.2     7  GLN7        0.2608
     25  OE1        0.5360   -4.0910   -1.2100 O.2     7  GLN7       -0.2717
     26  NE2        1.1780   -2.9480   -3.0380 N.am    7  GLN7       -0.0878
     27  N          3.0790   -8.2720   -4.7410 N.3    34  LYS34      -0.1245
     28  CA         1.8440   -7.6550   -5.2100 C.3    34  LYS34       0.1561
     29  C          1.2360   -8.3950   -6.4070 C.2    34  LYS34       0.2260
     30  O          0.0440   -8.6860   -6.3860 O.2    34  LYS34      -0.2867
     31  CB         2.0600   -6.1790   -5.5270 C.3    34  LYS34       0.0271
     32  CG         0.8320   -5.4650   -6.0500 C.3    34  LYS34       0.0035
     33  CD         1.1920   -4.0430   -6.4430 C.3    34  LYS34       0.0206
     34  CE        -0.0030   -3.2850   -6.9980 C.3    34  LYS34       0.1093
     35  NZ        -0.4070   -3.8140   -8.3280 N.3    34  LYS34      -0.1314
     36  N         -0.1250  -11.8420   -5.2620 N.3    37  LEU37      -0.1231
     37  CA        -1.3700  -11.6400   -4.5400 C.3    37  LEU37       0.1693
     38  C         -2.5290  -11.3970   -5.4980 C.2    37  LEU37       0.2592
     39  O         -3.5960  -11.9970   -5.3480 O.2    37  LEU37      -0.2718
     40  CB        -1.2300  -10.4840   -3.5480 C.3    37  LEU37       0.0284
     41  CG        -0.4540  -10.8100   -2.2710 C.3    37  LEU37       0.0019
     42  CD1        0.0570   -9.5190   -1.6200 C.3    37  LEU37       0.0001
     43  CD2       -1.3100  -11.6140   -1.3030 C.3    37  LEU37       0.0001
     44  N         -2.3160  -10.5400   -6.4970 N.am   38  PHE38      -0.1976
     45  CA        -3.3670  -10.2660   -7.4750 C.3    38  PHE38       0.1639
     46  C         -3.7220  -11.4430   -8.3920 C.2    38  PHE38       0.2290
     47  O         -4.9050  -11.6680   -8.6450 O.2    38  PHE38      -0.2864
     48  CB        -3.0800   -8.9810   -8.2570 C.3    38  PHE38       0.0560
     49  CG        -3.5340   -7.7400   -7.5320 C.ar   38  PHE38      -0.0200
     50  CD1       -4.8660   -7.3150   -7.6160 C.ar   38  PHE38      -0.0042
     51  CD2       -2.6470   -7.0080   -6.7550 C.ar   38  PHE38      -0.0042
     52  CE1       -5.3000   -6.1710   -6.9410 C.ar   38  PHE38      -0.0003
     53  CE2       -3.0730   -5.8560   -6.0810 C.ar   38  PHE38      -0.0003
     54  CZ        -4.4050   -5.4420   -6.1700 C.ar   38  PHE38      -0.0000
     55  N         -3.3140  -14.7120   -7.5880 N.3    40  LEU40      -0.1231
     56  CA        -4.0170  -15.6410   -6.6930 C.3    40  LEU40       0.1693
     57  C         -5.4240  -15.1460   -6.3890 C.2    40  LEU40       0.2593
     58  O         -6.3660  -15.9410   -6.3210 O.2    40  LEU40      -0.2718
     59  CB        -3.2410  -15.8790   -5.3990 C.3    40  LEU40       0.0284
     60  CG        -2.0150  -16.7880   -5.5310 C.3    40  LEU40       0.0019
     61  CD1       -1.2400  -16.8180   -4.2260 C.3    40  LEU40       0.0001
     62  CD2       -2.4390  -18.1930   -5.9060 C.3    40  LEU40       0.0001
     63  N         -5.5640  -13.8320   -6.2030 N.am   41  GLY41      -0.1942
     64  CA        -6.8940  -13.2240   -6.0540 C.3    41  GLY41       0.2014
     65  C         -7.7930  -13.5300   -7.2460 C.2    41  GLY41       0.2638
     66  O         -8.9390  -13.9700   -7.0700 O.2    41  GLY41      -0.2714
     67  N         -7.2790  -13.3160   -8.4550 N.am   42  GLN42      -0.1977
     68  CA        -8.0590  -13.5840   -9.6670 C.3    42  GLN42       0.1601
     69  C         -8.3840  -15.0630   -9.8210 C.2    42  GLN42       0.2287
     70  O         -9.4540  -15.4080  -10.3060 O.2    42  GLN42      -0.2864
     71  CB        -7.3990  -13.0310  -10.9290 C.3    42  GLN42       0.0394
     72  CG        -7.5470  -11.5020  -11.0900 C.3    42  GLN42       0.0908
     73  CD        -8.9950  -10.9960  -11.0850 C.2    42  GLN42       0.2608
     74  OE1       -9.2810   -9.9380  -10.5170 O.2    42  GLN42      -0.2717
     75  NE2       -9.9050  -11.7440  -11.7030 N.am   42  GLN42      -0.0878
     76  N         -8.9250  -17.1960   -7.3130 N.3    44  ILE44      -0.1231
     77  CA       -10.0090  -17.4090   -6.3650 C.3    44  ILE44       0.1692
     78  C        -11.3320  -16.8740   -6.9410 C.2    44  ILE44       0.2591
     79  O        -12.3520  -17.5500   -6.8770 O.2    44  ILE44      -0.2718
     80  CB        -9.6720  -16.7490   -5.0090 C.3    44  ILE44       0.0266
     81  CG1       -8.5330  -17.5390   -4.3300 C.3    44  ILE44       0.0019
     82  CG2      -10.9260  -16.6670   -4.0960 C.3    44  ILE44       0.0020
     83  CD1       -7.8200  -16.7580   -3.2090 C.3    44  ILE44       0.0001
     84  N        -11.2820  -15.6810   -7.5300 N.am   45  MET45      -0.1979
     85  CA       -12.4770  -15.0170   -8.0710 C.3    45  MET45       0.1605
     86  C        -13.0530  -15.7310   -9.2880 C.2    45  MET45       0.2287
     87  O        -14.2650  -15.9770   -9.3640 O.2    45  MET45      -0.2864
     88  CB       -12.1590  -13.5740   -8.4530 C.3    45  MET45       0.0413
     89  CG       -11.8330  -12.6860   -7.2860 C.3    45  MET45       0.0598
     90  SD       -12.9740  -12.8980   -5.9200 S.3    45  MET45      -0.1393
     91  CE       -12.9750  -11.2320   -5.2880 C.3    45  MET45       0.0692
     92  N        -14.8180  -18.9320   -3.2180 N.3    50  TYR50      -0.1241
     93  CA       -15.3900  -18.3570   -2.0060 C.3    50  TYR50       0.1605
     94  C        -16.8360  -18.7540   -1.8240 C.2    50  TYR50       0.2264
     95  O        -17.5790  -18.9270   -2.8030 O.2    50  TYR50      -0.2867
     96  CB       -15.2450  -16.8310   -1.9740 C.3    50  TYR50       0.0534
     97  CG       -15.8590  -16.1220   -3.1560 C.ar   50  TYR50      -0.0201
     98  CD1      -17.1430  -15.5860   -3.0810 C.ar   50  TYR50      -0.0009
     99  CD2      -15.1620  -16.0000   -4.3560 C.ar   50  TYR50      -0.0009
    100  CE1      -17.7050  -14.9310   -4.1630 C.ar   50  TYR50       0.0417
    101  CE2      -15.7180  -15.3520   -5.4420 C.ar   50  TYR50       0.0417
    102  CZ       -16.9880  -14.8200   -5.3400 C.ar   50  TYR50       0.1957
    103  OH       -17.5480  -14.1790   -6.4230 O.3    50  TYR50      -0.2866
    104  N        -18.7870  -14.7490    2.0810 N.3    55  GLN55      -0.1231
    105  CA       -17.9150  -14.4830    0.9390 C.3    55  GLN55       0.1698
    106  C        -16.4530  -14.2240    1.2600 C.2    55  GLN55       0.2592
    107  O        -15.6210  -14.2420    0.3550 O.2    55  GLN55      -0.2718
    108  CB       -18.5200  -13.3970    0.0490 C.3    55  GLN55       0.0381
    109  CG       -19.8930  -13.8010   -0.4730 C.3    55  GLN55       0.0905
    110  CD       -20.3480  -12.9790   -1.6470 C.2    55  GLN55       0.2608
    111  OE1      -20.2560  -11.7560   -1.6280 O.2    55  GLN55      -0.2717
    112  NE2      -20.8550  -13.6470   -2.6780 N.am   55  GLN55      -0.0878
    113  N        -16.1340  -14.0150    2.5350 N.am   56  HIS56      -0.1976
    114  CA       -14.7370  -13.8490    2.9330 C.3    56  HIS56       0.1656
    115  C        -14.0000  -15.1760    3.1310 C.2    56  HIS56       0.2291
    116  O        -12.7760  -15.1870    3.2370 O.2    56  HIS56      -0.2864
    117  CB       -14.6070  -12.9570    4.1720 C.3    56  HIS56       0.0771
    118  CG       -14.9760  -11.5280    3.9130 C.ar   56  HIS56       0.0820
    119  ND1      -15.6970  -10.7670    4.8100 N.ar   56  HIS56      -0.2267
    120  CD2      -14.7370  -10.7280    2.8460 C.ar   56  HIS56       0.1154
    121  CE1      -15.8780   -9.5560    4.3090 C.ar   56  HIS56       0.1986
    122  NE2      -15.3040   -9.5070    3.1180 N.ar   56  HIS56      -0.2212
    123  N        -12.6190  -18.6360    1.7830 N.3    58  VAL58      -0.1245
    124  CA       -12.1940  -19.3540    0.5950 C.3    58  VAL58       0.1561
    125  C        -12.0950  -20.8360    0.9360 C.2    58  VAL58       0.2260
    126  O        -11.4180  -21.2040    1.8870 O.2    58  VAL58      -0.2867
    127  CB       -10.8180  -18.8540    0.1000 C.3    58  VAL58       0.0252
    128  CG1      -10.3050  -19.7110   -1.0470 C.3    58  VAL58       0.0019
    129  CG2      -10.9130  -17.3920   -0.3400 C.3    58  VAL58       0.0019
    130  N         -5.1030  -25.0820   -4.9730 N.3    65  LEU65      -0.1245
    131  CA        -4.8030  -24.0530   -3.9690 C.3    65  LEU65       0.1561
    132  C         -4.6940  -24.6480   -2.5570 C.2    65  LEU65       0.2260
    133  O         -3.8430  -24.2310   -1.7680 O.2    65  LEU65      -0.2867
    134  CB        -5.8290  -22.9000   -4.0210 C.3    65  LEU65       0.0270
    135  CG        -5.6270  -21.7190   -3.0530 C.3    65  LEU65       0.0019
    136  CD1       -4.3250  -20.9770   -3.3150 C.3    65  LEU65       0.0001
    137  CD2       -6.8100  -20.7530   -3.0880 C.3    65  LEU65       0.0001
    138  N         -1.4880  -24.3990   -0.0950 N.3    69  PHE69      -0.1241
    139  CA        -1.5900  -23.7300    1.2080 C.3    69  PHE69       0.1605
    140  C         -1.6300  -24.6720    2.4130 C.2    69  PHE69       0.2264
    141  O         -1.4220  -24.2400    3.5580 O.2    69  PHE69      -0.2867
    142  CB        -2.8150  -22.8050    1.2230 C.3    69  PHE69       0.0534
    143  CG        -2.5970  -21.4770    0.5240 C.ar   69  PHE69      -0.0203
    144  CD1       -1.4260  -21.2170   -0.1940 C.ar   69  PHE69      -0.0042
    145  CD2       -3.5910  -20.5000    0.5660 C.ar   69  PHE69      -0.0042
    146  CE1       -1.2350  -19.9920   -0.8340 C.ar   69  PHE69      -0.0003
    147  CE2       -3.4170  -19.2760   -0.0680 C.ar   69  PHE69      -0.0003
    148  CZ        -2.2360  -19.0200   -0.7770 C.ar   69  PHE69      -0.0000
    149  N         -9.6550  -20.8710    4.3920 N.3    74  PHE74      -0.1241
    150  CA        -9.0890  -19.7250    5.1140 C.3    74  PHE74       0.1605
    151  C         -9.9380  -18.4800    4.8390 C.2    74  PHE74       0.2264
    152  O        -10.6730  -18.4160    3.8480 O.2    74  PHE74      -0.2867
    153  CB        -7.6270  -19.4700    4.7100 C.3    74  PHE74       0.0534
    154  CG        -7.4480  -19.0780    3.2580 C.ar   74  PHE74      -0.0203
    155  CD1       -7.3980  -17.7380    2.8820 C.ar   74  PHE74      -0.0042
    156  CD2       -7.3240  -20.0540    2.2690 C.ar   74  PHE74      -0.0042
    157  CE1       -7.2470  -17.3690    1.5410 C.ar   74  PHE74      -0.0003
    158  CE2       -7.1550  -19.6990    0.9300 C.ar   74  PHE74      -0.0003
    159  CZ        -7.1160  -18.3450    0.5640 C.ar   74  PHE74      -0.0000
    160  N        -10.0620  -14.4480    3.8990 N.3    76  VAL76      -0.1245
    161  CA        -9.2630  -13.4280    3.2210 C.3    76  VAL76       0.1561
    162  C         -8.8380  -12.3350    4.2050 C.2    76  VAL76       0.2260
    163  O         -7.9210  -11.5710    3.9340 O.2    76  VAL76      -0.2867
    164  CB        -9.9890  -12.8250    1.9980 C.3    76  VAL76       0.0252
    165  CG1      -10.2070  -13.8990    0.9380 C.3    76  VAL76       0.0019
    166  CG2      -11.3300  -12.1730    2.4100 C.3    76  VAL76       0.0019
    167  N         -4.6990  -11.8500    7.0130 N.3    79  HIS79      -0.1241
    168  CA        -3.6450  -11.2990    6.1550 C.3    79  HIS79       0.1621
    169  C         -2.2460  -11.8510    6.4100 C.2    79  HIS79       0.2264
    170  O         -1.5100  -12.1370    5.4630 O.2    79  HIS79      -0.2867
    171  CB        -3.6500   -9.7690    6.2080 C.3    79  HIS79       0.0745
    172  CG        -4.9840   -9.1670    5.8990 C.ar   79  HIS79       0.0817
    173  ND1       -5.5960   -8.2460    6.7220 N.ar   79  HIS79      -0.2268
    174  CD2       -5.8400   -9.3800    4.8710 C.ar   79  HIS79       0.1154
    175  CE1       -6.7670   -7.9120    6.2100 C.ar   79  HIS79       0.1986
    176  NE2       -6.9380   -8.5840    5.0850 N.ar   79  HIS79      -0.2212
    177  N         -2.1350  -15.4550    5.1500 N.3    82  ILE82      -0.1231
    178  CA        -2.0670  -15.4450    3.6820 C.3    82  ILE82       0.1692
    179  C         -0.6430  -15.1580    3.2090 C.2    82  ILE82       0.2592
    180  O         -0.1210  -15.8540    2.3410 O.2    82  ILE82      -0.2718
    181  CB        -3.0950  -14.4500    3.0840 C.3    82  ILE82       0.0266
    182  CG1       -4.5080  -15.0100    3.2490 C.3    82  ILE82       0.0019
    183  CG2       -2.7880  -14.1360    1.6190 C.3    82  ILE82       0.0020
    184  CD1       -5.6070  -13.9790    3.0660 C.3    82  ILE82       0.0001
    185  N          0.0080  -14.1580    3.8020 N.am   83  TYR83      -0.1976
    186  CA         1.4070  -13.9240    3.4860 C.3    83  TYR83       0.1639
    187  C          2.2700  -15.1480    3.7470 C.2    83  TYR83       0.2290
    188  O          3.0870  -15.4990    2.9150 O.2    83  TYR83      -0.2864
    189  CB         1.9690  -12.7110    4.2300 C.3    83  TYR83       0.0560
    190  CG         1.8260  -11.4350    3.4440 C.ar   83  TYR83      -0.0198
    191  CD1        0.6730  -10.6630    3.5390 C.ar   83  TYR83      -0.0009
    192  CD2        2.8390  -11.0030    2.5930 C.ar   83  TYR83      -0.0009
    193  CE1        0.5350   -9.4820    2.8110 C.ar   83  TYR83       0.0417
    194  CE2        2.7050   -9.8200    1.8570 C.ar   83  TYR83       0.0417
    195  CZ         1.5480   -9.0710    1.9770 C.ar   83  TYR83       0.1957
    196  OH         1.4020   -7.8980    1.2650 O.3    83  TYR83      -0.2866
    197  N          1.6410  -18.0180    1.1900 N.3    86  ILE86      -0.1245
    198  CA         2.2630  -17.6750   -0.0790 C.3    86  ILE86       0.1561
    199  C          3.7890  -17.7660    0.0020 C.2    86  ILE86       0.2260
    200  O          4.4130  -18.3370   -0.8770 O.2    86  ILE86      -0.2867
    201  CB         1.7920  -16.2970   -0.6130 C.3    86  ILE86       0.0252
    202  CG1        0.2860  -16.3410   -0.8910 C.3    86  ILE86       0.0019
    203  CG2        2.5630  -15.9210   -1.8750 C.3    86  ILE86       0.0019
    204  CD1       -0.3520  -14.9900   -1.1420 C.3    86  ILE86       0.0001
@<TRIPOS>BOND
     1    75    73   am
     2    72    73    1
     3    72    71    1
     4    73    74    2
     5    71    68    1
     6    70    69    2
     7    69    68    1
     8    68    67    1
     9    87    86    2
    10    86    85    1
    11    47    46    2
    12    67    65   am
    13    88    85    1
    14    88    89    1
    15    46    45    1
    16    35    34    1
    17    48    49    1
    18    48    45    1
    19    85    84    1
    20    50    49   ar
    21    50    52   ar
    22    55    56    1
    23    49    51   ar
    24    84    78   am
    25    45    44    1
    26    76    77    1
    27    89    90    1
    28    65    66    2
    29    65    64    1
    30    34    33    1
    31    78    79    2
    32    78    77    1
    33    52    54   ar
    34    51    53   ar
    35    56    57    1
    36    56    59    1
    37    44    38   am
    38    33    32    1
    39   103   102    1
    40    29    30    2
    41    29    28    1
    42    57    58    2
    43    57    63   am
    44    77    80    1
    45    63    64    1
    46    54    53   ar
    47    32    31    1
    48    90    91    1
    49    62    60    1
    50    60    59    1
    51    60    61    1
    52    31    28    1
    53    38    39    2
    54    38    37    1
    55   101   102   ar
    56   101    99   ar
    57   102   100   ar
    58    36    37    1
    59    28    27    1
    60    80    81    1
    61    80    82    1
    62   130   131    1
    63    37    40    1
    64    99    97   ar
    65    81    83    1
    66   100    98   ar
    67   134   131    1
    68   134   135    1
    69   131   132    1
    70    21    20    2
    71    40    41    1
    72   136   135    1
    73    92    93    1
    74    97    98   ar
    75    97    96    1
    76   137   135    1
    77    26    24   am
    78    95    94    2
    79   112   110   am
    80    20    19    1
    81   132   133    2
    82    41    42    1
    83    41    43    1
    84    24    23    1
    85    24    25    2
    86    93    96    1
    87    93    94    1
    88   203   201    1
    89    23    22    1
    90    22    19    1
    91   110   111    2
    92   110   109    1
    93    19    18    1
    94   204   202    1
    95   128   127    1
    96   202   201    1
    97   200   199    2
    98   146   148   ar
    99   146   144   ar
   100   148   147   ar
   101   201   198    1
   102   109   108    1
   103   129   127    1
   104   144   143   ar
   105   138   139    1
   106   198   199    1
   107   198   197    1
   108   147   145   ar
   109   108   105    1
   110   127   124    1
   111   107   106    2
   112   143   145   ar
   113   143   142    1
   114   159   158   ar
   115   159   157   ar
   116   124   125    1
   117   124   123    1
   118   158   156   ar
   119   125   126    2
   120   165   164    1
   121   105   106    1
   122   105   104    1
   123   139   142    1
   124   139   140    1
   125   106   113   am
   126   196   195    1
   127   157   155   ar
   128   183   181    1
   129   194   195   ar
   130   194   192   ar
   131   195   193   ar
   132   164   166    1
   133   164   161    1
   134   156   154   ar
   135   180   179    2
   136   140   141    2
   137   113   114    1
   138   192   190   ar
   139   193   191   ar
   140   120   122   ar
   141   120   118   ar
   142   155   154   ar
   143   188   187    2
   144   114   115    1
   145   114   117    1
   146   184   182    1
   147   181   182    1
   148   181   178    1
   149   122   121   ar
   150   115   116    2
   151   179   178    1
   152   179   185   am
   153   161   160    1
   154   161   162    1
   155   154   153    1
   156   190   191   ar
   157   190   189    1
   158   186   187    1
   159   186   185    1
   160   186   189    1
   161   178   177    1
   162   152   151    2
   163   118   117    1
   164   118   119   ar
   165   163   162    2
   166   121   119   ar
   167   149   150    1
   168   153   150    1
   169   151   150    1
   170   174   176   ar
   171   174   172   ar
   172   176   175   ar
   173    16    14    1
   174   170   169    2
   175    13    12    2
   176   172   171    1
   177   172   173   ar
   178   168   171    1
   179   168   169    1
   180   168   167    1
   181   175   173   ar
   182    14    15    1
   183    14    11    1
   184     9     7   am
   185    12    11    1
   186    15    17    1
   187    11    10    1
   188     7     6    1
   189     7     8    2
   190     6     5    1
   191    10     3   am
   192     3     4    2
   193     3     2    1
   194     5     2    1
   195     2     1    1
