@<TRIPOS>MOLECULE
tmp/4zyiA00.pdb
 187 179 0 0 0
SMALL
GASTEIGER

@<TRIPOS>ATOM
      1  N         -4.8600    5.9380    0.1720 N.3     5  GLN5       -0.1245
      2  CA        -4.2460    6.1080   -1.1460 C.3     5  GLN5        0.1566
      3  C         -5.2130    5.8360   -2.3140 C.2     5  GLN5        0.2260
      4  O         -4.9430    6.1980   -3.4620 O.2     5  GLN5       -0.2867
      5  CB        -2.9720    5.2630   -1.2350 C.3     5  GLN5        0.0367
      6  CG        -2.1030    5.4070    0.0240 C.3     5  GLN5        0.0905
      7  CD        -0.6130    5.2750   -0.2350 C.2     5  GLN5        0.2608
      8  OE1       -0.1520    4.2920   -0.8200 O.2     5  GLN5       -0.2717
      9  NE2        0.1550    6.2650    0.2270 N.am    5  GLN5       -0.0878
     10  N         -2.9920    8.1400   -4.5610 N.3    31  LYS31      -0.1245
     11  CA        -1.7790    7.4960   -5.0630 C.3    31  LYS31       0.1561
     12  C         -1.1420    8.3050   -6.1940 C.2    31  LYS31       0.2260
     13  O          0.0620    8.5920   -6.1330 O.2    31  LYS31      -0.2867
     14  CB        -2.0670    6.0670   -5.5280 C.3    31  LYS31       0.0271
     15  CG        -0.8290    5.3180   -6.0200 C.3    31  LYS31       0.0035
     16  CD        -1.2240    4.0470   -6.7670 C.3    31  LYS31       0.0206
     17  CE        -0.0600    3.0660   -6.8990 C.3    31  LYS31       0.1093
     18  NZ         0.8770    3.3940   -8.0210 N.3    31  LYS31      -0.1314
     19  N          0.2350   11.8120   -4.9980 N.3    34  LEU34      -0.1231
     20  CA         1.4900   11.6350   -4.2610 C.3    34  LEU34       0.1693
     21  C          2.6670   11.3660   -5.2060 C.2    34  LEU34       0.2592
     22  O          3.7380   11.9570   -5.0690 O.2    34  LEU34      -0.2718
     23  CB         1.3450   10.4930   -3.2550 C.3    34  LEU34       0.0284
     24  CG         0.4970   10.7870   -2.0200 C.3    34  LEU34       0.0019
     25  CD1        0.1470    9.4780   -1.3060 C.3    34  LEU34       0.0001
     26  CD2        1.2340   11.7300   -1.0770 C.3    34  LEU34       0.0001
     27  N          2.4770   10.4790   -6.1700 N.am   35  PHE35      -0.1976
     28  CA         3.5490   10.2130   -7.1290 C.3    35  PHE35       0.1639
     29  C          3.9000   11.4170   -8.0180 C.2    35  PHE35       0.2290
     30  O          5.0910   11.6930   -8.2190 O.2    35  PHE35      -0.2864
     31  CB         3.2750    8.9460   -7.9160 C.3    35  PHE35       0.0560
     32  CG         3.6450    7.6970   -7.1640 C.ar   35  PHE35      -0.0200
     33  CD1        4.9670    7.2580   -7.1310 C.ar   35  PHE35      -0.0042
     34  CD2        2.6760    6.9710   -6.4730 C.ar   35  PHE35      -0.0042
     35  CE1        5.3170    6.1010   -6.4240 C.ar   35  PHE35      -0.0003
     36  CE2        3.0150    5.8110   -5.7740 C.ar   35  PHE35      -0.0003
     37  CZ         4.3370    5.3780   -5.7460 C.ar   35  PHE35      -0.0000
     38  N          3.3580   14.6960   -7.2590 N.3    37  LEU37      -0.1231
     39  CA         4.0340   15.6590   -6.3860 C.3    37  LEU37       0.1693
     40  C          5.4650   15.2300   -6.0670 C.2    37  LEU37       0.2593
     41  O          6.3720   16.0700   -5.9960 O.2    37  LEU37      -0.2718
     42  CB         3.2330   15.8760   -5.0940 C.3    37  LEU37       0.0284
     43  CG         1.9930   16.7330   -5.3140 C.3    37  LEU37       0.0019
     44  CD1        1.1910   16.7560   -4.0350 C.3    37  LEU37       0.0001
     45  CD2        2.3450   18.1580   -5.7220 C.3    37  LEU37       0.0001
     46  N          5.6710   13.9220   -5.8860 N.am   38  GLY38      -0.1942
     47  CA         7.0000   13.3970   -5.6090 C.3    38  GLY38       0.2014
     48  C          7.9170   13.6740   -6.7850 C.2    38  GLY38       0.2638
     49  O          9.0550   14.1150   -6.5930 O.2    38  GLY38      -0.2714
     50  N          7.4200   13.4260   -7.9920 N.am   39  GLN39      -0.1977
     51  CA         8.2200   13.6860   -9.2070 C.3    39  GLN39       0.1601
     52  C          8.5150   15.1730   -9.3980 C.2    39  GLN39       0.2287
     53  O          9.6080   15.5500   -9.8320 O.2    39  GLN39      -0.2864
     54  CB         7.5830   13.0900  -10.4540 C.3    39  GLN39       0.0394
     55  CG         7.7120   11.5520  -10.5120 C.3    39  GLN39       0.0908
     56  CD         9.1580   11.0520  -10.4710 C.2    39  GLN39       0.2608
     57  OE1        9.4910   10.1290   -9.7150 O.2    39  GLN39      -0.2717
     58  NE2       10.0100   11.6580  -11.2600 N.am   39  GLN39      -0.0878
     59  N          8.8830   17.3700   -6.9390 N.3    41  ILE41      -0.1231
     60  CA         9.9370   17.6090   -5.9680 C.3    41  ILE41       0.1692
     61  C         11.2930   17.1060   -6.4910 C.2    41  ILE41       0.2591
     62  O         12.2890   17.8290   -6.4190 O.2    41  ILE41      -0.2718
     63  CB         9.6050   16.9560   -4.6180 C.3    41  ILE41       0.0266
     64  CG1        8.4660   17.7480   -3.9690 C.3    41  ILE41       0.0019
     65  CG2       10.8330   16.9690   -3.7030 C.3    41  ILE41       0.0020
     66  CD1        7.7380   17.0000   -2.8500 C.3    41  ILE41       0.0001
     67  N         11.3180   15.8990   -7.0410 N.am   42  MET42      -0.1979
     68  CA        12.6010   15.3120   -7.4430 C.3    42  MET42       0.1605
     69  C         13.1570   16.0000   -8.6640 C.2    42  MET42       0.2287
     70  O         14.3380   16.3580   -8.6780 O.2    42  MET42      -0.2864
     71  CB        12.4330   13.8440   -7.7640 C.3    42  MET42       0.0413
     72  CG        11.8030   13.1580   -6.6730 C.3    42  MET42       0.0598
     73  SD        12.8980   12.9560   -5.3410 S.3    42  MET42      -0.1393
     74  CE        12.5000   11.2330   -5.2690 C.3    42  MET42       0.0692
     75  N         14.6650   19.1470   -2.7720 N.3    47  TYR47      -0.1241
     76  CA        15.1650   18.5350   -1.5400 C.3    47  TYR47       0.1605
     77  C         16.6290   18.8850   -1.3420 C.2    47  TYR47       0.2264
     78  O         17.3320   19.1820   -2.3090 O.2    47  TYR47      -0.2867
     79  CB        14.9970   17.0130   -1.5810 C.3    47  TYR47       0.0534
     80  CG        15.6990   16.3650   -2.7550 C.ar   47  TYR47      -0.0201
     81  CD1       17.0010   15.8800   -2.6310 C.ar   47  TYR47      -0.0009
     82  CD2       15.0730   16.2640   -3.9980 C.ar   47  TYR47      -0.0009
     83  CE1       17.6540   15.3040   -3.7160 C.ar   47  TYR47       0.0417
     84  CE2       15.7160   15.6900   -5.0790 C.ar   47  TYR47       0.0417
     85  CZ        17.0070   15.2140   -4.9310 C.ar   47  TYR47       0.1957
     86  OH        17.6560   14.6440   -6.0040 O.3    47  TYR47      -0.2866
     87  N         18.4950   14.7500    2.5120 N.3    52  GLN52      -0.1231
     88  CA        17.5440   14.4020    1.4470 C.3    52  GLN52       0.1698
     89  C         16.0710   14.3190    1.8530 C.2    52  GLN52       0.2592
     90  O         15.2000   14.4380    0.9970 O.2    52  GLN52      -0.2718
     91  CB        18.0060   13.1740    0.6390 C.3    52  GLN52       0.0381
     92  CG        19.5010   13.2310    0.2540 C.3    52  GLN52       0.0905
     93  CD        19.8210   12.7190   -1.1510 C.2    52  GLN52       0.2608
     94  OE1       19.0800   11.9210   -1.7290 O.2    52  GLN52      -0.2717
     95  NE2       20.9420   13.1910   -1.7060 N.am   52  GLN52      -0.0878
     96  N         15.7950   14.1530    3.1450 N.am   53  HIS53      -0.1976
     97  CA        14.4070   14.0540    3.6210 C.3    53  HIS53       0.1656
     98  C         13.7110   15.4150    3.7370 C.2    53  HIS53       0.2291
     99  O         12.4890   15.4700    3.9180 O.2    53  HIS53      -0.2864
    100  CB        14.3200   13.3200    4.9690 C.3    53  HIS53       0.0771
    101  CG        14.5460   11.8380    4.8790 C.ar   53  HIS53       0.0820
    102  ND1       15.3260   11.1470    5.7860 N.ar   53  HIS53      -0.2267
    103  CD2       14.0880   10.9140    4.0000 C.ar   53  HIS53       0.1154
    104  CE1       15.3360    9.8640    5.4690 C.ar   53  HIS53       0.1986
    105  NE2       14.5900    9.6950    4.3910 N.ar   53  HIS53      -0.2212
    106  N         12.3750   18.8460    2.2250 N.3    55  VAL55      -0.1245
    107  CA        11.9490   19.5500    1.0110 C.3    55  VAL55       0.1561
    108  C         11.8500   21.0510    1.3200 C.2    55  VAL55       0.2260
    109  O         11.1720   21.4420    2.2580 O.2    55  VAL55      -0.2867
    110  CB        10.5780   19.0310    0.5210 C.3    55  VAL55       0.0252
    111  CG1       10.0870   19.8210   -0.7180 C.3    55  VAL55       0.0019
    112  CG2       10.6590   17.5470    0.1960 C.3    55  VAL55       0.0019
    113  N          5.0440   25.2460   -4.8590 N.3    62  LEU62      -0.1245
    114  CA         4.7290   24.2210   -3.8770 C.3    62  LEU62       0.1561
    115  C          4.5780   24.8080   -2.4590 C.2    62  LEU62       0.2260
    116  O          3.7300   24.3530   -1.6840 O.2    62  LEU62      -0.2867
    117  CB         5.7900   23.1070   -3.8960 C.3    62  LEU62       0.0270
    118  CG         5.5270   21.9520   -2.9220 C.3    62  LEU62       0.0019
    119  CD1        4.1400   21.3030   -3.1900 C.3    62  LEU62       0.0001
    120  CD2        6.6870   20.9380   -3.0130 C.3    62  LEU62       0.0001
    121  N          1.2410   24.5970   -0.0270 N.3    66  PHE66      -0.1241
    122  CA         1.3430   23.9250    1.2670 C.3    66  PHE66       0.1605
    123  C          1.3610   24.8680    2.4640 C.2    66  PHE66       0.2264
    124  O          1.0900   24.4350    3.5950 O.2    66  PHE66      -0.2867
    125  CB         2.5880   23.0230    1.2880 C.3    66  PHE66       0.0534
    126  CG         2.3920   21.6760    0.6290 C.ar   66  PHE66      -0.0203
    127  CD1        1.2150   21.3640   -0.0750 C.ar   66  PHE66      -0.0042
    128  CD2        3.4000   20.7180    0.7040 C.ar   66  PHE66      -0.0042
    129  CE1        1.0500   20.1180   -0.6720 C.ar   66  PHE66      -0.0003
    130  CE2        3.2380   19.4610    0.1100 C.ar   66  PHE66      -0.0003
    131  CZ         2.0580   19.1710   -0.5800 C.ar   66  PHE66      -0.0000
    132  N          9.3530   21.1360    4.7230 N.3    71  PHE71      -0.1241
    133  CA         8.7680   20.0050    5.4390 C.3    71  PHE71       0.1605
    134  C          9.6360   18.7720    5.2290 C.2    71  PHE71       0.2264
    135  O         10.4110   18.7140    4.2800 O.2    71  PHE71      -0.2867
    136  CB         7.3220   19.7320    4.9850 C.3    71  PHE71       0.0534
    137  CG         7.1920   19.3290    3.5350 C.ar   71  PHE71      -0.0203
    138  CD1        7.1960   17.9880    3.1720 C.ar   71  PHE71      -0.0042
    139  CD2        7.0290   20.3030    2.5410 C.ar   71  PHE71      -0.0042
    140  CE1        7.0710   17.6110    1.8350 C.ar   71  PHE71      -0.0003
    141  CE2        6.8970   19.9460    1.2010 C.ar   71  PHE71      -0.0003
    142  CZ         6.9070   18.5900    0.8500 C.ar   71  PHE71      -0.0000
    143  N          9.7990   14.6600    4.4190 N.3    73  VAL73      -0.1245
    144  CA         9.0150   13.6280    3.7530 C.3    73  VAL73       0.1561
    145  C          8.5820   12.5680    4.7650 C.2    73  VAL73       0.2260
    146  O          7.7290   11.7420    4.4690 O.2    73  VAL73      -0.2867
    147  CB         9.7620   12.9760    2.5580 C.3    73  VAL73       0.0252
    148  CG1       10.0960   14.0160    1.4960 C.3    73  VAL73       0.0019
    149  CG2       11.0310   12.2550    3.0230 C.3    73  VAL73       0.0019
    150  N          4.3220   12.2160    7.5920 N.3    76  HIS76      -0.1241
    151  CA         3.2930   11.6110    6.7400 C.3    76  HIS76       0.1621
    152  C          1.8920   12.1830    6.9200 C.2    76  HIS76       0.2264
    153  O          1.2300   12.4790    5.9370 O.2    76  HIS76      -0.2867
    154  CB         3.2750   10.0870    6.8760 C.3    76  HIS76       0.0745
    155  CG         4.5820    9.4420    6.5330 C.ar   76  HIS76       0.0817
    156  ND1        5.2370    8.5870    7.3930 N.ar   76  HIS76      -0.2268
    157  CD2        5.3670    9.5450    5.4340 C.ar   76  HIS76       0.1154
    158  CE1        6.3650    8.1830    6.8360 C.ar   76  HIS76       0.1986
    159  NE2        6.4670    8.7500    5.6460 N.ar   76  HIS76      -0.2212
    160  N          1.8040   15.7010    5.4860 N.3    79  ILE79      -0.1231
    161  CA         1.7660   15.7000    4.0180 C.3    79  ILE79       0.1692
    162  C          0.3550   15.4640    3.5220 C.2    79  ILE79       0.2592
    163  O         -0.1280   16.1880    2.6590 O.2    79  ILE79      -0.2718
    164  CB         2.7740   14.6960    3.3920 C.3    79  ILE79       0.0266
    165  CG1        4.1840   15.2580    3.5400 C.3    79  ILE79       0.0019
    166  CG2        2.4590   14.4460    1.9190 C.3    79  ILE79       0.0020
    167  CD1        5.2550   14.2060    3.5240 C.3    79  ILE79       0.0001
    168  N         -0.3190   14.4610    4.0810 N.am   80  TYR80      -0.1976
    169  CA        -1.6970   14.2080    3.7130 C.3    80  TYR80       0.1639
    170  C         -2.5860   15.4190    3.9540 C.2    80  TYR80       0.2290
    171  O         -3.4220   15.7220    3.1140 O.2    80  TYR80      -0.2864
    172  CB        -2.2640   12.9930    4.4460 C.3    80  TYR80       0.0560
    173  CG        -1.9400   11.6780    3.7930 C.ar   80  TYR80      -0.0198
    174  CD1       -1.0490   10.7900    4.3850 C.ar   80  TYR80      -0.0009
    175  CD2       -2.5430   11.3140    2.5920 C.ar   80  TYR80      -0.0009
    176  CE1       -0.7560    9.5740    3.7880 C.ar   80  TYR80       0.0417
    177  CE2       -2.2570   10.1000    1.9830 C.ar   80  TYR80       0.0417
    178  CZ        -1.3690    9.2400    2.5860 C.ar   80  TYR80       0.1957
    179  OH        -1.0920    8.0350    1.9870 O.3    80  TYR80      -0.2866
    180  N         -1.9050   18.1860    1.4310 N.3    83  ILE83      -0.1245
    181  CA        -2.4910   17.8190    0.1530 C.3    83  ILE83       0.1561
    182  C         -4.0200   17.9080    0.1600 C.2    83  ILE83       0.2260
    183  O         -4.6110   18.4710   -0.7560 O.2    83  ILE83      -0.2867
    184  CB        -1.9980   16.4310   -0.3210 C.3    83  ILE83       0.0252
    185  CG1       -0.4840   16.4640   -0.5710 C.3    83  ILE83       0.0019
    186  CG2       -2.7220   16.0100   -1.5870 C.3    83  ILE83       0.0019
    187  CD1        0.1000   15.0860   -0.8760 C.3    83  ILE83       0.0001
@<TRIPOS>BOND
     1    58    56   am
     2    55    56    1
     3    55    54    1
     4    56    57    2
     5    54    51    1
     6    53    52    2
     7    52    51    1
     8    51    50    1
     9    70    69    2
    10    69    68    1
    11    30    29    2
    12    18    17    1
    13    29    28    1
    14    50    48   am
    15    31    32    1
    16    31    28    1
    17    71    68    1
    18    71    72    1
    19    68    67    1
    20    38    39    1
    21    32    33   ar
    22    32    34   ar
    23    33    35   ar
    24    28    27    1
    25    67    61   am
    26    59    60    1
    27    17    16    1
    28    48    49    2
    29    48    47    1
    30    16    15    1
    31    72    73    1
    32    61    62    2
    33    61    60    1
    34    34    36   ar
    35    35    37   ar
    36    39    40    1
    37    39    42    1
    38    12    13    2
    39    12    11    1
    40    27    21   am
    41    40    41    2
    42    40    46   am
    43    15    14    1
    44    86    85    1
    45    60    63    1
    46    46    47    1
    47    36    37   ar
    48    45    43    1
    49    14    11    1
    50    73    74    1
    51    43    42    1
    52    43    44    1
    53    21    22    2
    54    21    20    1
    55    84    85   ar
    56    84    82   ar
    57    11    10    1
    58    19    20    1
    59    85    83   ar
    60   113   114    1
    61    63    64    1
    62    63    65    1
    63    20    23    1
    64    82    80   ar
    65    64    66    1
    66   117   114    1
    67   117   118    1
    68   114   115    1
    69    83    81   ar
    70     4     3    2
    71    23    24    1
    72   119   118    1
    73   120   118    1
    74    75    76    1
    75    80    81   ar
    76    80    79    1
    77   115   116    2
    78     3     2    1
    79    78    77    2
    80    24    25    1
    81    24    26    1
    82    94    93    2
    83    95    93   am
    84   186   184    1
    85    79    76    1
    86    76    77    1
    87     5     2    1
    88     5     6    1
    89    93    92    1
    90     2     1    1
    91   187   185    1
    92     8     7    2
    93   183   182    2
    94   111   110    1
    95   129   131   ar
    96   129   127   ar
    97   131   130   ar
    98   185   184    1
    99   184   181    1
   100     7     6    1
   101     7     9   am
   102   127   126   ar
   103   121   122    1
   104   130   128   ar
   105   181   182    1
   106   181   180    1
   107   112   110    1
   108    92    91    1
   109   110   107    1
   110   126   128   ar
   111   126   125    1
   112    91    88    1
   113   142   141   ar
   114   142   140   ar
   115    90    89    2
   116   107   108    1
   117   107   106    1
   118   141   139   ar
   119   122   125    1
   120   122   123    1
   121   108   109    2
   122    88    89    1
   123    88    87    1
   124   148   147    1
   125   140   138   ar
   126    89    96   am
   127   166   164    1
   128   177   178   ar
   129   177   175   ar
   130   179   178    1
   131   123   124    2
   132   139   137   ar
   133   147   149    1
   134   147   144    1
   135   178   176   ar
   136   175   173   ar
   137   163   162    2
   138   171   170    2
   139    96    97    1
   140   138   137   ar
   141   164   165    1
   142   164   161    1
   143   162   161    1
   144   162   168   am
   145   167   165    1
   146   137   136    1
   147    97    98    1
   148    97   100    1
   149   169   170    1
   150   169   168    1
   151   169   172    1
   152    98    99    2
   153   144   143    1
   154   144   145    1
   155   176   174   ar
   156   173   174   ar
   157   173   172    1
   158   103   105   ar
   159   103   101   ar
   160   161   160    1
   161   135   134    2
   162   105   104   ar
   163   146   145    2
   164   132   133    1
   165   101   100    1
   166   101   102   ar
   167   136   133    1
   168   134   133    1
   169   157   159   ar
   170   157   155   ar
   171   104   102   ar
   172   159   158   ar
   173   153   152    2
   174   155   154    1
   175   155   156   ar
   176   151   154    1
   177   151   152    1
   178   151   150    1
   179   158   156   ar
