@<TRIPOS>MOLECULE
tmp/4zyjD00.pdb
 121 114 0 0 0
SMALL
GASTEIGER

@<TRIPOS>ATOM
      1  N        -42.3710  -30.3030  -24.7470 N.3   100  ARG100     -0.1245
      2  CA       -41.8450  -30.9990  -25.9450 C.3   100  ARG100      0.1563
      3  C        -42.8060  -30.8740  -27.1560 C.2   100  ARG100      0.2260
      4  O        -42.3600  -30.5970  -28.2900 O.2   100  ARG100     -0.2867
      5  CB       -41.4210  -32.4480  -25.6590 C.3   100  ARG100      0.0307
      6  CG       -40.7170  -33.1470  -26.8050 C.3   100  ARG100      0.0489
      7  CD       -39.3990  -32.4930  -27.2050 C.3   100  ARG100      0.2205
      8  NE       -38.4670  -32.4710  -26.0820 N.pl3 100  ARG100     -0.0865
      9  CZ       -37.3200  -31.7890  -26.0510 C.cat 100  ARG100      0.5346
     10  NH1      -36.9250  -31.0710  -27.1050 N.pl3 100  ARG100      0.1354
     11  NH2      -36.5510  -31.8500  -24.9610 N.pl3 100  ARG100      0.1354
     12  N        -44.8390  -28.3030  -27.8520 N.3   102  LEU102     -0.1231
     13  CA       -44.6420  -26.9550  -28.3690 C.3   102  LEU102      0.1693
     14  C        -43.3250  -26.7520  -29.1470 C.2   102  LEU102      0.2592
     15  O        -43.3280  -26.1630  -30.2450 O.2   102  LEU102     -0.2718
     16  CB       -44.7210  -25.9890  -27.2060 C.3   102  LEU102      0.0284
     17  CG       -46.0250  -26.1330  -26.4350 C.3   102  LEU102      0.0019
     18  CD1      -45.8460  -25.6000  -25.0430 C.3   102  LEU102      0.0001
     19  CD2      -47.1840  -25.4390  -27.1410 C.3   102  LEU102      0.0001
     20  N        -42.2130  -27.2420  -28.5890 N.am  103  THR103     -0.1953
     21  CA       -40.9030  -27.0300  -29.1810 C.3   103  THR103      0.1897
     22  C        -40.7720  -27.8450  -30.4830 C.2   103  THR103      0.2313
     23  O        -40.3340  -27.3250  -31.5100 O.2   103  THR103     -0.2863
     24  CB       -39.7730  -27.3300  -28.1960 C.3   103  THR103      0.1794
     25  OG1      -40.0430  -28.5730  -27.5590 O.3   103  THR103     -0.2208
     26  CG2      -39.7190  -26.2670  -27.1200 C.3   103  THR103      0.0378
     27  N        -42.6210  -26.1130  -33.3030 N.3   106  PHE106     -0.1227
     28  CA       -41.8650  -25.0420  -33.8910 C.3   106  PHE106      0.1736
     29  C        -40.8820  -25.6330  -34.9180 C.2   106  PHE106      0.2595
     30  O        -40.8720  -25.2390  -36.1070 O.2   106  PHE106     -0.2718
     31  CB       -41.1540  -24.2560  -32.8120 C.3   106  PHE106      0.0547
     32  CG       -40.2860  -23.1660  -33.3440 C.ar  106  PHE106     -0.0202
     33  CD1      -40.8030  -21.8960  -33.5680 C.ar  106  PHE106     -0.0042
     34  CD2      -38.9370  -23.4070  -33.6450 C.ar  106  PHE106     -0.0042
     35  CE1      -39.9930  -20.8820  -34.0850 C.ar  106  PHE106     -0.0003
     36  CE2      -38.1170  -22.3960  -34.1440 C.ar  106  PHE106     -0.0003
     37  CZ       -38.6500  -21.1310  -34.3650 C.ar  106  PHE106     -0.0000
     38  N        -40.0970  -26.6090  -34.4720 N.am  107  GLU107     -0.1979
     39  CA       -39.1440  -27.2490  -35.3460 C.3   107  GLU107      0.1602
     40  C        -39.7940  -27.8350  -36.5900 C.2   107  GLU107      0.2287
     41  O        -39.1880  -27.8290  -37.6490 O.2   107  GLU107     -0.2864
     42  CB       -38.4150  -28.3180  -34.6020 C.3   107  GLU107      0.0415
     43  CG       -37.7200  -27.7590  -33.3880 C.3   107  GLU107      0.1163
     44  CD       -36.5570  -28.6090  -32.9710 C.2   107  GLU107      0.3649
     45  OE1      -35.5510  -28.6170  -33.7270 O.co2 107  GLU107     -0.2457
     46  OE2      -36.6720  -29.2650  -31.9060 O.co2 107  GLU107     -0.2457
     47  N        -30.3710  -30.3200  -35.0190 N.3   229  PRO229     -0.2102
     48  CA       -29.2540  -29.3560  -34.9460 C.3   229  PRO229      0.1504
     49  C        -29.4640  -28.2660  -33.8520 C.2   229  PRO229      0.2575
     50  O        -30.6040  -27.9480  -33.4880 O.2   229  PRO229     -0.2718
     51  CB       -29.2390  -28.7500  -36.3570 C.3   229  PRO229      0.0282
     52  CG       -30.6710  -28.7880  -36.7830 C.3   229  PRO229      0.0208
     53  CD       -31.2810  -30.0200  -36.1420 C.3   229  PRO229      0.0893
     54  N        -28.3780  -27.6920  -33.3400 N.am  230  ARG230     -0.1980
     55  CA       -28.5050  -26.7610  -32.2180 C.3   230  ARG230      0.1597
     56  C        -27.5220  -25.6030  -32.2480 C.2   230  ARG230      0.2287
     57  O        -27.3960  -24.8920  -31.2690 O.2   230  ARG230     -0.2864
     58  CB       -28.4110  -27.5070  -30.8650 C.3   230  ARG230      0.0334
     59  CG       -29.5890  -28.4190  -30.5010 C.3   230  ARG230      0.0492
     60  CD       -30.8900  -27.6380  -30.3120 C.3   230  ARG230      0.2205
     61  NE       -31.9920  -28.4620  -29.8050 N.pl3 230  ARG230     -0.0865
     62  CZ       -33.0270  -28.8910  -30.5340 C.cat 230  ARG230      0.5346
     63  NH1      -33.1170  -28.5860  -31.8200 N.pl3 230  ARG230      0.1354
     64  NH2      -33.9830  -29.6310  -29.9820 N.pl3 230  ARG230      0.1354
     65  N        -31.6430  -14.9800  -30.0720 N.3   239  ALA239     -0.1231
     66  CA       -32.7840  -15.6670  -30.6900 C.3   239  ALA239      0.1694
     67  C        -33.1290  -16.9700  -29.9620 C.2   239  ALA239      0.2591
     68  O        -34.3100  -17.3140  -29.8150 O.2   239  ALA239     -0.2718
     69  CB       -32.4810  -15.9700  -32.1470 C.3   239  ALA239      0.0304
     70  N        -32.0780  -17.6940  -29.5490 N.am  240  ALA240     -0.1980
     71  CA       -32.1900  -18.8960  -28.7250 C.3   240  ALA240      0.1597
     72  C        -33.0070  -18.6340  -27.4500 C.2   240  ALA240      0.2287
     73  O        -33.5560  -19.5770  -26.8590 O.2   240  ALA240     -0.2864
     74  CB       -30.8110  -19.4570  -28.3610 C.3   240  ALA240      0.0319
     75  N        -35.8020  -17.2870  -27.2530 N.3   242  ALA242     -0.1231
     76  CA       -37.1900  -17.6510  -27.5870 C.3   242  ALA242      0.1694
     77  C        -37.5080  -19.0910  -27.1750 C.2   242  ALA242      0.2593
     78  O        -38.4600  -19.3440  -26.4090 O.2   242  ALA242     -0.2718
     79  CB       -37.4660  -17.4470  -29.0630 C.3   242  ALA242      0.0304
     80  N        -36.6930  -20.0200  -27.6590 N.am  243  GLY243     -0.1942
     81  CA       -36.8910  -21.4220  -27.3620 C.3   243  GLY243      0.2014
     82  C        -36.6980  -21.7290  -25.8930 C.2   243  GLY243      0.2638
     83  O        -37.4420  -22.4940  -25.3030 O.2   243  GLY243     -0.2714
     84  N        -35.7030  -21.1120  -25.2940 N.am  244  GLN244     -0.1977
     85  CA       -35.3990  -21.3820  -23.9250 C.3   244  GLN244      0.1601
     86  C        -36.5760  -20.9830  -23.0290 C.2   244  GLN244      0.2287
     87  O        -36.8200  -21.6320  -21.9770 O.2   244  GLN244     -0.2864
     88  CB       -34.1220  -20.6750  -23.5430 C.3   244  GLN244      0.0394
     89  CG       -32.9050  -21.5520  -23.6430 C.3   244  GLN244      0.0908
     90  CD       -31.6980  -20.8450  -23.0840 C.2   244  GLN244      0.2608
     91  OE1      -31.2020  -21.1820  -21.9910 O.2   244  GLN244     -0.2717
     92  NE2      -31.2310  -19.8280  -23.8090 N.am  244  GLN244     -0.0878
     93  N        -39.9110  -20.7930  -24.2760 N.3   246  VAL246     -0.1231
     94  CA       -40.9740  -21.6940  -24.6130 C.3   246  VAL246      0.1692
     95  C        -40.9080  -23.0360  -23.8270 C.2   246  VAL246      0.2592
     96  O        -41.9240  -23.5690  -23.3330 O.2   246  VAL246     -0.2718
     97  CB       -40.9290  -21.9080  -26.1240 C.3   246  VAL246      0.0266
     98  CG1      -41.5430  -23.2470  -26.4690 C.3   246  VAL246      0.0020
     99  CG2      -41.6650  -20.7720  -26.8170 C.3   246  VAL246      0.0020
    100  N        -39.7100  -23.5790  -23.7000 N.am  247  SER247     -0.1952
    101  CA       -39.5690  -24.8270  -22.9770 C.3   247  SER247      0.1924
    102  C        -39.4780  -24.7380  -21.4430 C.2   247  SER247      0.2314
    103  O        -39.3030  -25.7740  -20.7970 O.2   247  SER247     -0.2863
    104  CB       -38.3720  -25.5900  -23.5270 C.3   247  SER247      0.2116
    105  OG       -37.4130  -24.6550  -23.9210 O.3   247  SER247     -0.2180
    106  N        -44.7130  -16.4840  -29.9570 N.3   309  ALA309     -0.1245
    107  CA       -44.4160  -17.8850  -30.2250 C.3   309  ALA309      0.1562
    108  C        -44.4280  -18.1730  -31.7390 C.2   309  ALA309      0.2260
    109  O        -43.6390  -18.9890  -32.2390 O.2   309  ALA309     -0.2867
    110  CB       -45.3840  -18.7830  -29.4830 C.3   309  ALA309      0.0290
    111  N        -36.5980  -10.5450  -30.4650 N.3   319  ARG319     -0.1245
    112  CA       -37.7300  -11.4360  -30.1480 C.3   319  ARG319      0.1563
    113  C        -37.4300  -12.2970  -28.8930 C.2   319  ARG319      0.2260
    114  O        -38.2010  -12.2860  -27.9060 O.2   319  ARG319     -0.2867
    115  CB       -38.0650  -12.3080  -31.3750 C.3   319  ARG319      0.0307
    116  CG       -39.1030  -13.3920  -31.1400 C.3   319  ARG319      0.0489
    117  CD       -39.6530  -13.9740  -32.4420 C.3   319  ARG319      0.2205
    118  NE       -40.4980  -15.1720  -32.2610 N.pl3 319  ARG319     -0.0865
    119  CZ       -40.0340  -16.3850  -31.9560 C.cat 319  ARG319      0.5346
    120  NH1      -38.7410  -16.5760  -31.7700 N.pl3 319  ARG319      0.1354
    121  NH2      -40.8630  -17.4090  -31.8210 N.pl3 319  ARG319      0.1354
@<TRIPOS>BOND
     1    41    40    2
     2    52    51    1
     3    52    53    1
     4    40    39    1
     5    51    48    1
     6    53    47    1
     7    30    29    2
     8    39    42    1
     9    39    38    1
    10    47    48    1
    11    48    49    1
    12    29    38   am
    13    29    28    1
    14    42    43    1
    15    37    36   ar
    16    37    35   ar
    17    36    34   ar
    18    35    33   ar
    19    28    27    1
    20    28    31    1
    21    49    50    2
    22    49    54   am
    23    45    44   ar
    24    34    32   ar
    25    33    32   ar
    26    43    44    1
    27    32    31    1
    28    54    55    1
    29    44    46   ar
    30   117   118    1
    31   117   116    1
    32   118   119    2
    33    56    55    1
    34    56    57    2
    35   109   108    2
    36    55    58    1
    37    69    66    1
    38   119   121    1
    39   119   120    1
    40    63    62    1
    41   108   107    1
    42    23    22    2
    43   115   116    1
    44   115   112    1
    45    58    59    1
    46    66    65    1
    47    66    67    1
    48    62    64    1
    49    62    61    2
    50    59    60    1
    51    22    21    1
    52   111   112    1
    53    60    61    1
    54    15    14    2
    55   107   106    1
    56   107   110    1
    57   112   113    1
    58    67    68    2
    59    67    70   am
    60    70    71    1
    61    21    20    1
    62    21    24    1
    63    14    20   am
    64    14    13    1
    65    79    76    1
    66   113   114    2
    67    71    74    1
    68    71    72    1
    69    13    12    1
    70    13    16    1
    71     4     3    2
    72    24    25    1
    73    24    26    1
    74    80    81    1
    75    80    77   am
    76    76    75    1
    77    76    77    1
    78    72    73    2
    79    81    82    1
    80    16    17    1
    81     7     6    1
    82     7     8    1
    83    77    78    2
    84     3     2    1
    85    19    17    1
    86    10     9    1
    87    99    97    1
    88     6     5    1
    89    98    97    1
    90    17    18    1
    91    97    94    1
    92     8     9    2
    93     9    11    1
    94     2     5    1
    95     2     1    1
    96    82    83    2
    97    82    84   am
    98    84    85    1
    99    94    93    1
   100    94    95    1
   101    85    88    1
   102    85    86    1
   103   105   104    1
   104    95   100   am
   105    95    96    2
   106    92    90   am
   107   100   101    1
   108    89    88    1
   109    89    90    1
   110   104   101    1
   111    90    91    2
   112    86    87    2
   113   101   102    1
   114   102   103    2
