@<TRIPOS>MOLECULE
tmp/4zyoA01.pdb
 94 93 0 0 0
SMALL
GASTEIGER

@<TRIPOS>ATOM
      1  N         10.2790   83.9790   60.2010 N.3     3  TYR3       -0.1241
      2  CA        11.5600   84.3090   59.6050 C.3     3  TYR3        0.1605
      3  C         12.0630   85.6150   60.1920 C.2     3  TYR3        0.2264
      4  O         11.2860   86.4100   60.7190 O.2     3  TYR3       -0.2867
      5  CB        11.4530   84.4070   58.0810 C.3     3  TYR3        0.0534
      6  CG        10.5720   85.5290   57.5820 C.ar    3  TYR3       -0.0201
      7  CD1       11.0980   86.7870   57.3190 C.ar    3  TYR3       -0.0009
      8  CD2        9.2180   85.3290   57.3590 C.ar    3  TYR3       -0.0009
      9  CE1       10.2990   87.8150   56.8590 C.ar    3  TYR3        0.0417
     10  CE2        8.4110   86.3510   56.8960 C.ar    3  TYR3        0.0417
     11  CZ         8.9560   87.5910   56.6480 C.ar    3  TYR3        0.1957
     12  OH         8.1550   88.6080   56.1870 O.3     3  TYR3       -0.2866
     13  N         15.8220   88.9630   54.9000 N.3     8  ALA8       -0.1231
     14  CA        14.8190   89.1300   53.8600 C.3     8  ALA8        0.1694
     15  C         14.9080   90.5250   53.2640 C.2     8  ALA8        0.2592
     16  O         14.8290   90.7000   52.0520 O.2     8  ALA8       -0.2718
     17  CB        13.4290   88.8760   54.4190 C.3     8  ALA8        0.0304
     18  N         15.0800   91.5180   54.1280 N.am    9  ASP9       -0.1960
     19  CA        15.2300   92.8960   53.6860 C.3     9  ASP9        0.1840
     20  C         16.5920   93.0980   53.0320 C.2     9  ASP9        0.2621
     21  O         17.5980   92.5540   53.4920 O.2     9  ASP9       -0.2715
     22  CB        15.0620   93.8670   54.8560 C.3     9  ASP9        0.1450
     23  CG        13.6680   93.8250   55.4520 C.2     9  ASP9        0.3671
     24  OD1       12.7650   93.2330   54.8120 O.co2   9  ASP9       -0.2456
     25  OD2       13.4670   94.3990   56.5470 O.co2   9  ASP9       -0.2456
     26  N         16.6150   93.8890   51.9630 N.am   10  ALA10      -0.1977
     27  CA        17.8480   94.1940   51.2480 C.3    10  ALA10       0.1597
     28  C         17.7190   95.4850   50.4480 C.2    10  ALA10       0.2287
     29  O         16.7240   95.6970   49.7560 O.2    10  ALA10      -0.2864
     30  CB        18.2260   93.0380   50.3290 C.3    10  ALA10       0.0319
     31  N         20.0260   93.6900   45.5870 N.3    13  PRO13      -0.2116
     32  CA        19.3190   92.5130   45.0800 C.3    13  PRO13       0.1372
     33  C         19.6590   91.2190   45.8240 C.2    13  PRO13       0.2244
     34  O         19.2230   90.1470   45.4050 O.2    13  PRO13      -0.2868
     35  CB        19.7960   92.4380   43.6290 C.3    13  PRO13       0.0268
     36  CG        21.1700   93.1330   43.6330 C.3    13  PRO13       0.0207
     37  CD        21.3600   93.8030   44.9780 C.3    13  PRO13       0.0892
     38  N         19.9850   89.8190   49.9700 N.3    15  PRO15      -0.2116
     39  CA        19.9890   89.9580   51.4280 C.3    15  PRO15       0.1372
     40  C         21.1230   89.1700   52.0760 C.2    15  PRO15       0.2244
     41  O         21.8770   88.4930   51.3790 O.2    15  PRO15      -0.2868
     42  CB        18.6290   89.3900   51.8340 C.3    15  PRO15       0.0268
     43  CG        18.3260   88.3860   50.7800 C.3    15  PRO15       0.0207
     44  CD        18.8880   88.9530   49.5030 C.3    15  PRO15       0.0892
     45  N         13.0620   85.4090   44.5550 N.3   115  HIS115     -0.1241
     46  CA        13.6340   84.9830   45.8230 C.3   115  HIS115      0.1621
     47  C         12.9280   83.7360   46.3470 C.2   115  HIS115      0.2264
     48  O         13.3050   83.1890   47.3830 O.2   115  HIS115     -0.2867
     49  CB        13.5700   86.1140   46.8460 C.3   115  HIS115      0.0745
     50  CG        14.6090   87.1730   46.6350 C.ar  115  HIS115      0.0817
     51  ND1       15.9580   86.9130   46.7140 N.ar  115  HIS115     -0.2268
     52  CD2       14.4940   88.4920   46.3520 C.ar  115  HIS115      0.1154
     53  CE1       16.6340   88.0260   46.4890 C.ar  115  HIS115      0.1986
     54  NE2       15.7680   89.0010   46.2680 N.ar  115  HIS115     -0.2212
     55  N         16.3600   81.5520   51.5830 N.3   138  HIS138     -0.1227
     56  CA        15.7010   82.8480   51.6870 C.3   138  HIS138      0.1737
     57  C         14.2360   82.6140   52.0340 C.2   138  HIS138      0.2438
     58  O         13.6000   81.7320   51.4610 O.2   138  HIS138     -0.2733
     59  CB        15.8500   83.6330   50.3780 C.3   138  HIS138      0.0758
     60  CG        15.1710   84.9720   50.3800 C.ar  138  HIS138      0.0818
     61  ND1       13.8080   85.1140   50.2840 N.ar  138  HIS138     -0.2268
     62  CD2       15.6820   86.2240   50.4340 C.ar  138  HIS138      0.1154
     63  CE1       13.4980   86.4000   50.2980 C.ar  138  HIS138      0.1986
     64  NE2       14.6200   87.0960   50.3880 N.ar  138  HIS138     -0.2212
     65  N         13.7080   83.3870   52.9980 N.am  139  PRO139     -0.2718
     66  CA        12.3460   83.2650   53.5330 C.3   139  PRO139      0.1535
     67  C         11.2660   83.0580   52.4720 C.2   139  PRO139      0.2598
     68  O         10.3280   82.3000   52.7150 O.2   139  PRO139     -0.2715
     69  CB        12.1450   84.5990   54.2520 C.3   139  PRO139      0.0310
     70  CG        13.5060   84.9420   54.7410 C.3   139  PRO139      0.0237
     71  CD        14.4620   84.4590   53.6760 C.3   139  PRO139      0.0939
     72  N         11.4120   83.7050   51.3170 N.am  140  ALA140     -0.1978
     73  CA        10.4100   83.6440   50.2570 C.3   140  ALA140      0.1597
     74  C         10.2450   82.2420   49.6740 C.2   140  ALA140      0.2287
     75  O          9.1950   81.9210   49.1170 O.2   140  ALA140     -0.2864
     76  CB        10.7610   84.6270   49.1500 C.3   140  ALA140      0.0319
     77  N          7.9280   80.6420   51.8260 N.3   143  GLU143     -0.1231
     78  CA         6.8360   81.5950   51.9800 C.3   143  GLU143      0.1699
     79  C          5.9190   81.5380   50.7670 C.2   143  GLU143      0.2592
     80  O          4.6970   81.5790   50.8990 O.2   143  GLU143     -0.2718
     81  CB         7.3760   83.0120   52.1740 C.3   143  GLU143      0.0402
     82  CG         6.3160   84.0610   52.4360 C.3   143  GLU143      0.1161
     83  CD         6.9020   85.3350   53.0140 C.2   143  GLU143      0.3649
     84  OE1        8.1450   85.4410   53.0840 O.co2 143  GLU143     -0.2457
     85  OE2        6.1220   86.2290   53.4040 O.co2 143  GLU143     -0.2457
     86  N          6.5160   81.4420   49.5830 N.am  144  LYS144     -0.1980
     87  CA         5.7510   81.3300   48.3470 C.3   144  LYS144      0.1596
     88  C          5.6690   79.8780   47.8970 C.2   144  LYS144      0.2287
     89  O          4.7150   79.4800   47.2340 O.2   144  LYS144     -0.2864
     90  CB         6.3720   82.1950   47.2460 C.3   144  LYS144      0.0298
     91  CG         6.3290   83.6860   47.5410 C.3   144  LYS144      0.0038
     92  CD         7.1780   84.4850   46.5670 C.3   144  LYS144      0.0206
     93  CE         7.4040   85.9040   47.0750 C.3   144  LYS144      0.1093
     94  NZ         8.3520   86.6760   46.2230 N.3   144  LYS144     -0.1314
@<TRIPOS>BOND
     1    35    36    1
     2    35    32    1
     3    36    37    1
     4    45    46    1
     5    37    31    1
     6    32    31    1
     7    32    33    1
     8    34    33    2
     9    46    47    1
    10    46    49    1
    11    94    93    1
    12    54    52   ar
    13    54    53   ar
    14    47    48    2
    15    52    50   ar
    16    53    51   ar
    17    92    93    1
    18    92    91    1
    19    50    51   ar
    20    50    49    1
    21    89    88    2
    22    90    91    1
    23    90    87    1
    24    88    87    1
    25    87    86    1
    26    75    74    2
    27    76    73    1
    28    44    38    1
    29    44    43    1
    30    86    79   am
    31    74    73    1
    32    29    28    2
    33    38    39    1
    34    73    72    1
    35    61    63   ar
    36    61    60   ar
    37    63    64   ar
    38    30    27    1
    39    59    60    1
    40    59    56    1
    41    60    62   ar
    42    64    62   ar
    43    28    27    1
    44    79    80    2
    45    79    78    1
    46    43    42    1
    47    27    26    1
    48    72    67   am
    49    41    40    2
    50    39    42    1
    51    39    40    1
    52    58    57    2
    53    55    56    1
    54    56    57    1
    55    77    78    1
    56    26    20   am
    57    78    81    1
    58    57    65   am
    59    16    15    2
    60    81    82    1
    61    82    83    1
    62    67    68    2
    63    67    66    1
    64    65    66    1
    65    65    71    1
    66    83    84   ar
    67    83    85   ar
    68    20    21    2
    69    20    19    1
    70    15    14    1
    71    15    18   am
    72    66    69    1
    73    71    70    1
    74    19    18    1
    75    19    22    1
    76    14    17    1
    77    14    13    1
    78    69    70    1
    79    24    23   ar
    80    22    23    1
    81    23    25   ar
    82    12    11    1
    83    11     9   ar
    84    11    10   ar
    85     9     7   ar
    86    10     8   ar
    87     7     6   ar
    88     8     6   ar
    89     6     5    1
    90     5     2    1
    91     2     3    1
    92     2     1    1
    93     3     4    2
