@<TRIPOS>MOLECULE
tmp/4zyqC00.pdb
 211 200 0 0 0
SMALL
GASTEIGER

@<TRIPOS>ATOM
      1  N        156.3870   20.9880  116.3750 N.3   289  LYS289     -0.1245
      2  CA       157.3820   20.4400  115.4600 C.3   289  LYS289      0.1561
      3  C        158.6410   20.0600  116.2270 C.2   289  LYS289      0.2260
      4  O        159.1820   20.8630  116.9870 O.2   289  LYS289     -0.2867
      5  CB       157.7080   21.4370  114.3500 C.3   289  LYS289      0.0271
      6  CG       158.7750   20.9660  113.3780 C.3   289  LYS289      0.0035
      7  CD       159.1500   22.0740  112.4080 C.3   289  LYS289      0.0206
      8  CE       160.2500   21.6350  111.4570 C.3   289  LYS289      0.1093
      9  NZ       160.5390   22.6570  110.4160 N.3   289  LYS289     -0.1314
     10  N        167.9020   19.9800  111.6270 N.3   294  ASP294     -0.1239
     11  CA       167.4840   20.0520  110.2380 C.3   294  ASP294      0.1674
     12  C        168.6610   20.3570  109.3240 C.2   294  ASP294      0.2266
     13  O        169.0070   21.5140  109.1090 O.2   294  ASP294     -0.2867
     14  CB       166.4020   21.1130  110.0540 C.3   294  ASP294      0.1410
     15  CG       165.7730   21.0670  108.6790 C.2   294  ASP294      0.3668
     16  OD1      165.9800   20.0670  107.9580 O.co2 294  ASP294     -0.2456
     17  OD2      165.0740   22.0330  108.3170 O.co2 294  ASP294     -0.2456
     18  N        171.1440   22.2280  103.2580 N.3   301  LYS301     -0.1245
     19  CA       171.2450   23.6600  103.4920 C.3   301  LYS301      0.1561
     20  C        172.6650   24.1370  103.2040 C.2   301  LYS301      0.2260
     21  O        173.4610   24.3150  104.1220 O.2   301  LYS301     -0.2867
     22  CB       170.8520   23.9940  104.9310 C.3   301  LYS301      0.0271
     23  CG       169.3790   23.7940  105.2230 C.3   301  LYS301      0.0035
     24  CD       169.0810   23.9680  106.7000 C.3   301  LYS301      0.0206
     25  CE       167.6270   23.6370  107.0070 C.3   301  LYS301      0.1093
     26  NZ       166.6860   24.5450  106.2970 N.3   301  LYS301     -0.1314
     27  N        173.8780   31.8260  103.6860 N.3   305  GLY305     -0.1210
     28  CA       172.9080   32.3970  104.6020 C.3   305  GLY305      0.1956
     29  C        171.7750   31.4730  105.0120 C.2   305  GLY305      0.2613
     30  O        170.7360   31.9350  105.4820 O.2   305  GLY305     -0.2717
     31  N        171.9630   30.1680  104.8410 N.am  306  SER306     -0.1938
     32  CA       170.9340   29.2100  105.2330 C.3   306  SER306      0.2055
     33  C        171.0270   28.8640  106.7170 C.2   306  SER306      0.2642
     34  O        170.1240   28.2350  107.2670 O.2   306  SER306     -0.2714
     35  CB       171.0360   27.9360  104.3900 C.3   306  SER306      0.2130
     36  OG       172.3410   27.3870  104.4480 O.3   306  SER306     -0.2179
     37  N        172.1190   29.2890  107.3510 N.am  307  MET307     -0.1976
     38  CA       172.3150   29.1600  108.7960 C.3   307  MET307      0.1605
     39  C        172.0690   27.7410  109.3110 C.2   307  MET307      0.2287
     40  O        171.2400   27.5230  110.1980 O.2   307  MET307     -0.2864
     41  CB       171.4070   30.1380  109.5380 C.3   307  MET307      0.0413
     42  CG       171.6750   31.5930  109.2130 C.3   307  MET307      0.0598
     43  SD       171.0630   32.7000  110.4940 S.3   307  MET307     -0.1393
     44  CE       172.0650   32.1860  111.8880 C.3   307  MET307      0.0692
     45  N        172.3640   26.8910  112.9970 N.3   310  LEU310     -0.1231
     46  CA       171.2950   27.3330  113.8750 C.3   310  LEU310      0.1693
     47  C        170.2350   26.2470  114.0190 C.2   310  LEU310      0.2591
     48  O        169.4590   26.2510  114.9710 O.2   310  LEU310     -0.2718
     49  CB       170.6660   28.6180  113.3300 C.3   310  LEU310      0.0284
     50  CG       169.5840   29.3100  114.1610 C.3   310  LEU310      0.0019
     51  CD1      170.2120   30.2060  115.2180 C.3   310  LEU310      0.0001
     52  CD2      168.6410   30.0980  113.2640 C.3   310  LEU310      0.0001
     53  N        170.2650   25.2740  113.1120 N.am  311  MET311     -0.1979
     54  CA       169.1520   24.3510  112.9040 C.3   311  MET311      0.1605
     55  C        168.8740   23.3970  114.0610 C.2   311  MET311      0.2287
     56  O        168.0670   22.4740  113.9320 O.2   311  MET311     -0.2864
     57  CB       169.4030   23.5460  111.6300 C.3   311  MET311      0.0413
     58  CG       169.1990   24.3600  110.3650 C.3   311  MET311      0.0598
     59  SD       167.5760   25.1480  110.3390 S.3   311  MET311     -0.1393
     60  CE       167.8660   26.5070  109.2090 C.3   311  MET311      0.0692
     61  N        167.4880   24.7720  116.4830 N.3   313  PHE313     -0.1227
     62  CA       166.2270   25.4170  116.8540 C.3   313  PHE313      0.1736
     63  C        164.9940   24.7020  116.2960 C.2   313  PHE313      0.2595
     64  O        163.8800   24.9730  116.7320 O.2   313  PHE313     -0.2718
     65  CB       166.2090   26.8980  116.4280 C.3   313  PHE313      0.0547
     66  CG       165.9150   27.1260  114.9650 C.ar  313  PHE313     -0.0202
     67  CD1      164.6570   27.5150  114.5370 C.ar  313  PHE313     -0.0042
     68  CD2      166.8830   26.8950  114.0150 C.ar  313  PHE313     -0.0042
     69  CE1      164.4010   27.7120  113.1890 C.ar  313  PHE313     -0.0003
     70  CE2      166.6360   27.0920  112.6830 C.ar  313  PHE313     -0.0003
     71  CZ       165.3950   27.4910  112.2630 C.ar  313  PHE313     -0.0000
     72  N        165.1800   23.7980  115.3360 N.am  314  ASP314     -0.1974
     73  CA       164.0480   23.2920  114.5600 C.3   314  ASP314      0.1709
     74  C        163.1090   22.3900  115.3770 C.2   314  ASP314      0.2293
     75  O        162.1890   21.7810  114.8300 O.2   314  ASP314     -0.2864
     76  CB       164.5450   22.5380  113.3260 C.3   314  ASP314      0.1436
     77  CG       163.6030   22.6740  112.1470 C.2   314  ASP314      0.3671
     78  OD1      162.9550   23.7350  112.0290 O.co2 314  ASP314     -0.2456
     79  OD2      163.5100   21.7310  111.3360 O.co2 314  ASP314     -0.2456
     80  N        160.9520   18.5760   97.9590 N.3   372  ASN372     -0.1240
     81  CA       162.0770   19.1770   98.6600 C.3   372  ASN372      0.1653
     82  C        162.1870   18.5820  100.0590 C.2   372  ASN372      0.2266
     83  O        161.3060   18.7840  100.8930 O.2   372  ASN372     -0.2867
     84  CB       161.9220   20.6960   98.7220 C.3   372  ASN372      0.1155
     85  CG       163.1760   21.3980   99.2110 C.2   372  ASN372      0.2627
     86  OD1      163.9140   20.8770  100.0410 O.2   372  ASN372     -0.2716
     87  ND2      163.4200   22.5910   98.6940 N.am  372  ASN372     -0.0877
     88  N        163.8930   19.4100  102.4670 N.3   374  ASP374     -0.1225
     89  CA       164.0840   20.4080  103.5130 C.3   374  ASP374      0.1805
     90  C        162.7470   20.9770  103.9880 C.2   374  ASP374      0.2598
     91  O        162.6950   21.7510  104.9430 O.2   374  ASP374     -0.2718
     92  CB       164.9980   21.5310  103.0260 C.3   374  ASP374      0.1424
     93  CG       165.4920   22.4110  104.1600 C.2   374  ASP374      0.3668
     94  OD1      165.4440   21.9600  105.3260 O.co2 374  ASP374     -0.2456
     95  OD2      165.9260   23.5510  103.8890 O.co2 374  ASP374     -0.2456
     96  N        161.6690   20.6050  103.3060 N.am  375  ALA375     -0.1966
     97  CA       160.3250   20.9310  103.7740 C.3   375  ALA375      0.1728
     98  C        159.7710   19.7620  104.5770 C.2   375  ALA375      0.2616
     99  O        158.6500   19.3080  104.3420 O.2   375  ALA375     -0.2715
    100  CB       159.4110   21.2620  102.6070 C.3   375  ALA375      0.0334
    101  N        160.5630   19.2840  105.5320 N.am  376  GLU376     -0.1963
    102  CA       160.2450   18.0530  106.2470 C.3   376  GLU376      0.1733
    103  C        159.2620   18.2770  107.3920 C.2   376  GLU376      0.2617
    104  O        158.5870   17.3440  107.8250 O.2   376  GLU376     -0.2715
    105  CB       161.5290   17.3980  106.7770 C.3   376  GLU376      0.0429
    106  CG       162.0300   17.9400  108.1160 C.3   376  GLU376      0.1163
    107  CD       162.5410   19.3640  108.0230 C.2   376  GLU376      0.3649
    108  OE1      163.0390   19.7510  106.9450 O.co2 376  GLU376     -0.2457
    109  OE2      162.4470   20.0990  109.0290 O.co2 376  GLU376     -0.2457
    110  N        159.1900   19.5100  107.8800 N.am  377  GLY377     -0.1940
    111  CA       158.3300   19.8300  109.0040 C.3   377  GLY377      0.2014
    112  C        156.8720   19.5230  108.7240 C.2   377  GLY377      0.2638
    113  O        156.1760   18.9430  109.5570 O.2   377  GLY377     -0.2714
    114  N        156.4140   19.9050  107.5370 N.am  378  ARG378     -0.1977
    115  CA       155.0230   19.7170  107.1540 C.3   378  ARG378      0.1597
    116  C        154.6860   18.2360  106.9830 C.2   378  ARG378      0.2287
    117  O        153.5250   17.8380  107.1060 O.2   378  ARG378     -0.2864
    118  CB       154.7210   20.4980  105.8700 C.3   378  ARG378      0.0334
    119  CG       155.3890   19.9440  104.6240 C.3   378  ARG378      0.0492
    120  CD       155.3210   20.9380  103.4760 C.3   378  ARG378      0.2205
    121  NE       156.0680   22.1580  103.7690 N.pl3 378  ARG378     -0.0865
    122  CZ       156.1370   23.2080  102.9570 C.cat 378  ARG378      0.5346
    123  NH1      155.5030   23.1900  101.7920 N.pl3 378  ARG378      0.1354
    124  NH2      156.8410   24.2770  103.3080 N.pl3 378  ARG378      0.1354
    125  N        158.5290   25.9440  113.7050 N.3   401  THR401     -0.1203
    126  CA       159.4930   26.7210  112.9390 C.3   401  THR401      0.1994
    127  C        159.4460   26.2430  111.4970 C.2   401  THR401      0.2618
    128  O        160.3570   25.5550  111.0310 O.2   401  THR401     -0.2717
    129  CB       160.9150   26.5660  113.4870 C.3   401  THR401      0.1784
    130  OG1      161.2470   25.1730  113.5480 O.3   401  THR401     -0.2211
    131  CG2      161.0170   27.1660  114.8800 C.3   401  THR401      0.0376
    132  N        158.3780   26.6060  110.7950 N.am  402  LEU402     -0.1965
    133  CA       158.0450   25.9440  109.5440 C.3   402  LEU402      0.1728
    134  C        158.7310   26.5240  108.3100 C.2   402  LEU402      0.2617
    135  O        159.3370   25.7850  107.5390 O.2   402  LEU402     -0.2715
    136  CB       156.5290   25.9730  109.3400 C.3   402  LEU402      0.0311
    137  CG       155.9770   24.7990  108.5350 C.3   402  LEU402      0.0022
    138  CD1      156.2740   23.4920  109.2580 C.3   402  LEU402      0.0001
    139  CD2      154.4900   24.9600  108.2880 C.3   402  LEU402      0.0001
    140  N        158.6280   27.8370  108.1150 N.am  403  THR403     -0.1937
    141  CA       159.1150   28.4620  106.8830 C.3   403  THR403      0.2028
    142  C        159.9570   29.7090  107.1090 C.2   403  THR403      0.2643
    143  O        159.5910   30.5890  107.8860 O.2   403  THR403     -0.2714
    144  CB       157.9570   28.8430  105.9380 C.3   403  THR403      0.1808
    145  OG1      157.0380   29.7010  106.6250 O.3   403  THR403     -0.2208
    146  CG2      157.2220   27.6020  105.4540 C.3   403  THR403      0.0379
    147  N        161.0840   29.7800  106.4080 N.am  404  GLY404     -0.1939
    148  CA       161.9620   30.9340  106.4660 C.3   404  GLY404      0.2014
    149  C        161.3110   32.1820  105.8940 C.2   404  GLY404      0.2638
    150  O        161.7730   33.2990  106.1380 O.2   404  GLY404     -0.2714
    151  N        160.2370   31.9930  105.1300 N.am  405  ALA405     -0.1977
    152  CA       159.5080   33.1100  104.5340 C.3   405  ALA405      0.1597
    153  C        158.9340   34.0620  105.5830 C.2   405  ALA405      0.2287
    154  O        158.6660   35.2250  105.2870 O.2   405  ALA405     -0.2864
    155  CB       158.3930   32.5910  103.6370 C.3   405  ALA405      0.0319
    156  N        160.4230   35.4540  107.9420 N.3   407  LEU407     -0.1245
    157  CA       161.3770   36.5330  108.1670 C.3   407  LEU407      0.1561
    158  C        161.1340   37.7020  107.2210 C.2   407  LEU407      0.2260
    159  O        161.4670   38.8450  107.5360 O.2   407  LEU407     -0.2867
    160  CB       162.8090   36.0260  107.9960 C.3   407  LEU407      0.0270
    161  CG       163.3880   35.1320  109.0910 C.3   407  LEU407      0.0019
    162  CD1      164.7220   34.5770  108.6390 C.3   407  LEU407      0.0001
    163  CD2      163.5450   35.9100  110.3870 C.3   407  LEU407      0.0001
    164  N        155.3680   20.5630   98.1550 N.3   462  ILE462     -0.1245
    165  CA       155.6620   21.9740   97.9320 C.3   462  ILE462      0.1561
    166  C        155.1090   22.4420   96.5940 C.2   462  ILE462      0.2260
    167  O        154.7360   21.6290   95.7490 O.2   462  ILE462     -0.2867
    168  CB       157.1790   22.2580   97.9550 C.3   462  ILE462      0.0252
    169  CG1      157.8910   21.4040   96.9030 C.3   462  ILE462      0.0019
    170  CG2      157.7510   22.0140   99.3400 C.3   462  ILE462      0.0019
    171  CD1      159.2130   21.9680   96.4440 C.3   462  ILE462      0.0001
    172  N        155.7420   30.8060  100.8540 N.3   468  SER468     -0.1217
    173  CA       155.9380   29.4990  101.4730 C.3   468  SER468      0.1889
    174  C        155.0480   29.2100  102.6840 C.2   468  SER468      0.2288
    175  O        154.5580   28.0920  102.8450 O.2   468  SER468     -0.2866
    176  CB       157.4030   29.3650  101.8900 C.3   468  SER468      0.2089
    177  OG       158.2560   29.4530  100.7640 O.3   468  SER468     -0.2183
    178  N        159.1130   30.3700  112.8860 N.3   491  ALA491     -0.1231
    179  CA       160.4580   30.2340  112.3330 C.3   491  ALA491      0.1694
    180  C        161.2730   31.5200  112.4730 C.2   491  ALA491      0.2592
    181  O        162.4900   31.4770  112.6450 O.2   491  ALA491     -0.2718
    182  CB       160.3840   29.8170  110.8760 C.3   491  ALA491      0.0304
    183  N        160.5970   32.6600  112.4080 N.am  492  GLY492     -0.1957
    184  CA       161.2690   33.9430  112.4770 C.3   492  GLY492      0.1869
    185  C        161.4980   34.4790  113.8770 C.2   492  GLY492      0.2309
    186  O        162.4760   35.1860  114.1190 O.2   492  GLY492     -0.2863
    187  N        164.2460   32.3250  117.4970 N.3   495  TRP495     -0.1241
    188  CA       165.6100   32.6130  117.9150 C.3   495  TRP495      0.1605
    189  C        165.8640   34.1090  118.0210 C.2   495  TRP495      0.2264
    190  O        165.5290   34.8740  117.1180 O.2   495  TRP495     -0.2867
    191  CB       166.6130   31.9920  116.9420 C.3   495  TRP495      0.0550
    192  CG       168.0130   32.0120  117.4640 C.ar  495  TRP495      0.0003
    193  CD1      168.9710   32.9490  117.2100 C.ar  495  TRP495      0.0946
    194  CD2      168.6120   31.0480  118.3360 C.ar  495  TRP495      0.0152
    195  NE1      170.1300   32.6280  117.8720 N.ar  495  TRP495     -0.2442
    196  CE2      169.9360   31.4670  118.5710 C.ar  495  TRP495      0.0810
    197  CE3      168.1570   29.8740  118.9410 C.ar  495  TRP495      0.0012
    198  CZ2      170.8110   30.7500  119.3860 C.ar  495  TRP495      0.0191
    199  CZ3      169.0250   29.1640  119.7490 C.ar  495  TRP495      0.0001
    200  CH2      170.3380   29.6060  119.9650 C.ar  495  TRP495      0.0015
    201  N        168.3910   36.6290  117.5930 N.3   497  PHE497     -0.1241
    202  CA       169.6890   36.8030  116.9470 C.3   497  PHE497      0.1605
    203  C        170.5400   37.8660  117.6300 C.2   497  PHE497      0.2264
    204  O        171.7610   37.7640  117.6550 O.2   497  PHE497     -0.2867
    205  CB       169.5060   37.1460  115.4720 C.3   497  PHE497      0.0534
    206  CG       168.8390   36.0630  114.6880 C.ar  497  PHE497     -0.0203
    207  CD1      169.5740   34.9980  114.1950 C.ar  497  PHE497     -0.0042
    208  CD2      167.4770   36.0980  114.4530 C.ar  497  PHE497     -0.0042
    209  CE1      168.9610   33.9920  113.4780 C.ar  497  PHE497     -0.0003
    210  CE2      166.8580   35.0940  113.7350 C.ar  497  PHE497     -0.0003
    211  CZ       167.6020   34.0400  113.2470 C.ar  497  PHE497     -0.0000
@<TRIPOS>BOND
     1   167   166    2
     2   171   169    1
     3   166   165    1
     4   169   168    1
     5   165   168    1
     6   165   164    1
     7   168   170    1
     8    80    81    1
     9    81    84    1
    10    81    82    1
    11    87    85   am
    12    84    85    1
    13    85    86    2
    14    82    83    2
    15   177   176    1
    16   172   173    1
    17   173   176    1
    18   173   174    1
    19   123   122    1
    20    88    89    1
    21   100    97    1
    22   174   175    2
    23   122   124    1
    24   122   121    2
    25    92    89    1
    26    92    93    1
    27    20    19    1
    28    20    21    2
    29    18    19    1
    30    96    97    1
    31    96    90   am
    32   120   121    1
    33   120   119    1
    34    19    22    1
    35    89    90    1
    36   155   152    1
    37    27    28    1
    38    97    98    1
    39    95    93   ar
    40    90    91    2
    41    93    94   ar
    42    99    98    2
    43    35    36    1
    44    35    32    1
    45   152   151    1
    46   152   153    1
    47    98   101   am
    48    28    29    1
    49   119   118    1
    50    31    29   am
    51    31    32    1
    52    22    23    1
    53    29    30    2
    54   151   149   am
    55    23    24    1
    56    32    33    1
    57   154   153    2
    58   146   144    1
    59   101   102    1
    60   118   115    1
    61   149   150    2
    62   149   148    1
    63   144   145    1
    64   144   141    1
    65   102   105    1
    66   102   103    1
    67    26    25    1
    68   147   148    1
    69   147   142   am
    70    24    25    1
    71    33    34    2
    72    33    37   am
    73   105   106    1
    74   141   142    1
    75   141   140    1
    76   108   107   ar
    77   116   117    2
    78   116   115    1
    79   142   143    2
    80   115   114    1
    81   158   159    2
    82   158   157    1
    83    37    38    1
    84   103   104    2
    85   103   110   am
    86   114   112   am
    87   135   134    2
    88   110   111    1
    89   156   157    1
    90    16    15   ar
    91   160   157    1
    92   160   161    1
    93   107   106    1
    94   107   109   ar
    95   140   134   am
    96   139   137    1
    97   134   133    1
    98    17    15   ar
    99   137   138    1
   100   137   136    1
   101   162   161    1
   102    15    14    1
   103   112   111    1
   104   112   113    2
   105    38    39    1
   106    38    41    1
   107   161   163    1
   108    13    12    2
   109    60    59    1
   110    42    41    1
   111    42    43    1
   112    39    40    2
   113    12    11    1
   114   136   133    1
   115   133   132    1
   116    14    11    1
   117    11    10    1
   118    59    58    1
   119    58    57    1
   120     9     8    1
   121    43    44    1
   122   132   127   am
   123   182   179    1
   124   128   127    2
   125    79    77   ar
   126     8     7    1
   127   127   126    1
   128    57    54    1
   129    78    77   ar
   130    77    76    1
   131    71    70   ar
   132    71    69   ar
   133   179   180    1
   134   179   178    1
   135     7     6    1
   136   183   180   am
   137   183   184    1
   138   180   181    2
   139   184   185    1
   140    70    68   ar
   141    54    53    1
   142    54    55    1
   143   126   129    1
   144   126   125    1
   145    45    46    1
   146    53    47   am
   147    69    67   ar
   148   211   209   ar
   149   211   210   ar
   150    52    50    1
   151    76    73    1
   152    49    46    1
   153    49    50    1
   154     6     5    1
   155   209   207   ar
   156   129   130    1
   157   129   131    1
   158   210   208   ar
   159    46    47    1
   160   185   186    2
   161    56    55    2
   162    68    66   ar
   163    47    48    2
   164    50    51    1
   165   207   206   ar
   166     5     2    1
   167   208   206   ar
   168    67    66   ar
   169    73    72    1
   170    73    74    1
   171   206   205    1
   172    75    74    2
   173    66    65    1
   174    72    63   am
   175     2     3    1
   176     2     1    1
   177   205   202    1
   178     3     4    2
   179    63    64    2
   180    63    62    1
   181    65    62    1
   182    61    62    1
   183   191   192    1
   184   191   188    1
   185   202   201    1
   186   202   203    1
   187   190   189    2
   188   193   192   ar
   189   193   195   ar
   190   192   194   ar
   191   187   188    1
   192   203   204    2
   193   195   196   ar
   194   188   189    1
   195   194   196   ar
   196   194   197   ar
   197   196   198   ar
   198   197   199   ar
   199   198   200   ar
   200   199   200   ar
