@<TRIPOS>MOLECULE
tmp/4zyzA01.pdb
 171 164 0 0 0
SMALL
GASTEIGER

@<TRIPOS>ATOM
      1  N        -27.3670   28.9910   19.2750 N.3    36  ASN36      -0.1225
      2  CA       -25.9980   29.3360   18.9020 C.3    36  ASN36       0.1785
      3  C        -25.9450   29.9660   17.5100 C.2    36  ASN36       0.2597
      4  O        -24.8690   30.2960   17.0090 O.2    36  ASN36      -0.2718
      5  CB       -25.0750   28.1140   18.9610 C.3    36  ASN36       0.1169
      6  CG       -25.4260   27.0620   17.9270 C.2    36  ASN36       0.2627
      7  OD1      -26.5730   26.6250   17.8340 O.2    36  ASN36      -0.2716
      8  ND2      -24.4330   26.6510   17.1340 N.am   36  ASN36      -0.0877
      9  N        -27.1120   30.1410   16.8930 N.am   37  LYS37      -0.1980
     10  CA       -27.1950   30.7300   15.5590 C.3    37  LYS37       0.1596
     11  C        -28.2800   31.7990   15.4700 C.2    37  LYS37       0.2287
     12  O        -29.4030   31.6060   15.9360 O.2    37  LYS37      -0.2864
     13  CB       -27.4470   29.6470   14.5080 C.3    37  LYS37       0.0298
     14  CG       -26.2780   28.7060   14.3080 C.3    37  LYS37       0.0038
     15  CD       -26.5730   27.6610   13.2500 C.3    37  LYS37       0.0206
     16  CE       -25.3510   26.7930   13.0000 C.3    37  LYS37       0.1093
     17  NZ       -25.6630   25.6420   12.1040 N.3    37  LYS37      -0.1314
     18  N        -21.2110   30.5650   18.7890 N.3    58  HIS58      -0.1241
     19  CA       -20.0170   29.8010   19.1460 C.3    58  HIS58       0.1621
     20  C        -18.7840   30.2800   18.3800 C.2    58  HIS58       0.2264
     21  O        -17.6550   30.1210   18.8460 O.2    58  HIS58      -0.2867
     22  CB       -20.2360   28.3030   18.9050 C.3    58  HIS58       0.0745
     23  CG       -20.4350   27.9400   17.4660 C.ar   58  HIS58       0.0817
     24  ND1      -21.6780   27.8920   16.8740 N.ar   58  HIS58      -0.2268
     25  CD2      -19.5440   27.6130   16.4990 C.ar   58  HIS58       0.1154
     26  CE1      -21.5470   27.5440   15.6050 C.ar   58  HIS58       0.1986
     27  NE2      -20.2620   27.3700   15.3520 N.ar   58  HIS58      -0.2212
     28  N        -14.3010   25.6560   23.0430 N.3    64  ARG64      -0.1245
     29  CA       -15.5440   25.0500   23.5010 C.3    64  ARG64       0.1563
     30  C        -15.8910   25.4390   24.9380 C.2    64  ARG64       0.2260
     31  O        -17.0510   25.7190   25.2570 O.2    64  ARG64      -0.2867
     32  CB       -15.4370   23.5290   23.3760 C.3    64  ARG64       0.0307
     33  CG       -16.6960   22.7600   23.7010 C.3    64  ARG64       0.0489
     34  CD       -16.5980   21.3590   23.1220 C.3    64  ARG64       0.2205
     35  NE       -16.5190   21.3890   21.6640 N.pl3  64  ARG64      -0.0865
     36  CZ       -16.1840   20.3480   20.9080 C.cat  64  ARG64       0.5346
     37  NH1      -15.8830   19.1850   21.4680 N.pl3  64  ARG64       0.1354
     38  NH2      -16.1430   20.4710   19.5880 N.pl3  64  ARG64       0.1354
     39  N        -31.6670   19.9210   24.9340 N.3    85  LEU85      -0.1245
     40  CA       -31.0120   20.1630   23.6500 C.3    85  LEU85       0.1561
     41  C        -31.9780   19.7170   22.5510 C.2    85  LEU85       0.2260
     42  O        -32.2900   18.5320   22.4270 O.2    85  LEU85      -0.2867
     43  CB       -29.6840   19.4060   23.5480 C.3    85  LEU85       0.0270
     44  CG       -28.7220   19.5790   24.7250 C.3    85  LEU85       0.0019
     45  CD1      -27.4140   18.8550   24.4230 C.3    85  LEU85       0.0001
     46  CD2      -28.4830   21.0550   25.0280 C.3    85  LEU85       0.0001
     47  N        -29.9860   21.3390   18.9150 N.3    88  PHE88      -0.1227
     48  CA       -28.7380   22.0330   19.2240 C.3    88  PHE88       0.1736
     49  C        -27.5750   21.1930   18.7230 C.2    88  PHE88       0.2595
     50  O        -27.4520   20.0320   19.1000 O.2    88  PHE88      -0.2718
     51  CB       -28.6410   22.2700   20.7400 C.3    88  PHE88       0.0547
     52  CG       -27.4220   23.0340   21.1690 C.ar   88  PHE88      -0.0202
     53  CD1      -27.3480   24.4100   20.9950 C.ar   88  PHE88      -0.0042
     54  CD2      -26.3580   22.3780   21.7730 C.ar   88  PHE88      -0.0042
     55  CE1      -26.2330   25.1200   21.4120 C.ar   88  PHE88      -0.0003
     56  CE2      -25.2390   23.0780   22.1950 C.ar   88  PHE88      -0.0003
     57  CZ       -25.1720   24.4510   22.0110 C.ar   88  PHE88      -0.0000
     58  N        -26.7320   21.7470   17.8590 N.am   89  MET89      -0.1965
     59  CA       -25.7800   20.8980   17.1540 C.3    89  MET89       0.1736
     60  C        -24.3310   21.1410   17.5550 C.2    89  MET89       0.2616
     61  O        -23.4380   21.0250   16.7230 O.2    89  MET89      -0.2715
     62  CB       -25.9280   21.0760   15.6330 C.3    89  MET89       0.0427
     63  CG       -27.3070   20.7220   15.0660 C.3    89  MET89       0.0599
     64  SD       -27.9020   19.0600   15.4780 S.3    89  MET89      -0.1393
     65  CE       -26.7680   18.0520   14.5280 C.3    89  MET89       0.0692
     66  N        -24.0950   21.4480   18.8260 N.am   90  ARG90      -0.1963
     67  CA       -22.7290   21.5750   19.3280 C.3    90  ARG90       0.1729
     68  C        -22.4430   20.5140   20.3810 C.2    90  ARG90       0.2616
     69  O        -23.2940   20.2180   21.2210 O.2    90  ARG90      -0.2715
     70  CB       -22.4810   22.9630   19.9270 C.3    90  ARG90       0.0348
     71  CG       -22.7520   24.1160   18.9890 C.3    90  ARG90       0.0492
     72  CD       -21.8510   24.0630   17.7740 C.3    90  ARG90       0.2205
     73  NE       -20.4460   24.2580   18.1230 N.pl3  90  ARG90      -0.0865
     74  CZ       -19.4650   24.3150   17.2270 C.cat  90  ARG90       0.5346
     75  NH1      -19.7450   24.1910   15.9380 N.pl3  90  ARG90       0.1354
     76  NH2      -18.2100   24.4970   17.6170 N.pl3  90  ARG90       0.1354
     77  N        -21.2460   19.9410   20.3120 N.am   91  ILE91      -0.1963
     78  CA       -20.7400   19.0660   21.3590 C.3    91  ILE91       0.1727
     79  C        -20.3750   19.9040   22.5740 C.2    91  ILE91       0.2616
     80  O        -19.6900   20.9110   22.4480 O.2    91  ILE91      -0.2715
     81  CB       -19.5130   18.2680   20.8770 C.3    91  ILE91       0.0290
     82  CG1      -19.9120   17.3470   19.7230 C.3    91  ILE91       0.0022
     83  CG2      -18.8910   17.4820   22.0270 C.3    91  ILE91       0.0023
     84  CD1      -18.7580   16.5740   19.1210 C.3    91  ILE91       0.0001
     85  N        -20.8480   19.4940   23.7460 N.am   92  LEU92      -0.1977
     86  CA       -20.5990   20.2270   24.9810 C.3    92  LEU92       0.1596
     87  C        -19.3600   19.6970   25.6890 C.2    92  LEU92       0.2287
     88  O        -19.0410   18.5090   25.5960 O.2    92  LEU92      -0.2864
     89  CB       -21.8110   20.1350   25.9020 C.3    92  LEU92       0.0297
     90  CG       -23.0710   20.7750   25.3300 C.3    92  LEU92       0.0022
     91  CD1      -24.2890   20.2640   26.0560 C.3    92  LEU92       0.0001
     92  CD2      -22.9780   22.2850   25.4410 C.3    92  LEU92       0.0001
     93  N        -20.9610   19.3310   30.9570 N.3    97  VAL97      -0.1245
     94  CA       -21.7620   18.1180   31.0480 C.3    97  VAL97       0.1561
     95  C        -21.8030   17.5770   32.4800 C.2    97  VAL97       0.2260
     96  O        -22.8650   17.1880   32.9730 O.2    97  VAL97      -0.2867
     97  CB       -21.2280   17.0400   30.0810 C.3    97  VAL97       0.0252
     98  CG1      -21.9060   15.6940   30.3210 C.3    97  VAL97       0.0019
     99  CG2      -21.4230   17.4970   28.6370 C.3    97  VAL97       0.0019
    100  N        -31.2230   15.2930   25.6810 N.3   106  ASN106     -0.1240
    101  CA       -31.0380   15.4970   24.2400 C.3   106  ASN106      0.1653
    102  C        -31.9770   14.6080   23.4460 C.2   106  ASN106      0.2266
    103  O        -32.2880   13.5050   23.8830 O.2   106  ASN106     -0.2867
    104  CB       -29.5810   15.2000   23.8430 C.3   106  ASN106      0.1155
    105  CG       -29.3230   15.3930   22.3590 C.2   106  ASN106      0.2627
    106  OD1      -29.5200   16.4820   21.8180 O.2   106  ASN106     -0.2716
    107  ND2      -28.8630   14.3330   21.6930 N.am  106  ASN106     -0.0877
    108  N        -24.1670   10.2420   16.1010 N.3   117  GLY117     -0.1210
    109  CA       -23.5630   11.2800   15.2770 C.3   117  GLY117      0.1956
    110  C        -24.5480   12.1480   14.5180 C.2   117  GLY117      0.2612
    111  O        -25.7540   12.0530   14.7200 O.2   117  GLY117     -0.2717
    112  N        -24.0330   12.9730   13.6030 N.am  118  SER118     -0.1952
    113  CA       -24.7870   14.1220   13.0940 C.3   118  SER118      0.1924
    114  C        -25.7320   13.8790   11.9120 C.2   118  SER118      0.2314
    115  O        -26.6160   14.7050   11.6380 O.2   118  SER118     -0.2863
    116  CB       -23.8010   15.2120   12.6900 C.3   118  SER118      0.2116
    117  OG       -23.0290   14.7430   11.6070 O.3   118  SER118     -0.2180
    118  N        -32.2720   11.0570   25.6550 N.3   137  HIS137     -0.1241
    119  CA       -31.3190   10.5210   26.6140 C.3   137  HIS137      0.1621
    120  C        -30.7210   11.6220   27.4730 C.2   137  HIS137      0.2264
    121  O        -30.6940   12.7930   27.0780 O.2   137  HIS137     -0.2867
    122  CB       -30.1980    9.7610   25.8900 C.3   137  HIS137      0.0745
    123  CG       -29.3720   10.6200   24.9800 C.ar  137  HIS137      0.0817
    124  ND1      -28.1900   11.2020   25.3810 N.ar  137  HIS137     -0.2268
    125  CD2      -29.5650   11.0060   23.6950 C.ar  137  HIS137      0.1154
    126  CE1      -27.6840   11.8990   24.3790 C.ar  137  HIS137      0.1986
    127  NE2      -28.4980   11.7970   23.3440 N.ar  137  HIS137     -0.2212
    128  N        -27.6280   13.6120   28.7840 N.3   139  VAL139     -0.1231
    129  CA       -26.3710   13.9400   28.1170 C.3   139  VAL139      0.1692
    130  C        -25.1790   13.5690   28.9930 C.2   139  VAL139      0.2592
    131  O        -25.0580   14.0330   30.1300 O.2   139  VAL139     -0.2718
    132  CB       -26.3280   15.4330   27.7470 C.3   139  VAL139      0.0266
    133  CG1      -24.9460   15.8360   27.2320 C.3   139  VAL139      0.0020
    134  CG2      -27.3960   15.7300   26.7070 C.3   139  VAL139      0.0020
    135  N        -24.3220   12.6970   28.4560 N.am  140  ALA140     -0.1966
    136  CA       -23.0570   12.3170   29.0900 C.3   140  ALA140      0.1728
    137  C        -21.9190   12.8990   28.2570 C.2   140  ALA140      0.2616
    138  O        -22.1680   13.4410   27.1840 O.2   140  ALA140     -0.2715
    139  CB       -22.9440   10.8070   29.1950 C.3   140  ALA140      0.0334
    140  N        -20.6820   12.8010   28.7400 N.am  141  GLU141     -0.1963
    141  CA       -19.5710   13.4170   28.0180 C.3   141  GLU141      0.1733
    142  C        -19.4220   12.8070   26.6310 C.2   141  GLU141      0.2616
    143  O        -19.2930   13.5280   25.6430 O.2   141  GLU141     -0.2715
    144  CB       -18.2560   13.2930   28.7910 C.3   141  GLU141      0.0429
    145  CG       -17.0730   13.8250   27.9940 C.3   141  GLU141      0.1163
    146  CD       -15.9090   14.2720   28.8560 C.2   141  GLU141      0.3649
    147  OE1      -15.8130   13.8240   30.0180 O.co2 141  GLU141     -0.2457
    148  OE2      -15.0880   15.0770   28.3630 O.co2 141  GLU141     -0.2457
    149  N        -19.4570   11.4810   26.5530 N.am  142  ASP142     -0.1957
    150  CA       -19.4170   10.8120   25.2590 C.3   142  ASP142      0.1840
    151  C        -20.7330   11.0240   24.5280 C.2   142  ASP142      0.2622
    152  O        -21.8070   10.6950   25.0420 O.2   142  ASP142     -0.2715
    153  CB       -19.1280    9.3220   25.4180 C.3   142  ASP142      0.1450
    154  CG       -17.6850    9.0500   25.7780 C.2   142  ASP142      0.3671
    155  OD1      -16.8090    9.8250   25.3440 O.co2 142  ASP142     -0.2456
    156  OD2      -17.4300    8.0630   26.4970 O.co2 142  ASP142     -0.2456
    157  N        -20.6330   11.5700   23.3230 N.am  143  VAL143     -0.1963
    158  CA       -21.8050   11.9740   22.5500 C.3   143  VAL143      0.1727
    159  C        -22.7230   10.8010   22.2180 C.2   143  VAL143      0.2616
    160  O        -22.2680    9.7460   21.7730 O.2   143  VAL143     -0.2715
    161  CB       -21.3830   12.6980   21.2500 C.3   143  VAL143      0.0290
    162  CG1      -22.5870   12.9990   20.3690 C.3   143  VAL143      0.0023
    163  CG2      -20.6400   13.9900   21.5920 C.3   143  VAL143      0.0023
    164  N        -24.0130   10.9960   22.4890 N.am  144  ASP144     -0.1971
    165  CA       -25.0730   10.0370   22.1690 C.3   144  ASP144      0.1709
    166  C        -24.9190    8.7180   22.9260 C.2   144  ASP144      0.2293
    167  O        -25.4490    7.6860   22.5010 O.2   144  ASP144     -0.2864
    168  CB       -25.1310    9.7900   20.6500 C.3   144  ASP144      0.1436
    169  CG       -25.5390   11.0360   19.8740 C.2   144  ASP144      0.3671
    170  OD1      -26.1130   11.9710   20.4880 O.co2 144  ASP144     -0.2456
    171  OD2      -25.3020   11.0840   18.6520 O.co2 144  ASP144     -0.2456
@<TRIPOS>BOND
     1   117   116    1
     2   115   114    2
     3   114   113    1
     4    17    16    1
     5   116   113    1
     6    16    15    1
     7   113   112    1
     8    15    14    1
     9   112   110   am
    10    14    13    1
    11    13    10    1
    12   110   111    2
    13   110   109    1
    14    65    64    1
    15    63    64    1
    16    63    62    1
    17   109   108    1
    18    27    26   ar
    19    27    25   ar
    20    11    10    1
    21    11    12    2
    22    10     9    1
    23    26    24   ar
    24    62    59    1
    25    75    74    1
    26    25    23   ar
    27    61    60    2
    28    24    23   ar
    29     9     3   am
    30     4     3    2
    31     8     6   am
    32    59    60    1
    33    59    58    1
    34    74    76    1
    35    74    73    2
    36    23    22    1
    37     3     2    1
    38    60    66   am
    39    72    73    1
    40    72    71    1
    41     7     6    2
    42    58    49   am
    43     6     5    1
    44    20    21    2
    45    20    19    1
    46   171   169   ar
    47    49    50    2
    48    49    48    1
    49    18    19    1
    50    66    67    1
    51     2     5    1
    52     2     1    1
    53    22    19    1
    54    47    48    1
    55    71    70    1
    56    84    82    1
    57    48    51    1
    58    67    70    1
    59    67    68    1
    60    38    36    1
    61    82    81    1
    62   169   170   ar
    63   169   168    1
    64    77    68   am
    65    77    78    1
    66   162   161    1
    67    68    69    2
    68   168   165    1
    69    51    52    1
    70    81    78    1
    71    81    83    1
    72    36    37    1
    73    36    35    2
    74    53    52   ar
    75    53    55   ar
    76    52    54   ar
    77   161   163    1
    78   161   158    1
    79    78    79    1
    80    55    57   ar
    81    35    34    1
    82   107   105   am
    83   160   159    2
    84    54    56   ar
    85   106   105    2
    86    57    56   ar
    87   165   164    1
    88   165   166    1
    89   159   164   am
    90   159   158    1
    91   105   104    1
    92    42    41    2
    93    80    79    2
    94   167   166    2
    95   158   157    1
    96    41    40    1
    97    79    85   am
    98    28    29    1
    99    34    33    1
   100   157   151   am
   101   127   125   ar
   102   127   126   ar
   103    32    29    1
   104    32    33    1
   105   102   103    2
   106   102   101    1
   107    29    30    1
   108    43    40    1
   109    43    44    1
   110    40    39    1
   111   125   123   ar
   112    85    86    1
   113   104   101    1
   114   101   100    1
   115   126   124   ar
   116    45    44    1
   117   151   152    2
   118   151   150    1
   119    44    46    1
   120    30    31    2
   121   123   124   ar
   122   123   122    1
   123    86    87    1
   124    86    89    1
   125   150   153    1
   126   150   149    1
   127    90    92    1
   128    90    89    1
   129    90    91    1
   130   155   154   ar
   131   153   154    1
   132    88    87    2
   133   143   142    2
   134   118   119    1
   135   154   156   ar
   136   122   119    1
   137   149   142   am
   138   119   120    1
   139   142   141    1
   140   134   132    1
   141   121   120    2
   142   138   137    2
   143   133   132    1
   144   132   129    1
   145   145   144    1
   146   145   146    1
   147   141   140    1
   148   141   144    1
   149   129   128    1
   150   129   130    1
   151   137   140   am
   152   137   136    1
   153   148   146   ar
   154   135   130   am
   155   135   136    1
   156    99    97    1
   157   146   147   ar
   158   130   131    2
   159   136   139    1
   160    97    98    1
   161    97    94    1
   162    93    94    1
   163    94    95    1
   164    95    96    2
