@<TRIPOS>MOLECULE
tmp/4zz0A01.pdb
 162 157 0 0 0
SMALL
GASTEIGER

@<TRIPOS>ATOM
      1  N        -14.1030   25.7040  -27.3930 N.3    64  ARG64      -0.1245
      2  CA       -15.3630   25.1410  -26.9210 C.3    64  ARG64       0.1563
      3  C        -15.6950   25.5640  -25.4890 C.2    64  ARG64       0.2260
      4  O        -16.8470   25.8720  -25.1720 O.2    64  ARG64      -0.2867
      5  CB       -15.3120   23.6150  -27.0200 C.3    64  ARG64       0.0307
      6  CG       -16.5800   22.9020  -26.5980 C.3    64  ARG64       0.0489
      7  CD       -16.4640   21.4150  -26.8880 C.3    64  ARG64       0.2205
      8  NE       -16.2620   21.1600  -28.3120 N.pl3  64  ARG64      -0.0865
      9  CZ       -15.8270   20.0090  -28.8140 C.cat  64  ARG64       0.5346
     10  NH1      -15.5380   18.9970  -28.0060 N.pl3  64  ARG64       0.1354
     11  NH2      -15.6760   19.8710  -30.1240 N.pl3  64  ARG64       0.1354
     12  N        -31.5030   19.9160  -25.5170 N.3    85  LEU85      -0.1245
     13  CA       -30.8360   20.1620  -26.7970 C.3    85  LEU85       0.1561
     14  C        -31.7930   19.6970  -27.8990 C.2    85  LEU85       0.2260
     15  O        -32.1050   18.5090  -28.0030 O.2    85  LEU85      -0.2867
     16  CB       -29.4990   19.4150  -26.8780 C.3    85  LEU85       0.0270
     17  CG       -28.5490   19.5800  -25.6940 C.3    85  LEU85       0.0019
     18  CD1      -27.2250   18.8570  -25.9860 C.3    85  LEU85       0.0001
     19  CD2      -28.2920   21.0480  -25.4280 C.3    85  LEU85       0.0001
     20  N        -29.7930   21.2760  -31.5310 N.3    88  PHE88      -0.1227
     21  CA       -28.5550   21.9920  -31.2250 C.3    88  PHE88       0.1736
     22  C        -27.3770   21.1390  -31.6880 C.2    88  PHE88       0.2595
     23  O        -27.2180   20.0120  -31.2430 O.2    88  PHE88      -0.2718
     24  CB       -28.4810   22.2760  -29.7120 C.3    88  PHE88       0.0547
     25  CG       -27.2630   23.0430  -29.2860 C.ar   88  PHE88      -0.0202
     26  CD1      -27.1830   24.4050  -29.4940 C.ar   88  PHE88      -0.0042
     27  CD2      -26.2100   22.3980  -28.6520 C.ar   88  PHE88      -0.0042
     28  CE1      -26.0720   25.1210  -29.0820 C.ar   88  PHE88      -0.0003
     29  CE2      -25.0920   23.1050  -28.2380 C.ar   88  PHE88      -0.0003
     30  CZ       -25.0190   24.4650  -28.4580 C.ar   88  PHE88      -0.0000
     31  N        -26.5560   21.6640  -32.5910 N.am   89  MET89      -0.1965
     32  CA       -25.5920   20.8080  -33.2650 C.3    89  MET89       0.1736
     33  C        -24.1460   21.0770  -32.8660 C.2    89  MET89       0.2616
     34  O        -23.2420   21.0130  -33.7040 O.2    89  MET89      -0.2715
     35  CB       -25.7480   20.9550  -34.7810 C.3    89  MET89       0.0427
     36  CG       -27.1380   20.5990  -35.3070 C.3    89  MET89       0.0599
     37  SD       -27.6940   18.9390  -34.8740 S.3    89  MET89      -0.1393
     38  CE       -26.5860   17.9440  -35.8660 C.3    89  MET89       0.0692
     39  N        -23.9150   21.3560  -31.5890 N.am   90  ARG90      -0.1963
     40  CA       -22.5500   21.4770  -31.0900 C.3    90  ARG90       0.1729
     41  C        -22.2700   20.4410  -30.0120 C.2    90  ARG90       0.2616
     42  O        -23.1400   20.1240  -29.1960 O.2    90  ARG90      -0.2715
     43  CB       -22.2830   22.8790  -30.5260 C.3    90  ARG90       0.0348
     44  CG       -22.5600   24.0160  -31.4880 C.3    90  ARG90       0.0492
     45  CD       -21.6160   23.9780  -32.6720 C.3    90  ARG90       0.2205
     46  NE       -20.2380   24.2320  -32.2690 N.pl3  90  ARG90      -0.0865
     47  CZ       -19.2130   24.2590  -33.1140 C.cat  90  ARG90       0.5346
     48  NH1      -19.4200   24.0450  -34.4050 N.pl3  90  ARG90       0.1354
     49  NH2      -17.9860   24.5000  -32.6710 N.pl3  90  ARG90       0.1354
     50  N        -21.0530   19.9120  -30.0270 N.am   91  ILE91      -0.1963
     51  CA       -20.5670   19.0510  -28.9590 C.3    91  ILE91       0.1727
     52  C        -20.2090   19.9050  -27.7490 C.2    91  ILE91       0.2616
     53  O        -19.4980   20.8890  -27.8770 O.2    91  ILE91      -0.2715
     54  CB       -19.3380   18.2460  -29.4170 C.3    91  ILE91       0.0290
     55  CG1      -19.7270   17.3170  -30.5660 C.3    91  ILE91       0.0022
     56  CG2      -18.7270   17.4660  -28.2570 C.3    91  ILE91       0.0023
     57  CD1      -18.5500   16.6240  -31.2040 C.3    91  ILE91       0.0001
     58  N        -20.7170   19.5290  -26.5810 N.am   92  LEU92      -0.1977
     59  CA       -20.4500   20.2600  -25.3550 C.3    92  LEU92       0.1596
     60  C        -19.2170   19.7190  -24.6430 C.2    92  LEU92       0.2287
     61  O        -18.9290   18.5220  -24.7010 O.2    92  LEU92      -0.2864
     62  CB       -21.6690   20.1940  -24.4380 C.3    92  LEU92       0.0297
     63  CG       -22.9060   20.8350  -25.0610 C.3    92  LEU92       0.0022
     64  CD1      -24.1580   20.2820  -24.4210 C.3    92  LEU92       0.0001
     65  CD2      -22.8390   22.3510  -24.9170 C.3    92  LEU92       0.0001
     66  N        -20.8390   19.3970  -19.4420 N.3    97  VAL97      -0.1245
     67  CA       -21.6360   18.1830  -19.3370 C.3    97  VAL97       0.1561
     68  C        -21.6750   17.6740  -17.8950 C.2    97  VAL97       0.2260
     69  O        -22.7310   17.2910  -17.3900 O.2    97  VAL97      -0.2867
     70  CB       -21.0860   17.0810  -20.2700 C.3    97  VAL97       0.0252
     71  CG1      -21.7410   15.7430  -19.9790 C.3    97  VAL97       0.0019
     72  CG2      -21.2850   17.4820  -21.7250 C.3    97  VAL97       0.0019
     73  N        -31.0410   15.2780  -24.7280 N.3   106  ASN106     -0.1225
     74  CA       -30.8300   15.4680  -26.1710 C.3   106  ASN106      0.1785
     75  C        -31.7660   14.5910  -26.9640 C.2   106  ASN106      0.2597
     76  O        -32.0720   13.4850  -26.5260 O.2   106  ASN106     -0.2718
     77  CB       -29.3860   15.1360  -26.5620 C.3   106  ASN106      0.1169
     78  CG       -29.1160   15.3350  -28.0500 C.2   106  ASN106      0.2627
     79  OD1      -29.3110   16.4270  -28.5890 O.2   106  ASN106     -0.2716
     80  ND2      -28.6390   14.2840  -28.7150 N.am  106  ASN106     -0.0877
     81  N        -32.2230   15.0800  -28.1200 N.am  107  ILE107     -0.1966
     82  CA       -32.9820   14.2360  -29.0510 C.3   107  ILE107      0.1727
     83  C        -32.0790   13.8750  -30.2340 C.2   107  ILE107      0.2616
     84  O        -31.3190   14.7020  -30.7520 O.2   107  ILE107     -0.2715
     85  CB       -34.2980   14.9160  -29.5340 C.3   107  ILE107      0.0290
     86  CG1      -35.0990   13.9980  -30.4650 C.3   107  ILE107      0.0022
     87  CG2      -34.0400   16.1950  -30.2710 C.3   107  ILE107      0.0023
     88  CD1      -36.0870   13.1430  -29.7890 C.3   107  ILE107      0.0001
     89  N        -32.1370   12.6110  -30.6350 N.am  108  HIS108     -0.1973
     90  CA       -31.2910   12.1260  -31.7140 C.3   108  HIS108      0.1656
     91  C        -32.1470   11.2620  -32.6270 C.2   108  HIS108      0.2291
     92  O        -32.8840   10.4160  -32.1430 O.2   108  HIS108     -0.2864
     93  CB       -30.1150   11.3140  -31.1620 C.3   108  HIS108      0.0771
     94  CG       -29.2050   10.7800  -32.2200 C.ar  108  HIS108      0.0820
     95  ND1      -28.2040   11.5330  -32.7900 N.ar  108  HIS108     -0.2267
     96  CD2      -29.1490    9.5660  -32.8180 C.ar  108  HIS108      0.1154
     97  CE1      -27.5740   10.8110  -33.7010 C.ar  108  HIS108      0.1986
     98  NE2      -28.1230    9.6100  -33.7280 N.ar  108  HIS108     -0.2212
     99  N        -23.9950   10.2350  -34.3490 N.3   117  GLY117     -0.1210
    100  CA       -23.4400   11.2960  -35.1850 C.3   117  GLY117      0.1956
    101  C        -24.4390   12.2230  -35.8630 C.2   117  GLY117      0.2612
    102  O        -25.6230   12.2180  -35.5420 O.2   117  GLY117     -0.2717
    103  N        -23.9580   12.9990  -36.8380 N.am  118  SER118     -0.1952
    104  CA       -24.7060   14.1450  -37.3690 C.3   118  SER118      0.1924
    105  C        -25.6690   13.8740  -38.5190 C.2   118  SER118      0.2314
    106  O        -26.5600   14.6910  -38.7890 O.2   118  SER118     -0.2863
    107  CB       -23.7220   15.2060  -37.8470 C.3   118  SER118      0.2116
    108  OG       -22.9180   14.6770  -38.8810 O.3   118  SER118     -0.2180
    109  N        -32.0900   11.0820  -24.7160 N.3   137  HIS137     -0.1241
    110  CA       -31.1430   10.5510  -23.7420 C.3   137  HIS137      0.1621
    111  C        -30.5470   11.6560  -22.8910 C.2   137  HIS137      0.2264
    112  O        -30.4960   12.8140  -23.3080 O.2   137  HIS137     -0.2867
    113  CB       -30.0130    9.7770  -24.4530 C.3   137  HIS137      0.0745
    114  CG       -29.1870   10.6250  -25.3740 C.ar  137  HIS137      0.0817
    115  ND1      -27.9940   11.1990  -24.9890 N.ar  137  HIS137     -0.2268
    116  CD2      -29.3940   11.0100  -26.6560 C.ar  137  HIS137      0.1154
    117  CE1      -27.4960   11.8910  -26.0000 C.ar  137  HIS137      0.1986
    118  NE2      -28.3230   11.7890  -27.0250 N.ar  137  HIS137     -0.2212
    119  N        -27.4600   13.6740  -21.5830 N.3   139  VAL139     -0.1231
    120  CA       -26.2040   13.9840  -22.2580 C.3   139  VAL139      0.1692
    121  C        -25.0030   13.6260  -21.3860 C.2   139  VAL139      0.2592
    122  O        -24.8770   14.1030  -20.2610 O.2   139  VAL139     -0.2718
    123  CB       -26.1540   15.4720  -22.6520 C.3   139  VAL139      0.0266
    124  CG1      -24.7770   15.8470  -23.1710 C.3   139  VAL139      0.0020
    125  CG2      -27.2140   15.7470  -23.7050 C.3   139  VAL139      0.0020
    126  N        -24.1430   12.7540  -21.9140 N.am  140  ALA140     -0.1966
    127  CA       -22.8860   12.3840  -21.2620 C.3   140  ALA140      0.1728
    128  C        -21.7360   12.9500  -22.0910 C.2   140  ALA140      0.2616
    129  O        -21.9690   13.4720  -23.1770 O.2   140  ALA140     -0.2715
    130  CB       -22.7820   10.8770  -21.1320 C.3   140  ALA140      0.0334
    131  N        -20.5000   12.8560  -21.6090 N.am  141  GLU141     -0.1963
    132  CA       -19.3980   13.4490  -22.3660 C.3   141  GLU141      0.1733
    133  C        -19.2670   12.7770  -23.7290 C.2   141  GLU141      0.2616
    134  O        -19.1530   13.4480  -24.7540 O.2   141  GLU141     -0.2715
    135  CB       -18.0720   13.3600  -21.6050 C.3   141  GLU141      0.0429
    136  CG       -16.9400   14.0680  -22.3360 C.3   141  GLU141      0.1163
    137  CD       -15.6710   14.1830  -21.5170 C.2   141  GLU141      0.3649
    138  OE1      -15.6130   13.6020  -20.4120 O.co2 141  GLU141     -0.2457
    139  OE2      -14.7290   14.8570  -21.9850 O.co2 141  GLU141     -0.2457
    140  N        -19.2990   11.4490  -23.7340 N.am  142  ASP142     -0.1957
    141  CA       -19.2710   10.6830  -24.9720 C.3   142  ASP142      0.1840
    142  C        -20.5520   10.9470  -25.7620 C.2   142  ASP142      0.2622
    143  O        -21.6510   10.6410  -25.2920 O.2   142  ASP142     -0.2715
    144  CB       -19.1140    9.1930  -24.6640 C.3   142  ASP142      0.1450
    145  CG       -18.8110    8.3670  -25.8930 C.2   142  ASP142      0.3671
    146  OD1      -18.3930    8.9450  -26.9160 O.co2 142  ASP142     -0.2456
    147  OD2      -18.9820    7.1300  -25.8260 O.co2 142  ASP142     -0.2456
    148  N        -20.4120   11.5210  -26.9550 N.am  143  VAL143     -0.1963
    149  CA       -21.5780   11.9160  -27.7470 C.3   143  VAL143      0.1727
    150  C        -22.5070   10.7510  -28.0950 C.2   143  VAL143      0.2616
    151  O        -22.0550    9.6950  -28.5330 O.2   143  VAL143     -0.2715
    152  CB       -21.1340   12.6200  -29.0390 C.3   143  VAL143      0.0290
    153  CG1      -22.3320   12.9910  -29.8930 C.3   143  VAL143      0.0023
    154  CG2      -20.3260   13.8620  -28.6920 C.3   143  VAL143      0.0023
    155  N        -23.8040   10.9650  -27.8670 N.am  144  ASP144     -0.1971
    156  CA       -24.8700   10.0050  -28.1800 C.3   144  ASP144      0.1709
    157  C        -24.7340    8.6900  -27.4060 C.2   144  ASP144      0.2293
    158  O        -25.2740    7.6590  -27.8240 O.2   144  ASP144     -0.2864
    159  CB       -24.9160    9.7390  -29.6980 C.3   144  ASP144      0.1436
    160  CG       -25.3090   10.9770  -30.4920 C.2   144  ASP144      0.3671
    161  OD1      -25.8930   11.9120  -29.8950 O.co2 144  ASP144     -0.2456
    162  OD2      -25.0450   11.0120  -31.7100 O.co2 144  ASP144     -0.2456
@<TRIPOS>BOND
     1   108   107    1
     2   106   105    2
     3   105   104    1
     4   107   104    1
     5   104   103    1
     6   103   101   am
     7    38    37    1
     8   101   102    2
     9   101   100    1
    10    36    37    1
    11    36    35    1
    12   100    99    1
    13    35    32    1
    14    48    47    1
    15    98    97   ar
    16    98    96   ar
    17    34    33    2
    18    97    95   ar
    19    32    33    1
    20    32    31    1
    21    47    49    1
    22    47    46    2
    23    33    39   am
    24    96    94   ar
    25    95    94   ar
    26    45    46    1
    27    45    44    1
    28    91    92    2
    29    91    90    1
    30    31    22   am
    31    94    93    1
    32    90    93    1
    33    90    89    1
    34   162   160   ar
    35    22    23    2
    36    22    21    1
    37    39    40    1
    38    20    21    1
    39    44    43    1
    40    21    24    1
    41    57    55    1
    42    40    43    1
    43    40    41    1
    44    84    83    2
    45    89    83   am
    46    55    54    1
    47   160   161   ar
    48   160   159    1
    49    86    88    1
    50    86    85    1
    51    87    85    1
    52    83    82    1
    53    11     9    1
    54    50    41   am
    55    50    51    1
    56    41    42    2
    57   153   152    1
    58    24    25    1
    59   159   156    1
    60    85    82    1
    61    26    25   ar
    62    26    28   ar
    63    54    51    1
    64    54    56    1
    65    25    27   ar
    66    28    30   ar
    67    82    81    1
    68   152   154    1
    69   152   149    1
    70    51    52    1
    71     9     8    2
    72     9    10    1
    73    80    78   am
    74    27    29   ar
    75    79    78    2
    76   151   150    2
    77    30    29   ar
    78     8     7    1
    79   156   155    1
    80   156   157    1
    81    81    75   am
    82   150   155   am
    83   150   149    1
    84    78    77    1
    85    15    14    2
    86    14    13    1
    87    53    52    2
    88   158   157    2
    89    52    58   am
    90   149   148    1
    91     1     2    1
    92   118   116   ar
    93   118   117   ar
    94     5     2    1
    95     5     6    1
    96    75    76    2
    97    75    74    1
    98   148   142   am
    99     2     3    1
   100   146   145   ar
   101     7     6    1
   102    16    13    1
   103    16    17    1
   104    13    12    1
   105   116   114   ar
   106    58    59    1
   107    77    74    1
   108    74    73    1
   109   117   115   ar
   110    18    17    1
   111   145   147   ar
   112   145   144    1
   113   142   143    2
   114   142   141    1
   115    17    19    1
   116     3     4    2
   117   114   115   ar
   118   114   113    1
   119    59    60    1
   120    59    62    1
   121    63    65    1
   122    63    62    1
   123    63    64    1
   124   141   144    1
   125   141   140    1
   126   134   133    2
   127   109   110    1
   128    61    60    2
   129   113   110    1
   130   110   111    1
   131   140   133   am
   132   133   132    1
   133   125   123    1
   134   112   111    2
   135   129   128    2
   136   124   123    1
   137   123   120    1
   138   132   131    1
   139   132   135    1
   140   136   135    1
   141   136   137    1
   142   120   119    1
   143   120   121    1
   144   128   131   am
   145   128   127    1
   146   139   137   ar
   147   126   121   am
   148   126   127    1
   149    72    70    1
   150   137   138   ar
   151   121   122    2
   152   127   130    1
   153    70    71    1
   154    70    67    1
   155    66    67    1
   156    67    68    1
   157    68    69    2
