@<TRIPOS>MOLECULE
tmp/4zz1A00.pdb
 150 144 0 0 0
SMALL
GASTEIGER

@<TRIPOS>ATOM
      1  N         37.5080  -14.2950  -20.9020 N.3     7  ILE7       -0.1245
      2  CA        37.3970  -14.7450  -19.5160 C.3     7  ILE7        0.1561
      3  C         37.2210  -13.5680  -18.5800 C.2     7  ILE7        0.2260
      4  O         37.5040  -12.4230  -18.9600 O.2     7  ILE7       -0.2867
      5  CB        38.6420  -15.5440  -19.0770 C.3     7  ILE7        0.0252
      6  CG1       39.8870  -14.6480  -19.0940 C.3     7  ILE7        0.0019
      7  CG2       38.8340  -16.7670  -19.9670 C.3     7  ILE7        0.0019
      8  CD1       41.1230  -15.2940  -18.4700 C.3     7  ILE7        0.0001
      9  N         37.7880  -14.6350  -14.9490 N.3     9  GLY9       -0.1210
     10  CA        38.2230  -15.1880  -13.6770 C.3     9  GLY9        0.1956
     11  C         39.1740  -16.3670  -13.7250 C.2     9  GLY9        0.2613
     12  O         40.2290  -16.3030  -14.3460 O.2     9  GLY9       -0.2717
     13  N         38.7830  -17.4430  -13.0510 N.am   10  THR10      -0.1938
     14  CA        39.6530  -18.5810  -12.7700 C.3    10  THR10       0.2028
     15  C         40.1880  -19.2680  -14.0270 C.2    10  THR10       0.2643
     16  O         41.3670  -19.6150  -14.1030 O.2    10  THR10      -0.2714
     17  CB        38.9040  -19.6040  -11.9010 C.3    10  THR10       0.1808
     18  OG1       38.5080  -18.9690  -10.6780 O.3    10  THR10      -0.2208
     19  CG2       39.7850  -20.8080  -11.5850 C.3    10  THR10       0.0379
     20  N         39.3180  -19.4760  -15.0090 N.am   11  GLY11      -0.1939
     21  CA        39.7430  -20.0200  -16.2840 C.3    11  GLY11       0.2014
     22  C         39.7930  -21.5340  -16.3760 C.2    11  GLY11       0.2640
     23  O         40.5190  -22.0720  -17.2220 O.2    11  GLY11      -0.2714
     24  N         39.0070  -22.2330  -15.5590 N.am   12  SER12      -0.1935
     25  CA        38.9400  -23.6920  -15.7050 C.3    12  SER12       0.2055
     26  C         38.3310  -24.0880  -17.0480 C.2    12  SER12       0.2643
     27  O         38.7880  -25.0460  -17.6700 O.2    12  SER12      -0.2714
     28  CB        38.1630  -24.3430  -14.5480 C.3    12  SER12       0.2130
     29  OG        36.7610  -24.1020  -14.6180 O.3    12  SER12      -0.2179
     30  N         37.3250  -23.3570  -17.5200 N.am   13  ASN13      -0.1971
     31  CA        36.7930  -23.6590  -18.8450 C.3    13  ASN13       0.1688
     32  C         37.8330  -23.3820  -19.9280 C.2    13  ASN13       0.2292
     33  O         37.9800  -24.1650  -20.8660 O.2    13  ASN13      -0.2864
     34  CB        35.5120  -22.8740  -19.1170 C.3    13  ASN13       0.1181
     35  CG        34.2840  -23.5770  -18.5860 C.2    13  ASN13       0.2629
     36  OD1       33.8190  -24.5620  -19.1620 O.2    13  ASN13      -0.2716
     37  ND2       33.7450  -23.0770  -17.4890 N.am   13  ASN13      -0.0877
     38  N         33.9620  -17.7510  -21.7120 N.3    86  ALA86      -0.1231
     39  CA        34.3010  -18.8330  -20.7810 C.3    86  ALA86       0.1694
     40  C         34.5000  -18.2280  -19.4050 C.2    86  ALA86       0.2593
     41  O         35.6120  -17.8710  -19.0200 O.2    86  ALA86      -0.2718
     42  CB        35.5550  -19.5710  -21.2500 C.3    86  ALA86       0.0304
     43  N         33.4060  -18.0830  -18.6650 N.am   87  GLY87      -0.1942
     44  CA        33.4480  -17.3390  -17.4180 C.3    87  GLY87       0.2014
     45  C         33.5360  -15.8330  -17.6020 C.2    87  GLY87       0.2639
     46  O         33.8010  -15.1150  -16.6480 O.2    87  GLY87      -0.2714
     47  N         33.3130  -15.3630  -18.8270 N.am   88  PHE88      -0.1959
     48  CA        33.2480  -13.9340  -19.1210 C.3    88  PHE88       0.1771
     49  C         31.9200  -13.3710  -18.6250 C.2    88  PHE88       0.2619
     50  O         30.8650  -13.8980  -18.9750 O.2    88  PHE88      -0.2715
     51  CB        33.4120  -13.7270  -20.6230 C.3    88  PHE88       0.0574
     52  CG        33.4350  -12.2880  -21.0520 C.ar   88  PHE88      -0.0200
     53  CD1       34.5570  -11.5050  -20.8490 C.ar   88  PHE88      -0.0042
     54  CD2       32.3390  -11.7310  -21.6960 C.ar   88  PHE88      -0.0042
     55  CE1       34.5880  -10.1820  -21.2760 C.ar   88  PHE88      -0.0003
     56  CE2       32.3540  -10.4200  -22.1200 C.ar   88  PHE88      -0.0003
     57  CZ        33.4770   -9.6390  -21.9070 C.ar   88  PHE88      -0.0000
     58  N         31.9470  -12.3210  -17.8080 N.am   89  MET89      -0.1977
     59  CA        30.7300  -11.9430  -17.0940 C.3    89  MET89       0.1605
     60  C         30.0760  -10.6450  -17.5680 C.2    89  MET89       0.2287
     61  O         29.1620  -10.1410  -16.9030 O.2    89  MET89      -0.2864
     62  CB        31.0170  -11.8660  -15.5920 C.3    89  MET89       0.0413
     63  CG        31.2680  -13.2340  -14.9400 C.3    89  MET89       0.0598
     64  SD        29.9420  -14.4510  -15.1910 S.3    89  MET89      -0.1393
     65  CE        28.5530  -13.5820  -14.4750 C.3    89  MET89       0.0692
     66  N         28.6960  -19.3170  -25.6630 N.3   106  ASN106     -0.1225
     67  CA        28.7650  -19.0650  -24.2270 C.3   106  ASN106      0.1785
     68  C         28.4970  -20.3410  -23.4500 C.2   106  ASN106      0.2597
     69  O         27.6890  -21.1700  -23.8890 O.2   106  ASN106     -0.2718
     70  CB        27.7470  -17.9920  -23.8410 C.3   106  ASN106      0.1169
     71  CG        27.7780  -17.6620  -22.3710 C.2   106  ASN106      0.2627
     72  OD1       28.8140  -17.2680  -21.8330 O.2   106  ASN106     -0.2716
     73  ND2       26.6250  -17.7970  -21.7090 N.am  106  ASN106     -0.0877
     74  N         29.1600  -20.5050  -22.3050 N.am  107  ILE107     -0.1966
     75  CA        28.8140  -21.5760  -21.3650 C.3   107  ILE107      0.1727
     76  C         28.0810  -20.9700  -20.1710 C.2   107  ILE107      0.2616
     77  O         28.4620  -19.9220  -19.6360 O.2   107  ILE107     -0.2715
     78  CB        30.0680  -22.3810  -20.9100 C.3   107  ILE107      0.0290
     79  CG1       29.6850  -23.5320  -19.9890 C.3   107  ILE107      0.0022
     80  CG2       31.0700  -21.5240  -20.1790 C.3   107  ILE107      0.0023
     81  CD1       29.2310  -24.7550  -20.6720 C.3   107  ILE107      0.0001
     82  N         27.0020  -21.6290  -19.7790 N.am  108  HIS108     -0.1960
     83  CA        26.1450  -21.1390  -18.7140 C.3   108  HIS108      0.1772
     84  C         25.8750  -22.2960  -17.7650 C.2   108  HIS108      0.2462
     85  O         25.5210  -23.3820  -18.2190 O.2   108  HIS108     -0.2730
     86  CB        24.8430  -20.5910  -19.2870 C.3   108  HIS108      0.0785
     87  CG        23.9470  -20.0280  -18.2430 C.ar  108  HIS108      0.0821
     88  ND1       24.1150  -18.7630  -17.7300 N.ar  108  HIS108     -0.2267
     89  CD2       22.9120  -20.5800  -17.5660 C.ar  108  HIS108      0.1154
     90  CE1       23.2070  -18.5480  -16.7920 C.ar  108  HIS108      0.1986
     91  NE2       22.4650  -19.6360  -16.6770 N.ar  108  HIS108     -0.2212
     92  N         26.0350  -22.0830  -16.4440 N.am  109  PRO109     -0.2727
     93  CA        25.9520  -23.2040  -15.4930 C.3   109  PRO109      0.1402
     94  C         24.5240  -23.5030  -15.0160 C.2   109  PRO109      0.2269
     95  O         24.2730  -23.6230  -13.8150 O.2   109  PRO109     -0.2865
     96  CB        26.8370  -22.7320  -14.3340 C.3   109  PRO109      0.0296
     97  CG        26.6070  -21.2300  -14.3160 C.3   109  PRO109      0.0237
     98  CD        26.5020  -20.8410  -15.7940 C.3   109  PRO109      0.0939
     99  N         21.0280  -15.7430  -16.0140 N.3   117  GLY117     -0.1210
    100  CA        21.6240  -14.6680  -15.2380 C.3   117  GLY117      0.1956
    101  C         22.9340  -15.0370  -14.5690 C.2   117  GLY117      0.2612
    102  O         23.5610  -16.0370  -14.9070 O.2   117  GLY117     -0.2717
    103  N         23.3480  -14.2190  -13.6040 N.am  118  SER118     -0.1952
    104  CA        24.7110  -14.2970  -13.0870 C.3   118  SER118      0.1924
    105  C         24.9040  -15.2240  -11.8950 C.2   118  SER118      0.2314
    106  O         26.0390  -15.5080  -11.5230 O.2   118  SER118     -0.2863
    107  CB        25.1870  -12.9040  -12.6850 C.3   118  SER118      0.2116
    108  OG        24.3940  -12.4230  -11.6210 O.3   118  SER118     -0.2180
    109  N         23.5810  -20.9580   -9.8360 N.3   121  HIS121     -0.1241
    110  CA        23.5960  -21.9550   -8.7650 C.3   121  HIS121      0.1621
    111  C         22.7740  -21.5060   -7.5670 C.2   121  HIS121      0.2264
    112  O         22.0570  -22.3110   -6.9830 O.2   121  HIS121     -0.2867
    113  CB        25.0220  -22.2610   -8.3130 C.3   121  HIS121      0.0745
    114  CG        25.8800  -22.8360   -9.3860 C.ar  121  HIS121      0.0817
    115  ND1       25.5400  -23.9800  -10.0760 N.ar  121  HIS121     -0.2268
    116  CD2       27.0590  -22.4120   -9.8920 C.ar  121  HIS121      0.1154
    117  CE1       26.4930  -24.2430  -10.9580 C.ar  121  HIS121      0.1986
    118  NE2       27.4170  -23.3040  -10.8720 N.ar  121  HIS121     -0.2212
    119  N         21.4430  -15.1690  -22.4740 N.3   144  ASP144     -0.1239
    120  CA        21.1970  -16.5690  -22.1190 C.3   144  ASP144      0.1674
    121  C         19.9860  -17.1490  -22.8480 C.2   144  ASP144      0.2266
    122  O         19.3700  -18.1020  -22.3660 O.2   144  ASP144     -0.2867
    123  CB        21.0240  -16.7260  -20.5950 C.3   144  ASP144      0.1410
    124  CG        22.2880  -16.3840  -19.8260 C.2   144  ASP144      0.3668
    125  OD1       23.3930  -16.4140  -20.4340 O.co2 144  ASP144     -0.2456
    126  OD2       22.1940  -16.1070  -18.6070 O.co2 144  ASP144     -0.2456
    127  N         28.7780  -25.9130   -7.8620 N.3   166  SER166     -0.1217
    128  CA        29.5260  -25.3470   -8.9790 C.3   166  SER166      0.1889
    129  C         30.7030  -26.2530   -9.3540 C.2   166  SER166      0.2288
    130  O         31.0020  -26.4160  -10.5410 O.2   166  SER166     -0.2866
    131  CB        30.0080  -23.9280   -8.6700 C.3   166  SER166      0.2089
    132  OG        30.9810  -23.9120   -7.6390 O.3   166  SER166     -0.2183
    133  N         31.0220  -27.8130  -13.0610 N.3   170  LYS170     -0.1245
    134  CA        32.1850  -27.5090  -13.8940 C.3   170  LYS170      0.1561
    135  C         32.7850  -28.7510  -14.5460 C.2   170  LYS170      0.2260
    136  O         33.3090  -28.6460  -15.6490 O.2   170  LYS170     -0.2867
    137  CB        33.2580  -26.7680  -13.0870 C.3   170  LYS170      0.0271
    138  CG        32.9580  -25.2870  -12.9760 C.3   170  LYS170      0.0035
    139  CD        34.0000  -24.5490  -12.1930 C.3   170  LYS170      0.0206
    140  CE        33.5990  -23.0940  -12.0720 C.3   170  LYS170      0.1093
    141  NZ        34.7210  -22.2860  -11.5090 N.3   170  LYS170     -0.1314
    142  N         30.8170  -28.8670  -17.5760 N.3   173  GLU173     -0.1245
    143  CA        31.1490  -27.7470  -18.4570 C.3   173  GLU173      0.1567
    144  C         32.3920  -28.0520  -19.2700 C.2   173  GLU173      0.2260
    145  O         32.4670  -27.7420  -20.4630 O.2   173  GLU173     -0.2867
    146  CB        31.3840  -26.4730  -17.6570 C.3   173  GLU173      0.0388
    147  CG        30.1610  -25.9490  -16.9460 C.3   173  GLU173      0.1160
    148  CD        30.4720  -24.7180  -16.1350 C.2   173  GLU173      0.3649
    149  OE1       31.3720  -23.9530  -16.5330 O.co2 173  GLU173     -0.2457
    150  OE2       29.8230  -24.5130  -15.0870 O.co2 173  GLU173     -0.2457
@<TRIPOS>BOND
     1    66    67    1
     2    67    70    1
     3    67    68    1
     4    69    68    2
     5    70    71    1
     6    68    74   am
     7   121   122    2
     8   121   120    1
     9   119   120    1
    10    71    72    2
    11    71    73   am
    12    74    75    1
    13    56    57   ar
    14    56    54   ar
    15   120   123    1
    16    57    55   ar
    17    38    39    1
    18    54    52   ar
    19    75    78    1
    20    75    76    1
    21    55    53   ar
    22    42    39    1
    23    52    53   ar
    24    52    51    1
    25    78    80    1
    26    78    79    1
    27     1     2    1
    28    33    32    2
    29    39    40    1
    30    81    79    1
    31    51    48    1
    32   123   124    1
    33   145   144    2
    34   125   124   ar
    35    76    82   am
    36    76    77    2
    37     7     5    1
    38    32    31    1
    39   124   126   ar
    40    82    83    1
    41     2     5    1
    42     2     3    1
    43    40    41    2
    44    40    43   am
    45    86    83    1
    46    86    87    1
    47   144   143    1
    48    36    35    2
    49    48    47    1
    50    48    49    1
    51    34    31    1
    52    34    35    1
    53     6     5    1
    54     6     8    1
    55    50    49    2
    56     4     3    2
    57    31    30    1
    58    47    45   am
    59    83    84    1
    60    43    44    1
    61    49    58   am
    62    35    37   am
    63   143   146    1
    64   143   142    1
    65    87    88   ar
    66    87    89   ar
    67    85    84    2
    68    58    59    1
    69    84    92   am
    70    88    90   ar
    71    27    26    2
    72   146   147    1
    73    45    44    1
    74    45    46    2
    75    60    59    1
    76    60    61    2
    77    89    91   ar
    78    30    26   am
    79    23    22    2
    80    59    62    1
    81    26    25    1
    82   147   148    1
    83    90    91   ar
    84   149   148   ar
    85    92    98    1
    86    92    93    1
    87    22    21    1
    88    22    24   am
    89    21    20    1
    90   148   150   ar
    91    99   100    1
    92    98    97    1
    93    25    24    1
    94    25    28    1
    95   136   135    2
    96    62    63    1
    97    93    94    1
    98    93    96    1
    99   100   101    1
   100    64    63    1
   101    64    65    1
   102    94    95    2
   103    20    15   am
   104     9    10    1
   105   102   101    2
   106    29    28    1
   107   101   103   am
   108   135   134    1
   109    12    11    2
   110    96    97    1
   111    16    15    2
   112    15    14    1
   113   134   137    1
   114   134   133    1
   115    11    10    1
   116    11    13   am
   117   103   104    1
   118   104   107    1
   119   104   105    1
   120   137   138    1
   121    13    14    1
   122   138   139    1
   123    14    17    1
   124   107   108    1
   125   139   140    1
   126   140   141    1
   127    17    19    1
   128    17    18    1
   129   105   106    2
   130   117   118   ar
   131   117   115   ar
   132   118   116   ar
   133   130   129    2
   134   115   114   ar
   135   116   114   ar
   136   109   110    1
   137   114   113    1
   138   129   128    1
   139   128   131    1
   140   128   127    1
   141   110   113    1
   142   110   111    1
   143   131   132    1
   144   111   112    2
