@<TRIPOS>MOLECULE
tmp/4zz8A00.pdb
 88 82 0 0 0
SMALL
GASTEIGER

@<TRIPOS>ATOM
      1  N         36.5540   19.4280  123.3160 N.3    15  GLU15      -0.1245
      2  CA        36.8920   19.9640  122.0040 C.3    15  GLU15       0.1567
      3  C         35.7850   20.9070  121.5230 C.2    15  GLU15       0.2260
      4  O         36.1160   22.0110  120.9870 O.2    15  GLU15      -0.2867
      5  CB        37.0850   18.8070  121.0350 C.3    15  GLU15       0.0388
      6  CG        37.3940   19.1590  119.6100 C.3    15  GLU15       0.1160
      7  CD        37.3220   17.9780  118.6600 C.2    15  GLU15       0.3649
      8  OE1       36.7560   18.1610  117.5480 O.co2  15  GLU15      -0.2457
      9  OE2       37.9270   16.9400  118.9280 O.co2  15  GLU15      -0.2457
     10  N         31.6720   10.1290  121.8980 N.3    32  ARG32      -0.1245
     11  CA        32.9260   10.2000  122.5830 C.3    32  ARG32       0.1563
     12  C         33.1310   11.5590  123.2400 C.2    32  ARG32       0.2260
     13  O         32.7280   12.6220  122.7630 O.2    32  ARG32      -0.2867
     14  CB        34.1570    9.9490  121.6240 C.3    32  ARG32       0.0307
     15  CG        34.2480   10.9280  120.4350 C.3    32  ARG32       0.0489
     16  CD        35.1760   10.3750  119.3630 C.3    32  ARG32       0.2205
     17  NE        35.0940   11.2700  118.1830 N.pl3  32  ARG32      -0.0865
     18  CZ        35.8910   12.2880  117.9130 C.cat  32  ARG32       0.5346
     19  NH1       36.9270   12.5200  118.6930 N.pl3  32  ARG32       0.1354
     20  NH2       35.6320   13.0700  116.8200 N.pl3  32  ARG32       0.1354
     21  N         35.9900   14.1710  123.8690 N.3    34  ALA34      -0.1245
     22  CA        37.2710   14.5900  123.2180 C.3    34  ALA34       0.1562
     23  C         37.6950   15.8480  123.9170 C.2    34  ALA34       0.2260
     24  O         36.8880   16.7740  124.1380 O.2    34  ALA34      -0.2867
     25  CB        37.0620   14.8580  121.7450 C.3    34  ALA34       0.0290
     26  N         42.7280   20.3010  121.9610 N.3    37  TYR37      -0.1241
     27  CA        43.9910   19.8930  121.3710 C.3    37  TYR37       0.1605
     28  C         45.1920   20.4220  122.1460 C.2    37  TYR37       0.2264
     29  O         45.0830   21.3590  122.8730 O.2    37  TYR37      -0.2867
     30  CB        44.0630   20.3920  119.9660 C.3    37  TYR37       0.0534
     31  CG        43.1170   19.8460  118.9650 C.ar   37  TYR37      -0.0201
     32  CD1       42.1700   18.8820  119.2250 C.ar   37  TYR37      -0.0009
     33  CD2       43.2510   20.2670  117.6450 C.ar   37  TYR37      -0.0009
     34  CE1       41.3530   18.3980  118.2310 C.ar   37  TYR37       0.0417
     35  CE2       42.4070   19.8120  116.6770 C.ar   37  TYR37       0.0417
     36  CZ        41.4880   18.8510  116.9640 C.ar   37  TYR37       0.1957
     37  OH        40.6870   18.3470  115.9650 O.3    37  TYR37      -0.2866
     38  N         39.3140    6.5460  120.7890 N.3    62  GLU62      -0.1231
     39  CA        39.2910    7.0220  119.4000 C.3    62  GLU62       0.1699
     40  C         40.7130    7.1910  118.8790 C.2    62  GLU62       0.2592
     41  O         41.6650    6.9430  119.5930 O.2    62  GLU62      -0.2718
     42  CB        38.4610    8.3080  119.3670 C.3    62  GLU62       0.0402
     43  CG        38.1070    8.8870  118.0110 C.3    62  GLU62       0.1161
     44  CD        39.0370    9.9900  117.4660 C.2    62  GLU62       0.3649
     45  OE1       39.9360   10.5450  118.1860 O.co2  62  GLU62      -0.2457
     46  OE2       38.9120   10.2380  116.2090 O.co2  62  GLU62      -0.2457
     47  N         40.8920    7.5920  117.6130 N.am   63  ASP63      -0.1960
     48  CA        42.2180    7.6270  117.0270 C.3    63  ASP63       0.1840
     49  C         43.1700    8.5190  117.8260 C.2    63  ASP63       0.2621
     50  O         44.3770    8.2300  117.8920 O.2    63  ASP63      -0.2715
     51  CB        42.1040    8.0650  115.5510 C.3    63  ASP63       0.1450
     52  CG        41.0840    7.2240  114.7290 C.2    63  ASP63       0.3671
     53  OD1       39.9680    6.8720  115.2140 O.co2  63  ASP63      -0.2456
     54  OD2       41.4430    6.9100  113.5680 O.co2  63  ASP63      -0.2456
     55  N         42.6200    9.5710  118.4860 N.am   64  ALA64      -0.1977
     56  CA        43.4400   10.4670  119.3080 C.3    64  ALA64       0.1597
     57  C         43.5970    9.7570  120.6510 C.2    64  ALA64       0.2287
     58  O         42.9330   10.1280  121.6110 O.2    64  ALA64      -0.2864
     59  CB        42.8130   11.7820  119.4720 C.3    64  ALA64       0.0319
     60  N         48.8830   11.3950  118.8220 N.3   119  THR119     -0.1218
     61  CA        48.6050   12.2520  117.6740 C.3   119  THR119      0.1862
     62  C         48.8790   13.6500  118.0540 C.2   119  THR119      0.2287
     63  O         49.1100   13.9770  119.2280 O.2   119  THR119     -0.2866
     64  CB        47.1150   12.1230  117.1920 C.3   119  THR119      0.1770
     65  OG1       46.2910   12.8120  118.1580 O.3   119  THR119     -0.2211
     66  CG2       46.6780   10.7440  116.9560 C.3   119  THR119      0.0375
     67  N         46.5410   15.9010  118.1150 N.3   121  TYR121     -0.1227
     68  CA        45.2130   16.4810  118.3760 C.3   121  TYR121      0.1736
     69  C         45.1120   16.6090  119.8830 C.2   121  TYR121      0.2596
     70  O         45.9620   17.2380  120.4790 O.2   121  TYR121     -0.2718
     71  CB        44.1190   15.6340  117.6960 C.3   121  TYR121      0.0548
     72  CG        44.2760   15.5730  116.1730 C.ar  121  TYR121     -0.0200
     73  CD1       44.1240   16.7210  115.4420 C.ar  121  TYR121     -0.0009
     74  CD2       44.5840   14.3920  115.5200 C.ar  121  TYR121     -0.0009
     75  CE1       44.3160   16.7220  114.0110 C.ar  121  TYR121      0.0417
     76  CE2       44.6740   14.3620  114.0940 C.ar  121  TYR121      0.0417
     77  CZ        44.5360   15.5350  113.3890 C.ar  121  TYR121      0.1957
     78  OH        44.6840   15.6010  112.0010 O.3   121  TYR121     -0.2866
     79  N         44.1030   15.9910  120.4780 N.am  122  GLY122     -0.1957
     80  CA        44.0230   15.9380  121.9240 C.3   122  GLY122      0.1869
     81  C         43.9170   14.4840  122.3280 C.2   122  GLY122      0.2309
     82  O         44.6750   13.6080  121.8220 O.2   122  GLY122     -0.2863
     83  N         40.7900   11.3740  123.1820 N.3   124  SER124     -0.1217
     84  CA        39.3380   11.1020  122.9910 C.3   124  SER124      0.1889
     85  C         38.9810    9.6540  123.2600 C.2   124  SER124      0.2288
     86  O         39.7290    8.7670  122.8580 O.2   124  SER124     -0.2866
     87  CB        38.9370   11.4810  121.5430 C.3   124  SER124      0.2089
     88  OG        37.5580   11.3090  121.3080 O.3   124  SER124     -0.2183
@<TRIPOS>BOND
     1    78    77    1
     2    77    75   ar
     3    77    76   ar
     4    54    52   ar
     5    75    73   ar
     6    76    74   ar
     7    52    53   ar
     8    52    51    1
     9    73    72   ar
    10    74    72   ar
    11    51    48    1
    12    37    36    1
    13    72    71    1
    14    46    44   ar
    15    35    36   ar
    16    35    33   ar
    17    20    18    1
    18    66    64    1
    19    36    34   ar
    20    48    47    1
    21    48    49    1
    22    64    61    1
    23    64    65    1
    24    44    43    1
    25    44    45   ar
    26     8     7   ar
    27    47    40   am
    28    33    31   ar
    29    61    62    1
    30    61    60    1
    31    71    68    1
    32    49    50    2
    33    49    55   am
    34    18    17    2
    35    18    19    1
    36    43    42    1
    37    62    63    2
    38    67    68    1
    39    17    16    1
    40    34    32   ar
    41    68    69    1
    42    55    56    1
    43     7     9   ar
    44     7     6    1
    45    40    39    1
    46    40    41    2
    47    31    32   ar
    48    31    30    1
    49    56    59    1
    50    56    57    1
    51    16    15    1
    52    42    39    1
    53    39    38    1
    54     6     5    1
    55    69    79   am
    56    69    70    2
    57    30    27    1
    58    15    14    1
    59    79    80    1
    60    57    58    2
    61     4     3    2
    62     5     2    1
    63    88    87    1
    64    27    26    1
    65    27    28    1
    66     3     2    1
    67    87    84    1
    68    14    11    1
    69    25    22    1
    70    82    81    2
    71    10    11    1
    72    80    81    1
    73     2     1    1
    74    28    29    2
    75    11    12    1
    76    13    12    2
    77    86    85    2
    78    84    83    1
    79    84    85    1
    80    22    21    1
    81    22    23    1
    82    23    24    2
