@<TRIPOS>MOLECULE
tmp/4zzdA00.pdb
 89 83 0 0 0
SMALL
GASTEIGER

@<TRIPOS>ATOM
      1  N         -6.5830    1.5750   92.5970 N.3     4  MET4       -0.1245
      2  CA        -5.3750    2.4010   92.5200 C.3     4  MET4        0.1570
      3  C         -4.9520    2.9050   93.9010 C.2     4  MET4        0.2261
      4  O         -3.7660    2.8930   94.2390 O.2     4  MET4       -0.2867
      5  CB        -5.5530    3.5730   91.5640 C.3     4  MET4        0.0387
      6  CG        -4.2420    4.2640   91.2400 C.3     4  MET4        0.0595
      7  SD        -4.4080    5.7420   90.2170 S.3     4  MET4       -0.1393
      8  CE        -5.3410    6.8180   91.3080 C.3     4  MET4        0.0692
      9  N         -3.3690   -0.0210   95.5210 N.3     7  ALA7       -0.1245
     10  CA        -1.9920   -0.1690   95.0590 C.3     7  ALA7        0.1562
     11  C         -1.0560    0.8430   95.7210 C.2     7  ALA7        0.2260
     12  O          0.0490    0.4990   96.1690 O.2     7  ALA7       -0.2867
     13  CB        -1.9340   -0.0280   93.5440 C.3     7  ALA7        0.0290
     14  N          2.3020    0.0630   98.2920 N.3    11  VAL11      -0.1245
     15  CA         3.6410    0.5740   98.0460 C.3    11  VAL11       0.1561
     16  C          4.1710    1.3440   99.2420 C.2    11  VAL11       0.2260
     17  O          5.3460    1.2340   99.6110 O.2    11  VAL11      -0.2867
     18  CB         3.6150    1.5320   96.8350 C.3    11  VAL11       0.0252
     19  CG1        4.9550    2.2330   96.6720 C.3    11  VAL11       0.0019
     20  CG2        3.2320    0.7650   95.5870 C.3    11  VAL11       0.0019
     21  N          7.1600    0.3080  101.8010 N.3    15  ASN15      -0.1240
     22  CA         8.2650    1.2370  102.0210 C.3    15  ASN15       0.1653
     23  C          8.5010    1.6180  103.4870 C.2    15  ASN15       0.2266
     24  O          9.6500    1.7820  103.8930 O.2    15  ASN15      -0.2867
     25  CB         8.1190    2.4780  101.1460 C.3    15  ASN15       0.1155
     26  CG         8.8200    2.3140   99.8170 C.2    15  ASN15       0.2627
     27  OD1       10.0560    2.3550   99.7450 O.2    15  ASN15      -0.2716
     28  ND2        8.0410    2.1030   98.7570 N.am   15  ASN15      -0.0877
     29  N         10.3290   -5.9820   96.1190 N.3    79  MET79      -0.1245
     30  CA        10.3410   -4.5270   96.1290 C.3    79  MET79       0.1570
     31  C         11.3900   -4.0000   95.1630 C.2    79  MET79       0.2261
     32  O         11.1350   -3.0340   94.4390 O.2    79  MET79      -0.2867
     33  CB        10.6020   -3.9730   97.5410 C.3    79  MET79       0.0387
     34  CG         9.3950   -3.9390   98.4410 C.3    79  MET79       0.0595
     35  SD         9.6660   -2.8300   99.8450 S.3    79  MET79      -0.1393
     36  CE         9.1400   -1.2510   99.1570 C.3    79  MET79       0.0692
     37  N         10.3740   -4.3590   91.5630 N.3    82  ALA82      -0.1231
     38  CA         9.2850   -3.4160   91.2940 C.3    82  ALA82       0.1694
     39  C          9.8030   -1.9980   91.0790 C.2    82  ALA82       0.2592
     40  O          9.3430   -1.2920   90.1780 O.2    82  ALA82      -0.2718
     41  CB         8.2750   -3.4310   92.4350 C.3    82  ALA82       0.0304
     42  N         10.7550   -1.5960   91.9160 N.am   83  PHE83      -0.1976
     43  CA        11.3450   -0.2690   91.8560 C.3    83  PHE83       0.1639
     44  C         12.1750   -0.0850   90.5940 C.2    83  PHE83       0.2290
     45  O         12.2020    1.0030   89.9990 O.2    83  PHE83      -0.2864
     46  CB        12.2390   -0.0360   93.0810 C.3    83  PHE83       0.0560
     47  CG        12.7820    1.3560   93.1670 C.ar   83  PHE83      -0.0200
     48  CD1       11.9810    2.3970   93.6290 C.ar   83  PHE83      -0.0042
     49  CD2       14.0820    1.6400   92.7570 C.ar   83  PHE83      -0.0042
     50  CE1       12.4690    3.6960   93.6980 C.ar   83  PHE83      -0.0003
     51  CE2       14.5860    2.9460   92.8270 C.ar   83  PHE83      -0.0003
     52  CZ        13.7770    3.9740   93.3010 C.ar   83  PHE83      -0.0000
     53  N          9.5720   -0.0830   87.4600 N.3    86  TRP86      -0.1241
     54  CA         8.8440    1.1900   87.4310 C.3    86  TRP86       0.1605
     55  C          9.7420    2.3810   87.1050 C.2    86  TRP86       0.2264
     56  O          9.2830    3.3770   86.5450 O.2    86  TRP86      -0.2867
     57  CB         8.0330    1.4510   88.7040 C.3    86  TRP86       0.0550
     58  CG         6.7200    0.7190   88.7150 C.ar   86  TRP86       0.0003
     59  CD1        6.4100   -0.3830   89.4520 C.ar   86  TRP86       0.0946
     60  CD2        5.5460    1.0320   87.9490 C.ar   86  TRP86       0.0152
     61  NE1        5.1170   -0.7750   89.2030 N.ar   86  TRP86      -0.2442
     62  CE2        4.5630    0.0750   88.2820 C.ar   86  TRP86       0.0810
     63  CE3        5.2310    2.0240   87.0180 C.ar   86  TRP86       0.0012
     64  CZ2        3.2880    0.0710   87.7070 C.ar   86  TRP86       0.0191
     65  CZ3        3.9580    2.0250   86.4510 C.ar   86  TRP86       0.0001
     66  CH2        3.0030    1.0570   86.8020 C.ar   86  TRP86       0.0015
     67  N         10.0340    2.4250   83.3980 N.3    89  VAL89      -0.1231
     68  CA         8.7780    2.9910   82.9350 C.3    89  VAL89       0.1692
     69  C          8.8340    4.5240   82.9850 C.2    89  VAL89       0.2592
     70  O          8.4010    5.2040   82.0490 O.2    89  VAL89      -0.2718
     71  CB         7.5940    2.4310   83.7710 C.3    89  VAL89       0.0266
     72  CG1        6.3340    3.3030   83.6380 C.3    89  VAL89       0.0020
     73  CG2        7.3080    0.9640   83.3840 C.3    89  VAL89       0.0020
     74  N          9.3980    5.0600   84.0640 N.am   90  ASP90      -0.1974
     75  CA         9.4480    6.5020   84.2700 C.3    90  ASP90       0.1709
     76  C         10.3520    7.1700   83.2380 C.2    90  ASP90       0.2293
     77  O         10.0860    8.2950   82.8090 O.2    90  ASP90      -0.2864
     78  CB         9.9120    6.8370   85.7040 C.3    90  ASP90       0.1436
     79  CG         8.7670    6.8120   86.7270 C.2    90  ASP90       0.3671
     80  OD1        7.5790    6.9840   86.3520 O.co2  90  ASP90      -0.2456
     81  OD2        9.0690    6.6390   87.9250 O.co2  90  ASP90      -0.2456
     82  N          8.6240    7.0240   79.7740 N.3    93  ILE93      -0.1245
     83  CA         7.6510    8.1080   79.7510 C.3    93  ILE93       0.1561
     84  C          8.3450    9.4650   79.5230 C.2    93  ILE93       0.2260
     85  O          7.8230   10.3310   78.8180 O.2    93  ILE93      -0.2867
     86  CB         6.8250    8.1290   81.0500 C.3    93  ILE93       0.0252
     87  CG1        5.7880    7.0050   81.0250 C.3    93  ILE93       0.0019
     88  CG2        6.1290    9.4690   81.2220 C.3    93  ILE93       0.0019
     89  CD1        5.0590    6.8630   82.3530 C.3    93  ILE93       0.0001
@<TRIPOS>BOND
     1    85    84    2
     2    84    83    1
     3    83    82    1
     4    83    86    1
     5    87    86    1
     6    87    89    1
     7    86    88    1
     8    70    69    2
     9    77    76    2
    10    68    69    1
    11    68    67    1
    12    68    71    1
    13    69    74   am
    14    76    75    1
    15    73    71    1
    16    72    71    1
    17    74    75    1
    18    75    78    1
    19    78    79    1
    20    80    79   ar
    21    65    66   ar
    22    65    63   ar
    23    56    55    2
    24    79    81   ar
    25    66    64   ar
    26    63    60   ar
    27    55    54    1
    28    54    53    1
    29    54    57    1
    30    64    62   ar
    31    60    62   ar
    32    60    58   ar
    33    62    61   ar
    34    57    58    1
    35    58    59   ar
    36    61    59   ar
    37    45    44    2
    38    40    39    2
    39     7     6    1
    40     7     8    1
    41    44    43    1
    42    39    38    1
    43    39    42   am
    44     6     5    1
    45    38    37    1
    46    38    41    1
    47     5     2    1
    48    43    42    1
    49    43    46    1
    50     2     1    1
    51     2     3    1
    52    49    51   ar
    53    49    47   ar
    54    51    52   ar
    55    46    47    1
    56    47    48   ar
    57    52    50   ar
    58    13    10    1
    59    48    50   ar
    60     3     4    2
    61    32    31    2
    62    10     9    1
    63    10    11    1
    64    31    30    1
    65    20    18    1
    66    11    12    2
    67    29    30    1
    68    30    33    1
    69    19    18    1
    70    18    15    1
    71    33    34    1
    72    15    14    1
    73    15    16    1
    74    34    35    1
    75    28    26   am
    76    36    35    1
    77    16    17    2
    78    27    26    2
    79    26    25    1
    80    25    22    1
    81    21    22    1
    82    22    23    1
    83    23    24    2
