@<TRIPOS>MOLECULE
tmp/4zzeA00.pdb
 119 115 0 0 0
SMALL
GASTEIGER

@<TRIPOS>ATOM
      1  N         -2.1390   34.6670   49.9830 N.3    54  ASN54      -0.1225
      2  CA        -1.3540   33.4460   50.0290 C.3    54  ASN54       0.1785
      3  C         -0.4930   33.3920   48.7650 C.2    54  ASN54       0.2598
      4  O         -0.9370   33.7710   47.6860 O.2    54  ASN54      -0.2718
      5  CB        -2.2450   32.2010   50.1400 C.3    54  ASN54       0.1169
      6  CG        -1.4400   30.9070   50.2870 C.2    54  ASN54       0.2627
      7  OD1       -0.5730   30.7770   51.1630 O.2    54  ASN54      -0.2716
      8  ND2       -1.7170   29.9550   49.4230 N.am   54  ASN54      -0.0877
      9  N          0.7440   32.9350   48.9060 N.am   55  GLY55      -0.1942
     10  CA         1.6340   32.8120   47.7650 C.3    55  GLY55       0.2014
     11  C          1.3690   31.5800   46.9160 C.2    55  GLY55       0.2638
     12  O          2.0850   30.5890   47.0280 O.2    55  GLY55      -0.2714
     13  N          0.3410   31.6290   46.0740 N.am   56  ASP56      -0.1971
     14  CA         0.0140   30.4870   45.2140 C.3    56  ASP56       0.1709
     15  C         -0.2480   30.9390   43.7730 C.2    56  ASP56       0.2293
     16  O          0.1470   32.0400   43.3790 O.2    56  ASP56      -0.2864
     17  CB        -1.1730   29.6970   45.8010 C.3    56  ASP56       0.1436
     18  CG        -2.4880   30.4870   45.8410 C.2    56  ASP56       0.3671
     19  OD1       -2.5060   31.7010   45.5420 O.co2  56  ASP56      -0.2456
     20  OD2       -3.5250   29.8690   46.1870 O.co2  56  ASP56      -0.2456
     21  N          5.5650   28.9550   55.4280 N.3   110  ASN110     -0.1240
     22  CA         4.9500   27.7600   55.9680 C.3   110  ASN110      0.1653
     23  C          5.7600   26.5320   55.5870 C.2   110  ASN110      0.2266
     24  O          6.8130   26.6370   54.9660 O.2   110  ASN110     -0.2867
     25  CB         3.5130   27.6270   55.4570 C.3   110  ASN110      0.1155
     26  CG         3.4320   27.6350   53.9440 C.2   110  ASN110      0.2627
     27  OD1        4.3260   27.1330   53.2650 O.2   110  ASN110     -0.2716
     28  ND2        2.3620   28.2100   53.4090 N.am  110  ASN110     -0.0877
     29  N          4.6540   22.1650   54.5540 N.3   112  SER112     -0.1217
     30  CA         3.6360   21.1370   54.4560 C.3   112  SER112      0.1889
     31  C          4.2240   19.8290   54.9550 C.2   112  SER112      0.2288
     32  O          5.3690   19.5080   54.6630 O.2   112  SER112     -0.2866
     33  CB         3.1430   20.9990   53.0170 C.3   112  SER112      0.2089
     34  OG         1.9210   20.2830   52.9670 O.3   112  SER112     -0.2183
     35  N        -10.0340   21.3660   50.1020 N.3   161  TRP161     -0.1241
     36  CA        -8.6960   21.9330   49.9820 C.3   161  TRP161      0.1605
     37  C         -7.6770   21.2300   50.8800 C.2   161  TRP161      0.2264
     38  O         -6.4970   21.1640   50.5440 O.2   161  TRP161     -0.2867
     39  CB        -8.7200   23.4370   50.2830 C.3   161  TRP161      0.0550
     40  CG        -8.9270   23.8410   51.7260 C.ar  161  TRP161      0.0003
     41  CD1      -10.0960   24.2370   52.3040 C.ar  161  TRP161      0.0946
     42  CD2       -7.9270   23.9330   52.7540 C.ar  161  TRP161      0.0152
     43  NE1       -9.8930   24.5560   53.6240 N.ar  161  TRP161     -0.2442
     44  CE2       -8.5680   24.3780   53.9250 C.ar  161  TRP161      0.0810
     45  CE3       -6.5510   23.6720   52.7930 C.ar  161  TRP161      0.0012
     46  CZ2       -7.8860   24.5680   55.1310 C.ar  161  TRP161      0.0191
     47  CZ3       -5.8730   23.8640   53.9940 C.ar  161  TRP161      0.0001
     48  CH2       -6.5430   24.3020   55.1470 C.ar  161  TRP161      0.0015
     49  N         -5.3120   18.6400   49.5560 N.3   164  GLN164     -0.1231
     50  CA        -4.1960   19.0860   48.7370 C.3   164  GLN164      0.1698
     51  C         -2.9040   19.0830   49.5400 C.2   164  GLN164      0.2592
     52  O         -1.8180   19.0590   48.9640 O.2   164  GLN164     -0.2718
     53  CB        -4.4700   20.4790   48.1630 C.3   164  GLN164      0.0381
     54  CG        -5.6560   20.4950   47.2010 C.3   164  GLN164      0.0905
     55  CD        -6.0570   21.8850   46.7590 C.2   164  GLN164      0.2608
     56  OE1       -7.2300   22.2440   46.8070 O.2   164  GLN164     -0.2717
     57  NE2       -5.0880   22.6660   46.3030 N.am  164  GLN164     -0.0878
     58  N         -3.0080   19.0880   50.8650 N.am  165  ALA165     -0.1980
     59  CA        -1.8120   19.1920   51.6920 C.3   165  ALA165      0.1597
     60  C         -0.9340   17.9390   51.6110 C.2   165  ALA165      0.2287
     61  O          0.2610   18.0540   51.3520 O.2   165  ALA165     -0.2864
     62  CB        -2.1830   19.5040   53.1410 C.3   165  ALA165      0.0319
     63  N          0.3820   26.1820   59.0500 N.3   236  TYR236     -0.1241
     64  CA        -0.7200   27.1450   59.1850 C.3   236  TYR236      0.1605
     65  C         -1.8480   26.6340   60.0890 C.2   236  TYR236      0.2264
     66  O         -2.6370   27.4220   60.6060 O.2   236  TYR236     -0.2867
     67  CB        -1.2990   27.4870   57.8000 C.3   236  TYR236      0.0534
     68  CG        -1.5340   26.2480   56.9710 C.ar  236  TYR236     -0.0201
     69  CD1       -2.6720   25.4680   57.1560 C.ar  236  TYR236     -0.0009
     70  CD2       -0.5870   25.8220   56.0490 C.ar  236  TYR236     -0.0009
     71  CE1       -2.8690   24.3160   56.4280 C.ar  236  TYR236      0.0417
     72  CE2       -0.7780   24.6750   55.3170 C.ar  236  TYR236      0.0417
     73  CZ        -1.9140   23.9220   55.5170 C.ar  236  TYR236      0.1957
     74  OH        -2.0890   22.7730   54.7990 O.3   236  TYR236     -0.2866
     75  N          5.6670   30.5600   50.6010 N.3   270  ASP270     -0.1225
     76  CA         5.3510   31.8430   51.2040 C.3   270  ASP270      0.1805
     77  C          3.8850   31.8290   51.6010 C.2   270  ASP270      0.2597
     78  O          2.9990   31.9250   50.7490 O.2   270  ASP270     -0.2718
     79  CB         5.6370   32.9820   50.2360 C.3   270  ASP270      0.1424
     80  CG         7.1200   33.1910   49.9870 C.2   270  ASP270      0.3668
     81  OD1        7.9520   32.5770   50.6850 O.co2 270  ASP270     -0.2456
     82  OD2        7.4610   34.0030   49.0980 O.co2 270  ASP270     -0.2456
     83  N          3.6260   31.6800   52.8930 N.am  271  ASP271     -0.1974
     84  CA         2.2570   31.5680   53.3860 C.3   271  ASP271      0.1709
     85  C          1.4890   32.8670   53.2470 C.2   271  ASP271      0.2293
     86  O          0.3090   32.8730   52.9140 O.2   271  ASP271     -0.2864
     87  CB         2.2530   31.1490   54.8440 C.3   271  ASP271      0.1436
     88  CG         0.8860   30.7000   55.3040 C.2   271  ASP271      0.3671
     89  OD1        0.3330   29.7490   54.7120 O.co2 271  ASP271     -0.2456
     90  OD2        0.3500   31.3220   56.2340 O.co2 271  ASP271     -0.2456
     91  N          5.1210   24.0810   46.5870 N.3   337  PHE337     -0.1241
     92  CA         3.8430   23.3870   46.5560 C.3   337  PHE337      0.1605
     93  C          3.5150   23.0230   45.1240 C.2   337  PHE337      0.2264
     94  O          3.5360   23.8860   44.2490 O.2   337  PHE337     -0.2867
     95  CB         2.7120   24.2540   47.1120 C.3   337  PHE337      0.0534
     96  CG         2.6940   24.3510   48.5940 C.ar  337  PHE337     -0.0203
     97  CD1        3.4630   25.2940   49.2460 C.ar  337  PHE337     -0.0042
     98  CD2        1.8910   23.5020   49.3440 C.ar  337  PHE337     -0.0042
     99  CE1        3.4420   25.3840   50.6280 C.ar  337  PHE337     -0.0003
    100  CE2        1.8700   23.5870   50.7220 C.ar  337  PHE337     -0.0003
    101  CZ         2.6450   24.5290   51.3630 C.ar  337  PHE337     -0.0000
    102  N          0.6750   22.4280   43.8060 N.3   339  ASP339     -0.1225
    103  CA        -0.5400   23.0320   43.2750 C.3   339  ASP339      0.1805
    104  C         -0.3310   24.5030   42.9060 C.2   339  ASP339      0.2597
    105  O         -1.2230   25.1250   42.3420 O.2   339  ASP339     -0.2718
    106  CB        -1.7420   22.8590   44.2450 C.3   339  ASP339      0.1424
    107  CG        -1.4750   23.3480   45.6640 C.2   339  ASP339      0.3668
    108  OD1       -0.5010   24.0880   45.8970 O.co2 339  ASP339     -0.2456
    109  OD2       -2.2880   22.9990   46.5630 O.co2 339  ASP339     -0.2456
    110  N          0.8660   25.0370   43.1540 N.am  340  HIS340     -0.1975
    111  CA         1.2300   26.3590   42.6500 C.3   340  HIS340      0.1656
    112  C          1.4540   26.3370   41.1380 C.2   340  HIS340      0.2291
    113  O          1.6090   27.3770   40.5100 O.2   340  HIS340     -0.2864
    114  CB         2.4710   26.8840   43.3720 C.3   340  HIS340      0.0771
    115  CG         2.2270   27.1750   44.8240 C.ar  340  HIS340      0.0820
    116  ND1        3.2290   27.5620   45.6880 N.ar  340  HIS340     -0.2267
    117  CD2        1.0920   27.1250   45.5560 C.ar  340  HIS340      0.1154
    118  CE1        2.7160   27.7400   46.8940 C.ar  340  HIS340      0.1986
    119  NE2        1.4260   27.4760   46.8460 N.ar  340  HIS340     -0.2212
@<TRIPOS>BOND
     1   113   112    2
     2   112   111    1
     3   105   104    2
     4   111   110    1
     5   111   114    1
     6   104   110   am
     7   104   103    1
     8   103   102    1
     9   103   106    1
    10   114   115    1
    11    16    15    2
    12    15    14    1
    13   106   107    1
    14    94    93    2
    15   115   117   ar
    16   115   116   ar
    17    93    92    1
    18    14    17    1
    19    14    13    1
    20    19    18   ar
    21   117   119   ar
    22   107   108   ar
    23   107   109   ar
    24   116   118   ar
    25    17    18    1
    26    18    20   ar
    27    13    11   am
    28    57    55   am
    29    92    91    1
    30    92    95    1
    31    55    56    2
    32    55    54    1
    33   119   118   ar
    34    11    12    2
    35    11    10    1
    36    95    96    1
    37    54    53    1
    38     4     3    2
    39    10     9    1
    40    53    50    1
    41    96    97   ar
    42    96    98   ar
    43    50    51    1
    44    50    49    1
    45     3     9   am
    46     3     2    1
    47    52    51    2
    48    82    80   ar
    49    97    99   ar
    50    98   100   ar
    51     8     6   am
    52    51    58   am
    53    36    35    1
    54    36    39    1
    55    36    37    1
    56     1     2    1
    57    80    79    1
    58    80    81   ar
    59     2     5    1
    60     5     6    1
    61    79    76    1
    62    39    40    1
    63     6     7    2
    64    38    37    2
    65    75    76    1
    66    99   101   ar
    67   100   101   ar
    68    78    77    2
    69    58    59    1
    70    76    77    1
    71    61    60    2
    72    77    83   am
    73    60    59    1
    74    59    62    1
    75    40    41   ar
    76    40    42   ar
    77    41    43   ar
    78    42    45   ar
    79    42    44   ar
    80    45    47   ar
    81    83    84    1
    82    86    85    2
    83    34    33    1
    84    33    30    1
    85    85    84    1
    86    27    26    2
    87    84    87    1
    88    28    26   am
    89    43    44   ar
    90    44    46   ar
    91    26    25    1
    92    47    48   ar
    93    30    29    1
    94    30    31    1
    95    32    31    2
    96    89    88   ar
    97    74    73    1
    98    87    88    1
    99    24    23    2
   100    46    48   ar
   101    88    90   ar
   102    72    73   ar
   103    72    70   ar
   104    21    22    1
   105    25    22    1
   106    73    71   ar
   107    23    22    1
   108    70    68   ar
   109    71    69   ar
   110    68    69   ar
   111    68    67    1
   112    67    64    1
   113    63    64    1
   114    64    65    1
   115    65    66    2
