@<TRIPOS>MOLECULE
tmp/4zzeA01.pdb
 112 109 0 0 0
SMALL
GASTEIGER

@<TRIPOS>ATOM
      1  N         -6.4470   38.2880   53.6040 N.3     9  PHE9       -0.1227
      2  CA        -6.9930   37.0100   53.1400 C.3     9  PHE9        0.1736
      3  C         -7.1540   35.9590   54.2360 C.2     9  PHE9        0.2595
      4  O         -8.0210   35.0900   54.1380 O.2     9  PHE9       -0.2718
      5  CB        -6.1090   36.4230   52.0220 C.3     9  PHE9        0.0547
      6  CG        -4.9740   35.5680   52.5210 C.ar    9  PHE9       -0.0202
      7  CD1       -3.7660   36.1320   52.8820 C.ar    9  PHE9       -0.0042
      8  CD2       -5.1150   34.1900   52.6180 C.ar    9  PHE9       -0.0042
      9  CE1       -2.7260   35.3410   53.3380 C.ar    9  PHE9       -0.0003
     10  CE2       -4.0840   33.4040   53.0800 C.ar    9  PHE9       -0.0003
     11  CZ        -2.8860   33.9830   53.4330 C.ar    9  PHE9       -0.0000
     12  N         -6.3200   36.0300   55.2660 N.am   10  LYS10      -0.1980
     13  CA        -6.1110   34.8860   56.1530 C.3    10  LYS10       0.1596
     14  C         -7.0550   34.8730   57.3540 C.2    10  LYS10       0.2287
     15  O         -6.9030   35.6600   58.2820 O.2    10  LYS10      -0.2864
     16  CB        -4.6620   34.8680   56.6380 C.3    10  LYS10       0.0298
     17  CG        -4.2190   33.5170   57.1820 C.3    10  LYS10       0.0038
     18  CD        -2.8690   33.6020   57.8660 C.3    10  LYS10       0.0206
     19  CE        -1.8440   32.6620   57.2670 C.3    10  LYS10       0.1093
     20  NZ        -2.1680   31.2170   57.4240 N.3    10  LYS10      -0.1314
     21  N         -7.3530   32.6260   59.6830 N.3    12  GLU12      -0.1245
     22  CA        -6.6950   32.1350   60.8990 C.3    12  GLU12       0.1567
     23  C         -5.8940   33.2110   61.6270 C.2    12  GLU12       0.2260
     24  O         -5.5600   33.0430   62.8000 O.2    12  GLU12      -0.2867
     25  CB        -5.7580   30.9690   60.5800 C.3    12  GLU12       0.0388
     26  CG        -6.4440   29.7030   60.0800 C.3    12  GLU12       0.1160
     27  CD        -6.5020   29.6210   58.5670 C.2    12  GLU12       0.3649
     28  OE1       -6.5430   30.6840   57.9070 O.co2  12  GLU12      -0.2457
     29  OE2       -6.5050   28.4880   58.0380 O.co2  12  GLU12      -0.2457
     30  N         -2.1390   34.6670   49.9830 N.3    54  ASN54      -0.1240
     31  CA        -1.3540   33.4460   50.0290 C.3    54  ASN54       0.1653
     32  C         -0.4930   33.3920   48.7650 C.2    54  ASN54       0.2266
     33  O         -0.9370   33.7710   47.6860 O.2    54  ASN54      -0.2867
     34  CB        -2.2450   32.2010   50.1400 C.3    54  ASN54       0.1155
     35  CG        -1.4400   30.9070   50.2870 C.2    54  ASN54       0.2627
     36  OD1       -0.5730   30.7770   51.1630 O.2    54  ASN54      -0.2716
     37  ND2       -1.7170   29.9550   49.4230 N.am   54  ASN54      -0.0877
     38  N          5.5650   28.9550   55.4280 N.3   110  ASN110     -0.1240
     39  CA         4.9500   27.7600   55.9680 C.3   110  ASN110      0.1653
     40  C          5.7600   26.5320   55.5870 C.2   110  ASN110      0.2266
     41  O          6.8130   26.6370   54.9660 O.2   110  ASN110     -0.2867
     42  CB         3.5130   27.6270   55.4570 C.3   110  ASN110      0.1155
     43  CG         3.4320   27.6350   53.9440 C.2   110  ASN110      0.2627
     44  OD1        4.3260   27.1330   53.2650 O.2   110  ASN110     -0.2716
     45  ND2        2.3620   28.2100   53.4090 N.am  110  ASN110     -0.0877
     46  N        -10.0340   21.3660   50.1020 N.3   161  TRP161     -0.1241
     47  CA        -8.6960   21.9330   49.9820 C.3   161  TRP161      0.1605
     48  C         -7.6770   21.2300   50.8800 C.2   161  TRP161      0.2264
     49  O         -6.4970   21.1640   50.5440 O.2   161  TRP161     -0.2867
     50  CB        -8.7200   23.4370   50.2830 C.3   161  TRP161      0.0550
     51  CG        -8.9270   23.8410   51.7260 C.ar  161  TRP161      0.0003
     52  CD1      -10.0960   24.2370   52.3040 C.ar  161  TRP161      0.0946
     53  CD2       -7.9270   23.9330   52.7540 C.ar  161  TRP161      0.0152
     54  NE1       -9.8930   24.5560   53.6240 N.ar  161  TRP161     -0.2442
     55  CE2       -8.5680   24.3780   53.9250 C.ar  161  TRP161      0.0810
     56  CE3       -6.5510   23.6720   52.7930 C.ar  161  TRP161      0.0012
     57  CZ2       -7.8860   24.5680   55.1310 C.ar  161  TRP161      0.0191
     58  CZ3       -5.8730   23.8640   53.9940 C.ar  161  TRP161      0.0001
     59  CH2       -6.5430   24.3020   55.1470 C.ar  161  TRP161      0.0015
     60  N        -12.3620   21.0590   58.4250 N.3   216  TYR216     -0.1241
     61  CA       -11.0740   21.5730   58.8630 C.3   216  TYR216      0.1605
     62  C        -11.1130   21.9180   60.3480 C.2   216  TYR216      0.2264
     63  O        -10.2800   21.4520   61.1220 O.2   216  TYR216     -0.2867
     64  CB       -10.7250   22.7890   57.9960 C.3   216  TYR216      0.0534
     65  CG        -9.4880   23.5840   58.3580 C.ar  216  TYR216     -0.0201
     66  CD1       -8.2810   22.9660   58.6230 C.ar  216  TYR216     -0.0009
     67  CD2       -9.5260   24.9770   58.3640 C.ar  216  TYR216     -0.0009
     68  CE1       -7.1390   23.7220   58.9210 C.ar  216  TYR216      0.0417
     69  CE2       -8.4100   25.7270   58.6580 C.ar  216  TYR216      0.0417
     70  CZ        -7.2170   25.0960   58.9370 C.ar  216  TYR216      0.1957
     71  OH        -6.0980   25.8420   59.2290 O.3   216  TYR216     -0.2866
     72  N          0.3820   26.1820   59.0500 N.3   236  TYR236     -0.1241
     73  CA        -0.7200   27.1450   59.1850 C.3   236  TYR236      0.1605
     74  C         -1.8480   26.6340   60.0890 C.2   236  TYR236      0.2264
     75  O         -2.6370   27.4220   60.6060 O.2   236  TYR236     -0.2867
     76  CB        -1.2990   27.4870   57.8000 C.3   236  TYR236      0.0534
     77  CG        -1.5340   26.2480   56.9710 C.ar  236  TYR236     -0.0201
     78  CD1       -2.6720   25.4680   57.1560 C.ar  236  TYR236     -0.0009
     79  CD2       -0.5870   25.8220   56.0490 C.ar  236  TYR236     -0.0009
     80  CE1       -2.8690   24.3160   56.4280 C.ar  236  TYR236      0.0417
     81  CE2       -0.7780   24.6750   55.3170 C.ar  236  TYR236      0.0417
     82  CZ        -1.9140   23.9220   55.5170 C.ar  236  TYR236      0.1957
     83  OH        -2.0890   22.7730   54.7990 O.3   236  TYR236     -0.2866
     84  N          3.6260   31.6800   52.8930 N.3   271  ASP271     -0.1239
     85  CA         2.2570   31.5680   53.3860 C.3   271  ASP271      0.1674
     86  C          1.4890   32.8670   53.2470 C.2   271  ASP271      0.2266
     87  O          0.3090   32.8730   52.9140 O.2   271  ASP271     -0.2867
     88  CB         2.2530   31.1490   54.8440 C.3   271  ASP271      0.1410
     89  CG         0.8860   30.7000   55.3040 C.2   271  ASP271      0.3668
     90  OD1        0.3330   29.7490   54.7120 O.co2 271  ASP271     -0.2456
     91  OD2        0.3500   31.3220   56.2340 O.co2 271  ASP271     -0.2456
     92  N          5.1210   24.0810   46.5870 N.3   337  PHE337     -0.1241
     93  CA         3.8430   23.3870   46.5560 C.3   337  PHE337      0.1605
     94  C          3.5150   23.0230   45.1240 C.2   337  PHE337      0.2264
     95  O          3.5360   23.8860   44.2490 O.2   337  PHE337     -0.2867
     96  CB         2.7120   24.2540   47.1120 C.3   337  PHE337      0.0534
     97  CG         2.6940   24.3510   48.5940 C.ar  337  PHE337     -0.0203
     98  CD1        3.4630   25.2940   49.2460 C.ar  337  PHE337     -0.0042
     99  CD2        1.8910   23.5020   49.3440 C.ar  337  PHE337     -0.0042
    100  CE1        3.4420   25.3840   50.6280 C.ar  337  PHE337     -0.0003
    101  CE2        1.8700   23.5870   50.7220 C.ar  337  PHE337     -0.0003
    102  CZ         2.6450   24.5290   51.3630 C.ar  337  PHE337     -0.0000
    103  N          0.8660   25.0370   43.1540 N.3   340  HIS340     -0.1241
    104  CA         1.2300   26.3590   42.6500 C.3   340  HIS340      0.1621
    105  C          1.4540   26.3370   41.1380 C.2   340  HIS340      0.2264
    106  O          1.6090   27.3770   40.5100 O.2   340  HIS340     -0.2867
    107  CB         2.4710   26.8840   43.3720 C.3   340  HIS340      0.0745
    108  CG         2.2270   27.1750   44.8240 C.ar  340  HIS340      0.0817
    109  ND1        3.2290   27.5620   45.6880 N.ar  340  HIS340     -0.2268
    110  CD2        1.0920   27.1250   45.5560 C.ar  340  HIS340      0.1154
    111  CE1        2.7160   27.7400   46.8940 C.ar  340  HIS340      0.1986
    112  NE2        1.4260   27.4760   46.8460 N.ar  340  HIS340     -0.2212
@<TRIPOS>BOND
     1   106   105    2
     2   105   104    1
     3   104   103    1
     4   104   107    1
     5   107   108    1
     6    95    94    2
     7   108   110   ar
     8   108   109   ar
     9    94    93    1
    10   110   112   ar
    11   109   111   ar
    12    93    92    1
    13    93    96    1
    14   112   111   ar
    15    96    97    1
    16    33    32    2
    17    97    98   ar
    18    97    99   ar
    19    32    31    1
    20    98   100   ar
    21    99   101   ar
    22    37    35   am
    23    47    46    1
    24    47    50    1
    25    47    48    1
    26    30    31    1
    27    31    34    1
    28    34    35    1
    29    50    51    1
    30    35    36    2
    31    49    48    2
    32   100   102   ar
    33   101   102   ar
    34    51    52   ar
    35    51    53   ar
    36     5     6    1
    37     5     2    1
    38    52    54   ar
    39     6     8   ar
    40     6     7   ar
    41     8    10   ar
    42    53    56   ar
    43    53    55   ar
    44    56    58   ar
    45     7     9   ar
    46    84    85    1
    47    87    86    2
    48    10    11   ar
    49     2     1    1
    50     2     3    1
    51    86    85    1
    52    44    43    2
    53     9    11   ar
    54    85    88    1
    55    45    43   am
    56    54    55   ar
    57    55    57   ar
    58    43    42    1
    59    58    59   ar
    60     4     3    2
    61     3    12   am
    62    90    89   ar
    63    83    82    1
    64    88    89    1
    65    41    40    2
    66    57    59   ar
    67    12    13    1
    68    89    91   ar
    69    81    82   ar
    70    81    79   ar
    71    38    39    1
    72    42    39    1
    73    82    80   ar
    74    40    39    1
    75    79    77   ar
    76    13    16    1
    77    13    14    1
    78    80    78   ar
    79    16    17    1
    80    77    78   ar
    81    77    76    1
    82    17    18    1
    83    19    20    1
    84    19    18    1
    85    14    15    2
    86    76    73    1
    87    28    27   ar
    88    64    65    1
    89    64    61    1
    90    29    27   ar
    91    65    67   ar
    92    65    66   ar
    93    67    69   ar
    94    60    61    1
    95    27    26    1
    96    66    68   ar
    97    69    70   ar
    98    61    62    1
    99    68    70   ar
   100    70    71    1
   101    72    73    1
   102    73    74    1
   103    21    22    1
   104    26    25    1
   105    74    75    2
   106    62    63    2
   107    25    22    1
   108    22    23    1
   109    23    24    2
