@<TRIPOS>MOLECULE
tmp/4zzhA00.pdb
 102 96 0 0 0
SMALL
GASTEIGER

@<TRIPOS>ATOM
      1  N         18.3250  -58.9890    9.6800 N.3    20  LEU20      -0.1245
      2  CA        18.7320  -59.1940    8.2940 C.3    20  LEU20       0.1561
      3  C         18.1490  -60.4660    7.6680 C.2    20  LEU20       0.2260
      4  O         17.8830  -60.5020    6.4660 O.2    20  LEU20      -0.2867
      5  CB        20.2530  -59.2330    8.2000 C.3    20  LEU20       0.0270
      6  CG        20.9610  -57.8890    8.2910 C.3    20  LEU20       0.0019
      7  CD1       22.4590  -58.0870    8.1590 C.3    20  LEU20       0.0001
      8  CD2       20.4460  -56.9560    7.2150 C.3    20  LEU20       0.0001
      9  N         16.7930  -59.3720    4.3030 N.3    24  LEU24      -0.1245
     10  CA        17.4380  -60.0450    3.1870 C.3    24  LEU24       0.1561
     11  C         17.1880  -61.5280    3.2810 C.2    24  LEU24       0.2260
     12  O         18.0790  -62.2820    3.6670 O.2    24  LEU24      -0.2867
     13  CB        18.9400  -59.7800    3.1720 C.3    24  LEU24       0.0270
     14  CG        19.4040  -58.3270    3.1580 C.3    24  LEU24       0.0019
     15  CD1       20.9250  -58.2620    3.0850 C.3    24  LEU24       0.0001
     16  CD2       18.7740  -57.5950    1.9910 C.3    24  LEU24       0.0001
     17  N         19.4300  -64.4660    1.3040 N.3    27  THR27      -0.1203
     18  CA        20.7320  -63.8130    1.3130 C.3    27  THR27       0.1994
     19  C         21.3590  -64.0130    2.6910 C.2    27  THR27       0.2618
     20  O         20.7820  -63.6200    3.7130 O.2    27  THR27      -0.2717
     21  CB        20.6660  -62.2890    1.0140 C.3    27  THR27       0.1784
     22  OG1       19.5860  -61.9700    0.1180 O.3    27  THR27      -0.2211
     23  CG2       21.9850  -61.8310    0.4270 C.3    27  THR27       0.0376
     24  N         22.5330  -64.6300    2.7290 N.am   28  ILE28      -0.1966
     25  CA        23.2150  -64.8240    4.0010 C.3    28  ILE28       0.1712
     26  C         24.5560  -64.1120    4.0070 C.2    28  ILE28       0.2458
     27  O         25.4950  -64.5170    3.3090 O.2    28  ILE28      -0.2730
     28  CB        23.4150  -66.3140    4.3350 C.3    28  ILE28       0.0289
     29  CG1       22.0530  -66.9840    4.5280 C.3    28  ILE28       0.0022
     30  CG2       24.2490  -66.4650    5.6000 C.3    28  ILE28       0.0023
     31  CD1       22.1270  -68.3570    5.1290 C.3    28  ILE28       0.0001
     32  N         24.6400  -63.0350    4.8030 N.am   29  PRO29      -0.2716
     33  CA        25.8090  -62.1560    4.9220 C.3    29  PRO29       0.1521
     34  C         27.0150  -62.8900    5.4700 C.2    29  PRO29       0.2440
     35  O         26.8780  -63.6330    6.4440 O.2    29  PRO29      -0.2731
     36  CB        25.3420  -61.0670    5.8940 C.3    29  PRO29       0.0310
     37  CG        24.1450  -61.6320    6.5820 C.3    29  PRO29       0.0237
     38  CD        23.5080  -62.5740    5.6250 C.3    29  PRO29       0.0939
     39  N         28.1870  -62.6800    4.8520 N.am   30  PRO30      -0.2727
     40  CA        29.4270  -63.3970    5.1740 C.3    30  PRO30       0.1402
     41  C         29.7150  -63.4050    6.6750 C.2    30  PRO30       0.2269
     42  O         29.2720  -62.5060    7.3860 O.2    30  PRO30      -0.2865
     43  CB        30.4930  -62.6090    4.4110 C.3    30  PRO30       0.0296
     44  CG        29.7530  -61.9670    3.2900 C.3    30  PRO30       0.0237
     45  CD        28.3880  -61.6570    3.8130 C.3    30  PRO30       0.0939
     46  N         31.8670  -60.4220    8.8150 N.3    33  LEU33      -0.1245
     47  CA        31.3430  -59.0650    8.8780 C.3    33  LEU33       0.1561
     48  C         31.1800  -58.5920   10.3130 C.2    33  LEU33       0.2260
     49  O         30.5460  -59.2560   11.1370 O.2    33  LEU33      -0.2867
     50  CB        30.0040  -58.9570    8.1500 C.3    33  LEU33       0.0270
     51  CG        30.0320  -58.8370    6.6250 C.3    33  LEU33       0.0019
     52  CD1       28.7070  -58.3110    6.1060 C.3    33  LEU33       0.0001
     53  CD2       31.1670  -57.9470    6.1790 C.3    33  LEU33       0.0001
     54  N         28.9410  -53.2000   11.3510 N.3    37  THR37      -0.1218
     55  CA        28.8010  -53.1560    9.8970 C.3    37  THR37       0.1862
     56  C         27.4430  -53.7090    9.4810 C.2    37  THR37       0.2287
     57  O         26.7610  -53.1350    8.6310 O.2    37  THR37      -0.2866
     58  CB        29.9070  -53.9540    9.1850 C.3    37  THR37       0.1770
     59  OG1       31.1890  -53.4960    9.6190 O.3    37  THR37      -0.2211
     60  CG2       29.8060  -53.7850    7.6840 C.3    37  THR37       0.0375
     61  N         24.8330  -51.2140   10.0540 N.3    40  GLN40      -0.1231
     62  CA        24.8840  -50.1360    9.0950 C.3    40  GLN40       0.1698
     63  C         24.0980  -50.5550    7.8490 C.2    40  GLN40       0.2592
     64  O         23.2950  -49.7740    7.3180 O.2    40  GLN40      -0.2718
     65  CB        26.3310  -49.7710    8.7720 C.3    40  GLN40       0.0381
     66  CG        26.9440  -48.8470    9.8050 C.3    40  GLN40       0.0905
     67  CD        28.4380  -48.6920    9.6560 C.2    40  GLN40       0.2608
     68  OE1       29.0640  -49.2890    8.7740 O.2    40  GLN40      -0.2717
     69  NE2       29.0250  -47.8840   10.5260 N.am   40  GLN40      -0.0878
     70  N         24.3050  -51.8010    7.4250 N.am   41  ILE41      -0.1980
     71  CA        23.5220  -52.4040    6.3610 C.3    41  ILE41       0.1595
     72  C         22.0330  -52.3440    6.6540 C.2    41  ILE41       0.2287
     73  O         21.2310  -52.0950    5.7630 O.2    41  ILE41      -0.2864
     74  CB        23.9020  -53.8650    6.1540 C.3    41  ILE41       0.0276
     75  CG1       25.3720  -53.9840    5.7690 C.3    41  ILE41       0.0022
     76  CG2       23.0010  -54.5250    5.1180 C.3    41  ILE41       0.0022
     77  CD1       25.7910  -55.4020    5.5010 C.3    41  ILE41       0.0001
     78  N         20.8400  -48.8560    6.0690 N.3    44  ASN44      -0.1225
     79  CA        20.8400  -48.6180    4.6220 C.3    44  ASN44       0.1785
     80  C         19.6090  -49.1720    3.9100 C.2    44  ASN44       0.2597
     81  O         18.9990  -48.4850    3.0920 O.2    44  ASN44      -0.2718
     82  CB        22.0970  -49.2150    3.9860 C.3    44  ASN44       0.1169
     83  CG        23.3310  -48.3830    4.2520 C.2    44  ASN44       0.2627
     84  OD1       23.2360  -47.2170    4.6380 O.2    44  ASN44      -0.2716
     85  ND2       24.4980  -48.9710    4.0410 N.am   44  ASN44      -0.0877
     86  N         19.2530  -50.4160    4.2120 N.am   45  ILE45      -0.1980
     87  CA        18.1020  -51.0470    3.5860 C.3    45  ILE45       0.1595
     88  C         16.8330  -50.2960    3.9470 C.2    45  ILE45       0.2287
     89  O         16.0510  -49.9460    3.0750 O.2    45  ILE45      -0.2864
     90  CB        17.9710  -52.5210    3.9980 C.3    45  ILE45       0.0276
     91  CG1       19.1850  -53.3200    3.5230 C.3    45  ILE45       0.0022
     92  CG2       16.6930  -53.1300    3.4330 C.3    45  ILE45       0.0022
     93  CD1       19.2400  -54.7180    4.0920 C.3    45  ILE45       0.0001
     94  N         16.8770  -46.6580    2.3510 N.3    48  GLU48      -0.1245
     95  CA        16.8910  -46.5450    0.8980 C.3    48  GLU48       0.1567
     96  C         15.5430  -46.0530    0.3900 C.2    48  GLU48       0.2260
     97  O         14.5150  -46.6980    0.6160 O.2    48  GLU48      -0.2867
     98  CB        17.2380  -47.8830    0.2380 C.3    48  GLU48       0.0388
     99  CG        17.4080  -47.8100   -1.2830 C.3    48  GLU48       0.1160
    100  CD        18.6640  -47.0580   -1.7020 C.2    48  GLU48       0.3649
    101  OE1       19.6150  -46.9670   -0.8930 O.co2  48  GLU48      -0.2457
    102  OE2       18.6920  -46.5460   -2.8420 O.co2  48  GLU48      -0.2457
@<TRIPOS>BOND
     1   102   100   ar
     2   100    99    1
     3   100   101   ar
     4    99    98    1
     5    22    21    1
     6    98    95    1
     7    96    97    2
     8    96    95    1
     9    23    21    1
    10    95    94    1
    11    21    18    1
    12    17    18    1
    13    18    19    1
    14    16    14    1
    15    19    24   am
    16    19    20    2
    17    24    25    1
    18    89    88    2
    19    15    14    1
    20    81    80    2
    21    14    13    1
    22    13    10    1
    23    10    11    1
    24    10     9    1
    25    11    12    2
    26    44    45    1
    27    44    43    1
    28    27    26    2
    29    92    90    1
    30    91    90    1
    31    91    93    1
    32    87    88    1
    33    87    90    1
    34    87    86    1
    35    45    39    1
    36    80    86   am
    37    80    79    1
    38    82    83    1
    39    82    79    1
    40    25    26    1
    41    25    28    1
    42    26    32   am
    43    85    83   am
    44    83    84    2
    45    28    29    1
    46    28    30    1
    47    43    40    1
    48    29    31    1
    49    79    78    1
    50    32    33    1
    51    32    38    1
    52    39    40    1
    53    39    34   am
    54    33    34    1
    55    33    36    1
    56    76    74    1
    57    40    41    1
    58    34    35    2
    59    77    75    1
    60    38    37    1
    61    73    72    2
    62    75    74    1
    63    36    37    1
    64    52    51    1
    65    74    71    1
    66    53    51    1
    67    71    72    1
    68    71    70    1
    69     4     3    2
    70    51    50    1
    71    41    42    2
    72     8     6    1
    73    64    63    2
    74    70    63   am
    75     3     2    1
    76    60    58    1
    77    63    62    1
    78    50    47    1
    79     7     6    1
    80     5     6    1
    81     5     2    1
    82     2     1    1
    83    57    56    2
    84    65    62    1
    85    65    66    1
    86    68    67    2
    87    46    47    1
    88    47    48    1
    89    62    61    1
    90    58    59    1
    91    58    55    1
    92    56    55    1
    93    67    66    1
    94    67    69   am
    95    55    54    1
    96    48    49    2
