@<TRIPOS>MOLECULE
tmp/4zziA01.pdb
 182 178 0 0 0
SMALL
GASTEIGER

@<TRIPOS>ATOM
      1  N          8.9220   41.7810   -0.0560 N.3    80  ALA80      -0.1245
      2  CA        10.2360   41.2380    0.2710 C.3    80  ALA80       0.1562
      3  C         11.0150   42.0860    1.2800 C.2    80  ALA80       0.2260
      4  O         11.9120   41.5810    1.9540 O.2    80  ALA80      -0.2867
      5  CB        11.0500   41.0710   -1.0000 C.3    80  ALA80       0.0290
      6  N         11.7720   41.3440    5.2060 N.3    83  SER83      -0.1217
      7  CA        12.5240   40.1340    5.5320 C.3    83  SER83       0.1889
      8  C         14.0210   40.2440    5.2450 C.2    83  SER83       0.2288
      9  O         14.7820   39.3330    5.5780 O.2    83  SER83      -0.2866
     10  CB        11.9510   38.9350    4.7730 C.3    83  SER83       0.2089
     11  OG        10.7140   38.5180    5.3270 O.3    83  SER83      -0.2183
     12  N         17.0070   37.2810    4.4650 N.3    88  ILE88      -0.1231
     13  CA        16.4890   36.8900    3.1570 C.3    88  ILE88       0.1678
     14  C         16.4540   38.0760    2.2090 C.2    88  ILE88       0.2434
     15  O         15.5840   38.9390    2.3250 O.2    88  ILE88      -0.2733
     16  CB        15.0710   36.3010    3.2550 C.3    88  ILE88       0.0265
     17  CG1       15.0590   35.0970    4.2030 C.3    88  ILE88       0.0019
     18  CG2       14.5630   35.9190    1.8690 C.3    88  ILE88       0.0020
     19  CD1       13.7550   34.9360    4.9610 C.3    88  ILE88       0.0001
     20  N         17.4050   38.1300    1.2670 N.am   89  PRO89      -0.2718
     21  CA        17.3970   39.2260    0.2920 C.3    89  PRO89       0.1535
     22  C         16.2120   39.1250   -0.6570 C.2    89  PRO89       0.2599
     23  O         15.6800   38.0350   -0.8630 O.2    89  PRO89      -0.2715
     24  CB        18.7140   39.0400   -0.4720 C.3    89  PRO89       0.0310
     25  CG        19.5360   38.1210    0.3710 C.3    89  PRO89       0.0237
     26  CD        18.5670   37.2460    1.0960 C.3    89  PRO89       0.0939
     27  N         15.7910   40.2600   -1.2010 N.am   90  ASP90      -0.1958
     28  CA        14.8290   40.2800   -2.2920 C.3    90  ASP90       0.1840
     29  C         15.3750   39.3960   -3.4090 C.2    90  ASP90       0.2622
     30  O         16.5680   39.4550   -3.7090 O.2    90  ASP90      -0.2715
     31  CB        14.6090   41.7180   -2.7730 C.3    90  ASP90       0.1450
     32  CG        13.4510   41.8530   -3.7470 C.2    90  ASP90       0.3671
     33  OD1       13.3860   41.0880   -4.7350 O.co2  90  ASP90      -0.2456
     34  OD2       12.6070   42.7460   -3.5240 O.co2  90  ASP90      -0.2456
     35  N         14.5190   38.5680   -4.0080 N.am   91  PHE91      -0.1960
     36  CA        14.9480   37.6940   -5.1020 C.3    91  PHE91       0.1771
     37  C         15.5510   38.5190   -6.2350 C.2    91  PHE91       0.2619
     38  O         16.4570   38.0700   -6.9380 O.2    91  PHE91      -0.2715
     39  CB        13.7860   36.8600   -5.6640 C.3    91  PHE91       0.0574
     40  CG        13.1330   35.9420   -4.6690 C.ar   91  PHE91      -0.0200
     41  CD1       13.6970   35.7020   -3.4270 C.ar   91  PHE91      -0.0042
     42  CD2       11.9440   35.3050   -4.9900 C.ar   91  PHE91      -0.0042
     43  CE1       13.0840   34.8490   -2.5230 C.ar   91  PHE91      -0.0003
     44  CE2       11.3300   34.4510   -4.0940 C.ar   91  PHE91      -0.0003
     45  CZ        11.9000   34.2210   -2.8580 C.ar   91  PHE91      -0.0000
     46  N         15.0350   39.7330   -6.4000 N.am   92  ARG92      -0.1977
     47  CA        15.3910   40.5810   -7.5290 C.3    92  ARG92       0.1597
     48  C         16.5960   41.4730   -7.2350 C.2    92  ARG92       0.2287
     49  O         17.0230   42.2440   -8.0920 O.2    92  ARG92      -0.2864
     50  CB        14.1860   41.4360   -7.9300 C.3    92  ARG92       0.0334
     51  CG        12.9480   40.6120   -8.2620 C.3    92  ARG92       0.0492
     52  CD        11.6740   41.4290   -8.1320 C.3    92  ARG92       0.2205
     53  NE        11.4750   41.9200   -6.7710 N.pl3  92  ARG92      -0.0865
     54  CZ        10.2940   42.2620   -6.2690 C.cat  92  ARG92       0.5346
     55  NH1       10.2020   42.7000   -5.0200 N.pl3  92  ARG92       0.1354
     56  NH2        9.2020   42.1600   -7.0150 N.pl3  92  ARG92       0.1354
     57  N         17.7090   35.3870   -8.1740 N.3    98  TYR98      -0.1241
     58  CA        17.6120   35.6000   -9.6150 C.3    98  TYR98       0.1605
     59  C         18.9750   35.9780  -10.1730 C.2    98  TYR98       0.2264
     60  O         19.3850   35.4950  -11.2230 O.2    98  TYR98      -0.2867
     61  CB        16.5910   36.6910   -9.9510 C.3    98  TYR98       0.0534
     62  CG        15.1540   36.3790   -9.5820 C.ar   98  TYR98      -0.0201
     63  CD1       14.7380   35.0780   -9.3130 C.ar   98  TYR98      -0.0009
     64  CD2       14.2090   37.3940   -9.5100 C.ar   98  TYR98      -0.0009
     65  CE1       13.4160   34.8020   -8.9740 C.ar   98  TYR98       0.0417
     66  CE2       12.8900   37.1290   -9.1710 C.ar   98  TYR98       0.0417
     67  CZ        12.5000   35.8350   -8.9080 C.ar   98  TYR98       0.1957
     68  OH        11.1890   35.5820   -8.5760 O.3    98  TYR98      -0.2866
     69  N          9.8810   28.7860  -10.1700 N.3   115  PHE115     -0.1241
     70  CA         8.5140   28.6190   -9.7040 C.3   115  PHE115      0.1605
     71  C          7.5640   28.3280  -10.8570 C.2   115  PHE115      0.2264
     72  O          6.4310   28.8000  -10.8630 O.2   115  PHE115     -0.2867
     73  CB         8.0530   29.8670   -8.9540 C.3   115  PHE115      0.0534
     74  CG         9.0050   30.3140   -7.8850 C.ar  115  PHE115     -0.0203
     75  CD1        9.2430   29.5190   -6.7770 C.ar  115  PHE115     -0.0042
     76  CD2        9.6580   31.5300   -7.9860 C.ar  115  PHE115     -0.0042
     77  CE1       10.1180   29.9260   -5.7910 C.ar  115  PHE115     -0.0003
     78  CE2       10.5340   31.9450   -7.0020 C.ar  115  PHE115     -0.0003
     79  CZ        10.7650   31.1410   -5.9050 C.ar  115  PHE115     -0.0000
     80  N         15.8350   29.2460    2.5160 N.3   134  ILE134     -0.1245
     81  CA        14.8560   30.0910    3.1870 C.3   134  ILE134      0.1561
     82  C         13.8280   29.2930    3.9820 C.2   134  ILE134      0.2260
     83  O         12.6920   29.7350    4.1530 O.2   134  ILE134     -0.2867
     84  CB        14.1000   30.9760    2.1770 C.3   134  ILE134      0.0252
     85  CG1       13.4350   30.1080    1.1060 C.3   134  ILE134      0.0019
     86  CG2       15.0430   31.9830    1.5400 C.3   134  ILE134      0.0019
     87  CD1       12.3200   30.8080    0.3680 C.3   134  ILE134      0.0001
     88  N          3.2650   39.1940    0.3530 N.3   163  GLN163     -0.1231
     89  CA         3.7400   38.5750   -0.8770 C.3   163  GLN163      0.1698
     90  C          4.7720   37.5000   -0.5590 C.2   163  GLN163      0.2592
     91  O          5.1190   36.6790   -1.4080 O.2   163  GLN163     -0.2718
     92  CB         4.3430   39.6290   -1.8090 C.3   163  GLN163      0.0381
     93  CG         3.3900   40.7540   -2.1800 C.3   163  GLN163      0.0905
     94  CD         4.0820   41.8720   -2.9380 C.2   163  GLN163      0.2608
     95  OE1        4.9810   42.5280   -2.4120 O.2   163  GLN163     -0.2717
     96  NE2        3.6750   42.0840   -4.1850 N.am  163  GLN163     -0.0878
     97  N          5.2540   37.5130    0.6780 N.am  164  ASN164     -0.1960
     98  CA         6.3270   36.6230    1.0930 C.3   164  ASN164      0.1819
     99  C          5.8900   35.1680    1.1930 C.2   164  ASN164      0.2621
    100  O          4.7430   34.8680    1.5300 O.2   164  ASN164     -0.2715
    101  CB         6.9030   37.0850    2.4340 C.3   164  ASN164      0.1195
    102  CG         7.5210   38.4700    2.3550 C.2   164  ASN164      0.2630
    103  OD1        7.8310   38.9700    1.2660 O.2   164  ASN164     -0.2716
    104  ND2        7.7040   39.0990    3.5090 N.am  164  ASN164     -0.0877
    105  N          6.8170   34.2670    0.8890 N.am  165  ILE165     -0.1963
    106  CA         6.5700   32.8410    1.0260 C.3   165  ILE165      0.1727
    107  C          7.3960   32.2790    2.1730 C.2   165  ILE165      0.2616
    108  O          7.3420   31.0830    2.4540 O.2   165  ILE165     -0.2715
    109  CB         6.9110   32.0720   -0.2680 C.3   165  ILE165      0.0290
    110  CG1        8.4260   32.0330   -0.4830 C.3   165  ILE165      0.0022
    111  CG2        6.2030   32.6890   -1.4660 C.3   165  ILE165      0.0023
    112  CD1        8.8350   31.5590   -1.8540 C.3   165  ILE165      0.0001
    113  N          8.1520   33.1460    2.8420 N.am  166  ASP166     -0.1971
    114  CA         9.0710   32.7010    3.8890 C.3   166  ASP166      0.1709
    115  C          8.3640   32.2600    5.1690 C.2   166  ASP166      0.2293
    116  O          9.0070   31.7540    6.0850 O.2   166  ASP166     -0.2864
    117  CB        10.0920   33.8020    4.2170 C.3   166  ASP166      0.1436
    118  CG         9.4480   35.0880    4.7300 C.2   166  ASP166      0.3671
    119  OD1        8.4170   35.0380    5.4360 O.co2 166  ASP166     -0.2456
    120  OD2        9.9950   36.1710    4.4320 O.co2 166  ASP166     -0.2456
    121  N          0.9600   34.6430   -2.5610 N.3   181  HIS181     -0.1241
    122  CA         1.7130   33.7340   -3.4170 C.3   181  HIS181      0.1621
    123  C          2.0130   32.4270   -2.6920 C.2   181  HIS181      0.2264
    124  O          2.9760   31.7330   -3.0150 O.2   181  HIS181     -0.2867
    125  CB         3.0120   34.3910   -3.8910 C.3   181  HIS181      0.0745
    126  CG         2.8020   35.6920   -4.6030 C.ar  181  HIS181      0.0817
    127  ND1        2.1710   35.7800   -5.8250 N.ar  181  HIS181     -0.2268
    128  CD2        3.1380   36.9590   -4.2610 C.ar  181  HIS181      0.1154
    129  CE1        2.1270   37.0440   -6.2060 C.ar  181  HIS181      0.1986
    130  NE2        2.7050   37.7800   -5.2750 N.ar  181  HIS181     -0.2212
    131  N          3.2010   26.7140   -2.5360 N.3   229  ILE229     -0.1231
    132  CA         3.5090   28.0110   -3.1210 C.3   229  ILE229      0.1692
    133  C          2.8730   28.0950   -4.5020 C.2   229  ILE229      0.2592
    134  O          2.9050   27.1250   -5.2640 O.2   229  ILE229     -0.2718
    135  CB         5.0290   28.2310   -3.2340 C.3   229  ILE229      0.0266
    136  CG1        5.6790   28.2030   -1.8480 C.3   229  ILE229      0.0019
    137  CG2        5.3420   29.5350   -3.9450 C.3   229  ILE229      0.0020
    138  CD1        7.1860   28.2450   -1.8910 C.3   229  ILE229      0.0001
    139  N          2.2880   29.2440   -4.8220 N.am  230  VAL230     -0.1966
    140  CA         1.6540   29.4310   -6.1220 C.3   230  VAL230      0.1727
    141  C          2.6940   29.5380   -7.2340 C.2   230  VAL230      0.2616
    142  O          3.3890   30.5440   -7.3580 O.2   230  VAL230     -0.2715
    143  CB         0.7610   30.6830   -6.1400 C.3   230  VAL230      0.0290
    144  CG1        0.1840   30.9030   -7.5320 C.3   230  VAL230      0.0023
    145  CG2       -0.3410   30.5410   -5.1230 C.3   230  VAL230      0.0023
    146  N          2.8010   28.4860   -8.0360 N.am  231  PHE231     -0.1960
    147  CA         3.7280   28.4770   -9.1580 C.3   231  PHE231      0.1771
    148  C          3.0970   29.0760  -10.4080 C.2   231  PHE231      0.2619
    149  O          1.8700   29.1580  -10.5180 O.2   231  PHE231     -0.2715
    150  CB         4.2000   27.0520   -9.4570 C.3   231  PHE231      0.0574
    151  CG         5.3190   26.5810   -8.5720 C.ar  231  PHE231     -0.0200
    152  CD1        5.5510   27.1680   -7.3380 C.ar  231  PHE231     -0.0042
    153  CD2        6.1500   25.5550   -8.9870 C.ar  231  PHE231     -0.0042
    154  CE1        6.5840   26.7300   -6.5320 C.ar  231  PHE231     -0.0003
    155  CE2        7.1850   25.1160   -8.1880 C.ar  231  PHE231     -0.0003
    156  CZ         7.4030   25.7030   -6.9590 C.ar  231  PHE231     -0.0000
    157  N          3.9380   29.5020  -11.3460 N.am  232  PHE232     -0.1974
    158  CA         3.4560   29.8950  -12.6640 C.3   232  PHE232      0.1639
    159  C          2.7480   28.7000  -13.2910 C.2   232  PHE232      0.2290
    160  O          3.2530   27.5790  -13.2500 O.2   232  PHE232     -0.2864
    161  CB         4.6000   30.3830  -13.5580 C.3   232  PHE232      0.0560
    162  CG         5.2640   31.6380  -13.0640 C.ar  232  PHE232     -0.0200
    163  CD1        4.6550   32.8720  -13.2300 C.ar  232  PHE232     -0.0042
    164  CD2        6.5000   31.5840  -12.4410 C.ar  232  PHE232     -0.0042
    165  CE1        5.2650   34.0290  -12.7780 C.ar  232  PHE232     -0.0003
    166  CE2        7.1120   32.7360  -11.9820 C.ar  232  PHE232     -0.0003
    167  CZ         6.4950   33.9610  -12.1510 C.ar  232  PHE232     -0.0000
    168  N         -4.2250   31.6390   -8.4230 N.3   236  LEU236     -0.1245
    169  CA        -4.0770   32.2590   -7.1090 C.3   236  LEU236      0.1561
    170  C         -4.9470   31.5450   -6.0820 C.2   236  LEU236      0.2260
    171  O         -5.9230   30.8860   -6.4430 O.2   236  LEU236     -0.2867
    172  CB        -4.4580   33.7420   -7.1600 C.3   236  LEU236      0.0270
    173  CG        -3.5200   34.7210   -7.8700 C.3   236  LEU236      0.0019
    174  CD1       -4.1030   36.1220   -7.8260 C.3   236  LEU236      0.0001
    175  CD2       -2.1190   34.7030   -7.2590 C.3   236  LEU236      0.0001
    176  N          4.0510   43.5750   -8.3910 N.3   263  VAL263     -0.1245
    177  CA         3.4800   42.2790   -8.7340 C.3   263  VAL263      0.1561
    178  C          2.0400   42.0970   -8.2850 C.2   263  VAL263      0.2260
    179  O          1.7160   42.2400   -7.1070 O.2   263  VAL263     -0.2867
    180  CB         4.3320   41.1400   -8.1380 C.3   263  VAL263      0.0252
    181  CG1        3.5850   39.8130   -8.1960 C.3   263  VAL263      0.0019
    182  CG2        5.6710   41.0530   -8.8610 C.3   263  VAL263      0.0019
@<TRIPOS>BOND
     1   161   162    1
     2   161   158    1
     3   159   160    2
     4   159   158    1
     5   163   162   ar
     6   163   165   ar
     7   162   164   ar
     8   165   167   ar
     9   158   157    1
    10   164   166   ar
    11   167   166   ar
    12   157   148   am
    13    60    59    2
    14    72    71    2
    15    71    70    1
    16   149   148    2
    17   148   147    1
    18    59    58    1
    19    69    70    1
    20    61    58    1
    21    61    62    1
    22    70    73    1
    23    58    57    1
    24    62    64   ar
    25    62    63   ar
    26    64    66   ar
    27   150   147    1
    28   150   151    1
    29    63    65   ar
    30    66    67   ar
    31   147   146    1
    32   153   151   ar
    33   153   155   ar
    34    65    67   ar
    35    73    74    1
    36    67    68    1
    37   182   180    1
    38   177   176    1
    39   177   178    1
    40   177   180    1
    41   151   152   ar
    42   168   169    1
    43   178   179    2
    44    51    52    1
    45    51    50    1
    46   181   180    1
    47   155   156   ar
    48    52    53    1
    49    49    48    2
    50   146   141   am
    51    76    74   ar
    52    76    78   ar
    53    50    47    1
    54    74    75   ar
    55   173   174    1
    56   173   175    1
    57   173   172    1
    58   144   143    1
    59    47    48    1
    60    47    46    1
    61   142   141    2
    62   152   154   ar
    63   141   140    1
    64   172   169    1
    65   169   170    1
    66    56    54    1
    67    78    79   ar
    68   156   154   ar
    69    38    37    2
    70    75    77   ar
    71    53    54    2
    72   171   170    2
    73    46    37   am
    74    54    55    1
    75    37    36    1
    76   129   127   ar
    77   129   130   ar
    78   143   140    1
    79   143   145    1
    80   140   139    1
    81    79    77   ar
    82   127   126   ar
    83    39    36    1
    84    39    40    1
    85   130   128   ar
    86   134   133    2
    87    36    35    1
    88    42    40   ar
    89    42    44   ar
    90   139   133   am
    91    33    32   ar
    92    40    41   ar
    93   126   128   ar
    94   126   125    1
    95   133   132    1
    96    96    94   am
    97    44    45   ar
    98    35    29   am
    99   137   135    1
   100   125   122    1
   101    32    34   ar
   102    32    31    1
   103    30    29    2
   104    41    43   ar
   105   122   123    1
   106   122   121    1
   107    29    28    1
   108   135   132    1
   109   135   136    1
   110   132   131    1
   111   124   123    2
   112    94    95    2
   113    94    93    1
   114    45    43   ar
   115    31    28    1
   116    28    27    1
   117    93    92    1
   118   138   136    1
   119   112   110    1
   120    92    89    1
   121   111   109    1
   122    91    90    2
   123    27    22   am
   124     5     2    1
   125    89    90    1
   126    89    88    1
   127    23    22    2
   128    22    21    1
   129    90    97   am
   130   110   109    1
   131    24    21    1
   132    24    25    1
   133   109   106    1
   134     1     2    1
   135     2     3    1
   136    21    20    1
   137    87    85    1
   138    25    26    1
   139    97    98    1
   140   105   106    1
   141   105    99   am
   142   106   107    1
   143    98    99    1
   144    98   101    1
   145    26    20    1
   146    85    84    1
   147    99   100    2
   148   103   102    2
   149    20    14   am
   150     3     4    2
   151    86    84    1
   152    18    16    1
   153   107   108    2
   154   107   113   am
   155    84    81    1
   156    14    15    2
   157    14    13    1
   158   102   101    1
   159   102   104   am
   160    80    81    1
   161   113   114    1
   162    13    16    1
   163    13    12    1
   164    81    82    1
   165    16    17    1
   166   114   117    1
   167   114   115    1
   168    82    83    2
   169    17    19    1
   170   117   118    1
   171   120   118   ar
   172   118   119   ar
   173    10    11    1
   174    10     7    1
   175   115   116    2
   176     6     7    1
   177     8     7    1
   178     8     9    2
