@<TRIPOS>MOLECULE
tmp/4zzjA00.pdb
 185 181 0 0 0
SMALL
GASTEIGER

@<TRIPOS>ATOM
      1  N         17.5950   60.0180   23.9460 N.3    91  PHE91      -0.1241
      2  CA        17.5540   58.5620   23.8370 C.3    91  PHE91       0.1605
      3  C         17.9860   58.1650   22.4300 C.2    91  PHE91       0.2264
      4  O         18.7600   57.2290   22.2370 O.2    91  PHE91      -0.2867
      5  CB        16.1560   58.0120   24.1250 C.3    91  PHE91       0.0534
      6  CG        15.8580   57.8300   25.5840 C.ar   91  PHE91      -0.0203
      7  CD1       16.8050   58.1400   26.5480 C.ar   91  PHE91      -0.0042
      8  CD2       14.6280   57.3370   25.9890 C.ar   91  PHE91      -0.0042
      9  CE1       16.5220   57.9710   27.8900 C.ar   91  PHE91      -0.0003
     10  CE2       14.3410   57.1640   27.3240 C.ar   91  PHE91      -0.0003
     11  CZ        15.2880   57.4820   28.2770 C.ar   91  PHE91      -0.0000
     12  N         13.9570   52.4660   27.5430 N.3   112  GLN112     -0.1245
     13  CA        12.5520   52.4180   27.9370 C.3   112  GLN112      0.1566
     14  C         12.3270   51.5470   29.1720 C.2   112  GLN112      0.2260
     15  O         11.2580   51.5840   29.7810 O.2   112  GLN112     -0.2867
     16  CB        11.6930   51.9000   26.7750 C.3   112  GLN112      0.0367
     17  CG        11.5640   52.8570   25.5900 C.3   112  GLN112      0.0905
     18  CD        12.8770   53.0890   24.8700 C.2   112  GLN112      0.2608
     19  OE1       13.7370   52.2080   24.8230 O.2   112  GLN112     -0.2717
     20  NE2       13.0460   54.2880   24.3200 N.am  112  GLN112     -0.0878
     21  N         11.7140   53.1540   32.6520 N.3   115  PHE115     -0.1241
     22  CA        10.3480   53.5570   32.9490 C.3   115  PHE115      0.1605
     23  C          9.4190   52.3500   32.9110 C.2   115  PHE115      0.2264
     24  O          8.2190   52.4770   32.6700 O.2   115  PHE115     -0.2867
     25  CB         9.8880   54.6290   31.9600 C.3   115  PHE115      0.0534
     26  CG        10.8500   55.7750   31.8290 C.ar  115  PHE115     -0.0203
     27  CD1       11.4290   56.3450   32.9540 C.ar  115  PHE115     -0.0042
     28  CD2       11.1960   56.2660   30.5840 C.ar  115  PHE115     -0.0042
     29  CE1       12.3180   57.3950   32.8380 C.ar  115  PHE115     -0.0003
     30  CE2       12.0880   57.3130   30.4640 C.ar  115  PHE115     -0.0003
     31  CZ        12.6490   57.8780   31.5920 C.ar  115  PHE115     -0.0000
     32  N          6.8070   65.9660   26.2350 N.3   163  GLN163     -0.1245
     33  CA         7.0530   64.6170   26.7290 C.3   163  GLN163      0.1566
     34  C          8.1680   64.6750   27.7560 C.2   163  GLN163      0.2260
     35  O          8.4700   63.6900   28.4400 O.2   163  GLN163     -0.2867
     36  CB         7.4210   63.6800   25.5840 C.3   163  GLN163      0.0367
     37  CG         6.3750   63.6300   24.4950 C.3   163  GLN163      0.0905
     38  CD         6.9220   63.0650   23.2100 C.2   163  GLN163      0.2608
     39  OE1        7.2180   61.8720   23.1190 O.2   163  GLN163     -0.2717
     40  NE2        7.0800   63.9230   22.2070 N.am  163  GLN163     -0.0878
     41  N         10.4500   65.6020   31.0290 N.3   165  ILE165     -0.1245
     42  CA        10.2420   65.5550   32.4660 C.3   165  ILE165      0.1561
     43  C         11.2880   66.4090   33.1850 C.2   165  ILE165      0.2260
     44  O         11.4050   66.3620   34.4070 O.2   165  ILE165     -0.2867
     45  CB        10.2930   64.1110   32.9840 C.3   165  ILE165      0.0252
     46  CG1       11.5820   63.4320   32.5240 C.3   165  ILE165      0.0019
     47  CG2        9.0890   63.3240   32.4900 C.3   165  ILE165      0.0019
     48  CD1       11.6240   61.9540   32.8250 C.3   165  ILE165      0.0001
     49  N          4.0170   63.2820   30.6050 N.3   181  HIS181     -0.1241
     50  CA         4.5900   62.0980   31.2300 C.3   181  HIS181      0.1621
     51  C          4.9170   62.3280   32.7050 C.2   181  HIS181      0.2264
     52  O          5.6640   61.5600   33.3130 O.2   181  HIS181     -0.2867
     53  CB         5.8320   61.6560   30.4580 C.3   181  HIS181      0.0745
     54  CG         5.5310   61.1720   29.0740 C.ar  181  HIS181      0.0817
     55  ND1        6.4960   61.0710   28.0890 N.ar  181  HIS181     -0.2268
     56  CD2        4.3740   60.7580   28.5030 C.ar  181  HIS181      0.1154
     57  CE1        5.9440   60.6160   26.9810 C.ar  181  HIS181      0.1986
     58  NE2        4.6550   60.4170   27.2040 N.ar  181  HIS181     -0.2212
     59  N          6.4940   60.2560   37.7270 N.3   229  ILE229     -0.1231
     60  CA         6.8310   60.0990   36.3230 C.3   229  ILE229      0.1692
     61  C          5.9310   59.0090   35.7690 C.2   229  ILE229      0.2592
     62  O          5.9030   57.9020   36.3060 O.2   229  ILE229     -0.2718
     63  CB         8.3070   59.6970   36.1170 C.3   229  ILE229      0.0266
     64  CG1        9.2520   60.7130   36.7650 C.3   229  ILE229      0.0019
     65  CG2        8.6150   59.5220   34.6370 C.3   229  ILE229      0.0020
     66  CD1        9.4160   61.9890   35.9770 C.3   229  ILE229      0.0001
     67  N          5.1830   59.3070   34.7120 N.am  230  VAL230     -0.1966
     68  CA         4.3380   58.2810   34.1120 C.3   230  VAL230      0.1727
     69  C          5.2120   57.1940   33.5090 C.2   230  VAL230      0.2616
     70  O          6.0710   57.4670   32.6800 O.2   230  VAL230     -0.2715
     71  CB         3.4100   58.8400   33.0320 C.3   230  VAL230      0.0290
     72  CG1        2.6060   57.7110   32.4050 C.3   230  VAL230      0.0023
     73  CG2        2.4840   59.8880   33.6210 C.3   230  VAL230      0.0023
     74  N          5.0070   55.9640   33.9590 N.am  231  PHE231     -0.1960
     75  CA         5.7260   54.8260   33.4160 C.3   231  PHE231      0.1771
     76  C          4.8930   54.1820   32.3190 C.2   231  PHE231      0.2620
     77  O          3.6960   54.4550   32.2080 O.2   231  PHE231     -0.2715
     78  CB         6.0460   53.8130   34.5160 C.3   231  PHE231      0.0574
     79  CG         7.3010   54.1290   35.2830 C.ar  231  PHE231     -0.0200
     80  CD1        7.9630   55.3340   35.0930 C.ar  231  PHE231     -0.0042
     81  CD2        7.8310   53.2110   36.1800 C.ar  231  PHE231     -0.0042
     82  CE1        9.1210   55.6240   35.7940 C.ar  231  PHE231     -0.0003
     83  CE2        8.9900   53.4950   36.8790 C.ar  231  PHE231     -0.0003
     84  CZ         9.6360   54.7020   36.6880 C.ar  231  PHE231     -0.0000
     85  N          5.5230   53.3430   31.5020 N.am  232  PHE232     -0.1960
     86  CA         4.7880   52.6040   30.4830 C.3   232  PHE232      0.1771
     87  C          3.7520   51.7000   31.1470 C.2   232  PHE232      0.2620
     88  O          3.9800   51.1720   32.2400 O.2   232  PHE232     -0.2715
     89  CB         5.7330   51.7840   29.6090 C.3   232  PHE232      0.0574
     90  CG         6.6710   52.6140   28.7870 C.ar  232  PHE232     -0.0200
     91  CD1        6.2040   53.3510   27.7120 C.ar  232  PHE232     -0.0042
     92  CD2        8.0240   52.6510   29.0810 C.ar  232  PHE232     -0.0042
     93  CE1        7.0670   54.1190   26.9470 C.ar  232  PHE232     -0.0003
     94  CE2        8.8940   53.4170   28.3210 C.ar  232  PHE232     -0.0003
     95  CZ         8.4130   54.1520   27.2540 C.ar  232  PHE232     -0.0000
     96  N          2.6090   51.5410   30.4880 N.am  233  GLY233     -0.1940
     97  CA         1.5120   50.7610   31.0260 C.3   233  GLY233      0.2014
     98  C          0.5490   51.6000   31.8440 C.2   233  GLY233      0.2639
     99  O         -0.6170   51.2380   32.0080 O.2   233  GLY233     -0.2714
    100  N          1.0360   52.7280   32.3550 N.am  234  GLU234     -0.1963
    101  CA         0.2360   53.5820   33.2250 C.3   234  GLU234      0.1733
    102  C         -0.5480   54.6300   32.4430 C.2   234  GLU234      0.2616
    103  O         -0.2940   54.8680   31.2620 O.2   234  GLU234     -0.2715
    104  CB         1.1260   54.2730   34.2580 C.3   234  GLU234      0.0429
    105  CG         1.9610   53.3200   35.0890 C.3   234  GLU234      0.1163
    106  CD         2.6830   54.0240   36.2150 C.2   234  GLU234      0.3649
    107  OE1        2.9140   53.3850   37.2670 O.co2 234  GLU234     -0.2457
    108  OE2        3.0150   55.2200   36.0480 O.co2 234  GLU234     -0.2457
    109  N         -1.5040   55.2560   33.1190 N.am  235  ASN235     -0.1958
    110  CA        -2.3230   56.2860   32.5070 C.3   235  ASN235      0.1819
    111  C         -1.6230   57.6300   32.4860 C.2   235  ASN235      0.2621
    112  O         -0.9130   57.9850   33.4250 O.2   235  ASN235     -0.2715
    113  CB        -3.6540   56.4190   33.2440 C.3   235  ASN235      0.1195
    114  CG        -4.4950   55.1680   33.1540 C.2   235  ASN235      0.2630
    115  OD1       -4.6840   54.6070   32.0720 O.2   235  ASN235     -0.2716
    116  ND2       -5.0030   54.7150   34.2960 N.am  235  ASN235     -0.0877
    117  N         -1.8220   58.3730   31.4040 N.am  236  LEU236     -0.1977
    118  CA        -1.3720   59.7530   31.3420 C.3   236  LEU236      0.1596
    119  C         -2.2250   60.5870   32.2920 C.2   236  LEU236      0.2287
    120  O         -3.3520   60.2030   32.6090 O.2   236  LEU236     -0.2864
    121  CB        -1.4570   60.2850   29.9110 C.3   236  LEU236      0.0297
    122  CG        -0.1480   60.2110   29.1250 C.3   236  LEU236      0.0022
    123  CD1        0.2270   58.7690   28.7920 C.3   236  LEU236      0.0001
    124  CD2       -0.2400   61.0600   27.8790 C.3   236  LEU236      0.0001
    125  N         -4.6940   63.3820   34.0820 N.3   238  GLU238     -0.1245
    126  CA        -6.0430   63.7820   33.7060 C.3   238  GLU238      0.1567
    127  C         -6.0330   65.0520   32.8600 C.2   238  GLU238      0.2260
    128  O         -6.8980   65.2430   32.0090 O.2   238  GLU238     -0.2867
    129  CB        -6.9020   63.9870   34.9550 C.3   238  GLU238      0.0388
    130  CG        -8.1770   63.1630   34.9600 C.3   238  GLU238      0.1160
    131  CD        -9.0420   63.4250   33.7410 C.2   238  GLU238      0.3649
    132  OE1       -9.6500   64.5150   33.6670 O.co2 238  GLU238     -0.2457
    133  OE2       -9.1090   62.5430   32.8550 O.co2 238  GLU238     -0.2457
    134  N         -5.7820   64.4270   28.8140 N.3   241  HIS241     -0.1241
    135  CA        -7.0190   64.0620   28.1350 C.3   241  HIS241      0.1621
    136  C         -8.0190   65.2160   28.1470 C.2   241  HIS241      0.2264
    137  O         -8.7570   65.4170   27.1820 O.2   241  HIS241     -0.2867
    138  CB        -7.6300   62.8160   28.7770 C.3   241  HIS241      0.0745
    139  CG        -6.7610   61.6010   28.6770 C.ar  241  HIS241      0.0817
    140  ND1       -6.6200   60.8820   27.5090 N.ar  241  HIS241     -0.2268
    141  CD2       -5.9790   60.9850   29.5950 C.ar  241  HIS241      0.1154
    142  CE1       -5.7920   59.8710   27.7140 C.ar  241  HIS241      0.1986
    143  NE2       -5.3890   59.9120   28.9700 N.ar  241  HIS241     -0.2212
    144  N          7.5680   58.3500   18.9020 N.3   262  LYS262     -0.1231
    145  CA         7.4600   56.8940   18.9630 C.3   262  LYS262      0.1693
    146  C          6.6450   56.4240   20.1660 C.2   262  LYS262      0.2592
    147  O          6.4090   55.2270   20.3270 O.2   262  LYS262     -0.2718
    148  CB         8.8490   56.2530   19.0060 C.3   262  LYS262      0.0285
    149  CG         9.5560   56.2280   17.6650 C.3   262  LYS262      0.0035
    150  CD        10.8350   55.4010   17.7080 C.3   262  LYS262      0.0206
    151  CE        11.9390   56.1160   18.4680 C.3   262  LYS262      0.1093
    152  NZ        13.2410   55.3970   18.3510 N.3   262  LYS262     -0.1314
    153  N          6.2140   57.3680   21.0010 N.am  263  VAL263     -0.1966
    154  CA         5.4690   57.0510   22.2180 C.3   263  VAL263      0.1727
    155  C          4.0190   57.5240   22.1570 C.2   263  VAL263      0.2616
    156  O          3.7480   58.7200   22.0290 O.2   263  VAL263     -0.2715
    157  CB         6.1260   57.6850   23.4620 C.3   263  VAL263      0.0290
    158  CG1        5.2560   57.4720   24.6830 C.3   263  VAL263      0.0023
    159  CG2        7.5110   57.1140   23.6840 C.3   263  VAL263      0.0023
    160  N          3.0910   56.5810   22.2620 N.am  264  ARG264     -0.1964
    161  CA         1.6700   56.9030   22.3020 C.3   264  ARG264      0.1714
    162  C          1.2120   57.1360   23.7450 C.2   264  ARG264      0.2458
    163  O          1.8530   56.6600   24.6810 O.2   264  ARG264     -0.2730
    164  CB         0.8670   55.7800   21.6470 C.3   264  ARG264      0.0347
    165  CG         1.1530   55.6300   20.1670 C.3   264  ARG264      0.0492
    166  CD         0.3710   54.4890   19.5560 C.3   264  ARG264      0.2205
    167  NE         0.5630   54.4500   18.1130 N.pl3 264  ARG264     -0.0865
    168  CZ        -0.3220   53.9510   17.2590 C.cat 264  ARG264      0.5346
    169  NH1       -1.4640   53.4520   17.7090 N.pl3 264  ARG264      0.1354
    170  NH2       -0.0660   53.9570   15.9570 N.pl3 264  ARG264      0.1354
    171  N          0.1010   57.8680   23.9370 N.am  265  PRO265     -0.2727
    172  CA        -0.7870   58.4860   22.9440 C.3   265  PRO265      0.1402
    173  C         -0.3510   59.8710   22.4530 C.2   265  PRO265      0.2269
    174  O         -1.0730   60.4740   21.6590 O.2   265  PRO265     -0.2865
    175  CB        -2.1130   58.5910   23.7020 C.3   265  PRO265      0.0296
    176  CG        -1.7050   58.7930   25.1000 C.3   265  PRO265      0.0237
    177  CD        -0.4490   57.9860   25.2970 C.3   265  PRO265      0.0939
    178  N         -0.0160   60.3430   18.7560 N.3   268  LEU268     -0.1245
    179  CA        -1.2680   60.3400   18.0010 C.3   268  LEU268      0.1561
    180  C         -1.8570   61.7390   17.8150 C.2   268  LEU268      0.2260
    181  O         -2.8330   61.9100   17.0850 O.2   268  LEU268     -0.2867
    182  CB        -2.3050   59.4470   18.6860 C.3   268  LEU268      0.0270
    183  CG        -2.0180   57.9470   18.7710 C.3   268  LEU268      0.0019
    184  CD1       -3.1140   57.2550   19.5520 C.3   268  LEU268      0.0001
    185  CD2       -1.8820   57.3360   17.3970 C.3   268  LEU268      0.0001
@<TRIPOS>BOND
     1   170   168    1
     2   181   180    2
     3   168   169    1
     4   168   167    2
     5   185   183    1
     6   149   150    1
     7   149   148    1
     8   150   151    1
     9   180   179    1
    10   179   182    1
    11   179   178    1
    12   167   166    1
    13   152   151    1
    14   182   183    1
    15   183   184    1
    16   144   145    1
    17   145   148    1
    18   145   146    1
    19   166   165    1
    20   146   147    2
    21   146   153   am
    22   165   164    1
    23   153   154    1
    24   164   161    1
    25   174   173    2
    26   156   155    2
    27   155   154    1
    28   155   160   am
    29    40    38   am
    30   154   157    1
    31     4     3    2
    32   160   161    1
    33   161   162    1
    34     3     2    1
    35   173   172    1
    36   172   175    1
    37   172   171    1
    38    39    38    2
    39    38    37    1
    40   157   159    1
    41   157   158    1
    42   175   176    1
    43   162   171   am
    44   162   163    2
    45     2     1    1
    46     2     5    1
    47   171   177    1
    48     5     6    1
    49    20    18   am
    50    37    36    1
    51    19    18    2
    52    18    17    1
    53   176   177    1
    54     6     8   ar
    55     6     7   ar
    56    36    33    1
    57    17    16    1
    58     8    10   ar
    59    32    33    1
    60     7     9   ar
    61    33    34    1
    62    16    13    1
    63    93    95   ar
    64    93    91   ar
    65    57    58   ar
    66    57    55   ar
    67   137   136    2
    68    58    56   ar
    69    95    94   ar
    70    10    11   ar
    71   140   142   ar
    72   140   139   ar
    73    12    13    1
    74    91    90   ar
    75   142   143   ar
    76    34    35    2
    77   124   122    1
    78     9    11   ar
    79    13    14    1
    80    55    54   ar
    81   135   136    1
    82   135   138    1
    83   135   134    1
    84    94    92   ar
    85    56    54   ar
    86   139   138    1
    87   139   141   ar
    88    90    92   ar
    89    90    89    1
    90   123   122    1
    91   143   141   ar
    92    54    53    1
    93   122   121    1
    94    14    15    2
    95    89    86    1
    96   121   118    1
    97    53    50    1
    98    30    28   ar
    99    30    31   ar
   100    86    87    1
   101    86    85    1
   102    96    97    1
   103    96    87   am
   104    28    26   ar
   105    49    50    1
   106    97    98    1
   107    41    42    1
   108    87    88    2
   109    50    51    1
   110   103   102    2
   111   118   117    1
   112   118   119    1
   113   117   111   am
   114    85    76   am
   115    31    29   ar
   116    26    25    1
   117    26    27   ar
   118    98    99    2
   119    98   100   am
   120    25    22    1
   121   128   127    2
   122   115   114    2
   123    77    76    2
   124   119   120    2
   125    76    75    1
   126   100   101    1
   127    72    71    1
   128   102   109   am
   129   102   101    1
   130    42    45    1
   131    42    43    1
   132   111   110    1
   133   111   112    2
   134    47    45    1
   135   110   109    1
   136   110   113    1
   137    46    48    1
   138    46    45    1
   139    21    22    1
   140    24    23    2
   141    70    69    2
   142    51    52    2
   143    29    27   ar
   144   133   131   ar
   145   127   126    1
   146    23    22    1
   147    71    73    1
   148    71    68    1
   149   114   113    1
   150   114   116   am
   151    43    44    2
   152   101   104    1
   153    75    74    1
   154    75    78    1
   155    69    74   am
   156    69    68    1
   157   132   131   ar
   158   126   125    1
   159   126   129    1
   160   131   130    1
   161    68    67    1
   162   104   105    1
   163    78    79    1
   164    65    63    1
   165    67    61   am
   166   129   130    1
   167   105   106    1
   168    80    79   ar
   169    80    82   ar
   170    79    81   ar
   171    61    62    2
   172    61    60    1
   173    82    84   ar
   174    66    64    1
   175   108   106   ar
   176    63    60    1
   177    63    64    1
   178    81    83   ar
   179   106   107   ar
   180    60    59    1
   181    84    83   ar
