@<TRIPOS>MOLECULE
tmp/4zzmA00.pdb
 139 129 0 0 0
SMALL
GASTEIGER

@<TRIPOS>ATOM
      1  N        -19.1990   20.8610   38.5590 N.3    21  ILE21      -0.1245
      2  CA       -18.9060   20.3300   39.8940 C.3    21  ILE21       0.1561
      3  C        -17.6980   21.0540   40.4880 C.2    21  ILE21       0.2260
      4  O        -17.7990   21.5960   41.5860 O.2    21  ILE21      -0.2867
      5  CB       -18.7500   18.7820   39.9450 C.3    21  ILE21       0.0252
      6  CG1      -20.0850   18.0780   39.6270 C.3    21  ILE21       0.0019
      7  CG2      -18.1820   18.3240   41.3140 C.3    21  ILE21       0.0019
      8  CD1      -19.9600   16.5720   39.4120 C.3    21  ILE21       0.0001
      9  N        -14.5140   19.1280   36.0540 N.3    29  VAL29      -0.1245
     10  CA       -15.4990   18.0880   36.3620 C.3    29  VAL29       0.1561
     11  C        -16.9200   18.6220   36.3000 C.2    29  VAL29       0.2260
     12  O        -17.2170   19.6810   36.8610 O.2    29  VAL29      -0.2867
     13  CB       -15.2120   17.3450   37.6970 C.3    29  VAL29       0.0252
     14  CG1      -16.1890   16.1920   37.9110 C.3    29  VAL29       0.0019
     15  CG2      -13.7780   16.8280   37.7430 C.3    29  VAL29       0.0019
     16  N        -20.3500   11.3430   36.5870 N.3    42  ALA42      -0.1245
     17  CA       -19.3480   12.3900   36.7030 C.3    42  ALA42       0.1562
     18  C        -18.4710   12.3230   35.4530 C.2    42  ALA42       0.2260
     19  O        -18.1190   11.2290   34.9950 O.2    42  ALA42      -0.2867
     20  CB       -18.5160   12.1860   37.9480 C.3    42  ALA42       0.0290
     21  N        -15.0870   14.0800   33.7490 N.3    44  LYS44      -0.1245
     22  CA       -13.8890   14.8990   33.9200 C.3    44  LYS44       0.1561
     23  C        -13.3140   15.1590   32.5320 C.2    44  LYS44       0.2260
     24  O        -13.1260   14.2170   31.7670 O.2    44  LYS44      -0.2867
     25  CB       -12.8790   14.1510   34.8220 C.3    44  LYS44       0.0271
     26  CG       -11.5240   14.8310   35.0520 C.3    44  LYS44       0.0035
     27  CD       -10.7120   14.0990   36.1390 C.3    44  LYS44       0.0206
     28  CE       -10.0620   12.8130   35.6570 C.3    44  LYS44       0.1093
     29  NZ       -10.0250   11.7620   36.7150 N.3    44  LYS44      -0.1314
     30  N        -12.6660    3.9270   42.5680 N.3    74  ILE74      -0.1245
     31  CA       -13.4880    4.4750   41.4860 C.3    74  ILE74       0.1561
     32  C        -13.0590    3.8560   40.1250 C.2    74  ILE74       0.2260
     33  O        -11.8650    3.8090   39.7980 O.2    74  ILE74      -0.2867
     34  CB       -13.5590    6.0380   41.4680 C.3    74  ILE74       0.0252
     35  CG1      -14.7230    6.5500   40.5810 C.3    74  ILE74       0.0019
     36  CG2      -12.2400    6.6520   41.0030 C.3    74  ILE74       0.0019
     37  CD1      -16.0620    6.7380   41.2640 C.3    74  ILE74       0.0001
     38  N        -17.1980    8.5490   35.0330 N.3    95  GLN95      -0.1231
     39  CA       -17.1330    7.7550   36.2640 C.3    95  GLN95       0.1698
     40  C        -18.4320    7.8840   37.0430 C.2    95  GLN95       0.2592
     41  O        -19.2060    8.8250   36.8080 O.2    95  GLN95      -0.2718
     42  CB       -15.9240    8.1920   37.1130 C.3    95  GLN95       0.0381
     43  CG       -14.5590    7.9370   36.4480 C.3    95  GLN95       0.0905
     44  CD       -13.3930    8.4870   37.2280 C.2    95  GLN95       0.2608
     45  OE1      -13.2640    9.6870   37.4140 O.2    95  GLN95      -0.2717
     46  NE2      -12.4710    7.6180   37.6450 N.am   95  GLN95      -0.0878
     47  N        -18.6830    6.9430   37.9820 N.am   96  ASP96      -0.1960
     48  CA       -19.8820    6.9980   38.8290 C.3    96  ASP96       0.1840
     49  C        -19.9280    8.3480   39.5270 C.2    96  ASP96       0.2622
     50  O        -18.8710    8.8900   39.8960 O.2    96  ASP96      -0.2715
     51  CB       -19.8540    5.8780   39.9010 C.3    96  ASP96       0.1450
     52  CG       -19.8980    4.4520   39.3650 C.2    96  ASP96       0.3671
     53  OD1      -20.3430    4.2600   38.2030 O.co2  96  ASP96      -0.2456
     54  OD2      -19.4960    3.5250   40.1110 O.co2  96  ASP96      -0.2456
     55  N        -21.1240    8.9260   39.6440 N.am   97  LEU97      -0.1963
     56  CA       -21.2480   10.1870   40.3470 C.3    97  LEU97       0.1728
     57  C        -21.3360    9.8950   41.8700 C.2    97  LEU97       0.2616
     58  O        -22.1220    9.0480   42.3110 O.2    97  LEU97      -0.2715
     59  CB       -22.4500   10.9990   39.8500 C.3    97  LEU97       0.0311
     60  CG       -22.7370   12.3240   40.5730 C.3    97  LEU97       0.0022
     61  CD1      -21.5640   13.3130   40.4760 C.3    97  LEU97       0.0001
     62  CD2      -23.9960   12.9400   40.0590 C.3    97  LEU97       0.0001
     63  N        -20.4990   10.5600   42.6560 N.am   98  MET98      -0.1963
     64  CA       -20.5510   10.3390   44.1050 C.3    98  MET98       0.1736
     65  C        -21.1770   11.5690   44.7550 C.2    98  MET98       0.2616
     66  O        -21.1140   12.6480   44.1650 O.2    98  MET98      -0.2715
     67  CB       -19.1670    9.9640   44.6700 C.3    98  MET98       0.0427
     68  CG       -18.5760    8.7070   44.0280 C.3    98  MET98       0.0599
     69  SD       -19.4740    7.1830   44.4810 S.3    98  MET98      -0.1393
     70  CE       -18.6570    6.7760   46.0510 C.3    98  MET98       0.0692
     71  N        -21.8580   11.3910   45.9170 N.am   99  GLU99      -0.1963
     72  CA       -22.5470   12.4700   46.6260 C.3    99  GLU99       0.1733
     73  C        -21.6150   13.5650   47.1600 C.2    99  GLU99       0.2617
     74  O        -21.9540   14.7460   47.0470 O.2    99  GLU99      -0.2715
     75  CB       -23.4350   11.9190   47.7600 C.3    99  GLU99       0.0429
     76  CG       -24.0950   12.9390   48.6490 C.3    99  GLU99       0.1163
     77  CD       -25.1120   13.8290   47.9650 C.2    99  GLU99       0.3649
     78  OE1      -25.6930   13.4400   46.9360 O.co2  99  GLU99      -0.2457
     79  OE2      -25.3540   14.9570   48.4600 O.co2  99  GLU99      -0.2457
     80  N        -20.4530   13.1750   47.7480 N.am  100  THR100     -0.1937
     81  CA       -19.4830   14.1040   48.3670 C.3   100  THR100      0.2028
     82  C        -18.0640   13.4720   48.4670 C.2   100  THR100      0.2642
     83  O        -17.8210   12.3990   47.9320 O.2   100  THR100     -0.2714
     84  CB       -20.0430   14.5410   49.7710 C.3   100  THR100      0.1808
     85  OG1      -19.2200   15.5500   50.3550 O.3   100  THR100     -0.2208
     86  CG2      -20.2220   13.3780   50.7430 C.3   100  THR100      0.0379
     87  N        -17.1280   14.1590   49.1060 N.am  101  ASP101     -0.1971
     88  CA       -15.8240   13.5980   49.3880 C.3   101  ASP101      0.1709
     89  C        -15.5740   13.7910   50.8710 C.2   101  ASP101      0.2293
     90  O        -16.2680   14.5970   51.5040 O.2   101  ASP101     -0.2864
     91  CB       -14.6900   14.1320   48.4750 C.3   101  ASP101      0.1436
     92  CG       -14.4790   15.6280   48.5160 C.2   101  ASP101      0.3671
     93  OD1      -14.1500   16.1480   49.6000 O.co2 101  ASP101     -0.2456
     94  OD2      -14.5620   16.2730   47.4370 O.co2 101  ASP101     -0.2456
     95  N        -14.9270   17.4830   52.1260 N.3   104  LYS104     -0.1245
     96  CA       -16.1450   18.3260   52.2650 C.3   104  LYS104      0.1561
     97  C        -16.9120   17.9060   53.5050 C.2   104  LYS104      0.2260
     98  O        -17.3570   18.7640   54.2520 O.2   104  LYS104     -0.2867
     99  CB       -17.0710   18.2100   51.0350 C.3   104  LYS104      0.0271
    100  CG       -16.4830   18.7520   49.7390 C.3   104  LYS104      0.0035
    101  CD       -17.4650   18.5820   48.5950 C.3   104  LYS104      0.0206
    102  CE       -17.3260   19.6940   47.5680 C.3   104  LYS104      0.1093
    103  NZ       -15.9180   19.8410   47.1040 N.3   104  LYS104     -0.1314
    104  N         -9.7470   14.5800   50.2560 N.3   143  SER143     -0.1202
    105  CA       -10.3380   15.0050   48.9910 C.3   143  SER143      0.2020
    106  C        -10.2710   13.9120   47.9140 C.2   143  SER143      0.2618
    107  O        -10.9980   14.0100   46.9470 O.2   143  SER143     -0.2717
    108  CB        -9.7260   16.3150   48.4960 C.3   143  SER143      0.2103
    109  OG        -8.3440   16.1450   48.2400 O.3   143  SER143     -0.2182
    110  N         -9.4630   12.8490   48.1180 N.am  144  ASN144     -0.1974
    111  CA        -9.3690   11.7380   47.1520 C.3   144  ASN144      0.1688
    112  C        -10.1940   10.5290   47.5440 C.2   144  ASN144      0.2292
    113  O        -10.0290    9.4380   46.9890 O.2   144  ASN144     -0.2864
    114  CB        -7.9200   11.3410   46.9000 C.3   144  ASN144      0.1181
    115  CG        -7.2270   12.3600   46.0190 C.2   144  ASN144      0.2629
    116  OD1       -7.8740   13.0660   45.2290 O.2   144  ASN144     -0.2716
    117  ND2       -5.9110   12.4730   46.1460 N.am  144  ASN144     -0.0877
    118  N        -14.0400    9.5460   47.8600 N.3   146  LEU146     -0.1245
    119  CA       -15.4140    9.8760   47.5080 C.3   146  LEU146      0.1561
    120  C        -16.3920    9.0220   48.2910 C.2   146  LEU146      0.2260
    121  O        -16.0760    7.8800   48.6430 O.2   146  LEU146     -0.2867
    122  CB       -15.6480    9.7010   46.0040 C.3   146  LEU146      0.0270
    123  CG       -14.7620   10.5240   45.0750 C.3   146  LEU146      0.0019
    124  CD1      -14.6850    9.8710   43.6860 C.3   146  LEU146      0.0001
    125  CD2      -15.2830   11.9400   44.9190 C.3   146  LEU146      0.0001
    126  N         -9.9750    7.6210   44.7630 N.3   155  CYS155     -0.1221
    127  CA        -9.7610    8.1240   43.4080 C.3   155  CYS155      0.1808
    128  C         -8.3530    8.7630   43.2810 C.2   155  CYS155      0.2601
    129  O         -7.5870    8.7780   44.2510 O.2   155  CYS155     -0.2717
    130  CB       -10.8580    9.1180   43.0400 C.3   155  CYS155      0.0970
    131  SG       -10.7350   10.6770   43.9390 S.3   155  CYS155     -0.0800
    132  N         -8.0690    9.3480   42.0940 N.am  156  ASP156     -0.1973
    133  CA        -6.8210   10.0360   41.7110 C.3   156  ASP156      0.1709
    134  C         -5.5240    9.1840   41.8560 C.2   156  ASP156      0.2293
    135  O         -4.8230    9.2820   42.8710 O.2   156  ASP156     -0.2864
    136  CB        -6.6730   11.3660   42.4720 C.3   156  ASP156      0.1436
    137  CG        -5.7200   12.3620   41.8190 C.2   156  ASP156      0.3671
    138  OD1       -5.0470   11.9840   40.8130 O.co2 156  ASP156     -0.2456
    139  OD2       -5.6580   13.5210   42.2940 O.co2 156  ASP156     -0.2456
@<TRIPOS>BOND
     1    24    23    2
     2    23    22    1
     3    21    22    1
     4    22    25    1
     5    25    26    1
     6    19    18    2
     7    38    39    1
     8    26    27    1
     9    18    17    1
    10    28    27    1
    11    28    29    1
    12     9    10    1
    13    39    40    1
    14    39    42    1
    15    11    10    1
    16    11    12    2
    17    10    13    1
    18    43    42    1
    19    43    44    1
    20    16    17    1
    21    17    20    1
    22    41    40    2
    23    40    47   am
    24    44    45    2
    25    44    46   am
    26    13    15    1
    27    13    14    1
    28    47    48    1
    29    53    52   ar
    30     1     2    1
    31    48    49    1
    32    48    51    1
    33    52    51    1
    34    52    54   ar
    35     8     6    1
    36    49    55   am
    37    49    50    2
    38     6     5    1
    39    55    56    1
    40    33    32    2
    41    59    56    1
    42    59    60    1
    43     2     5    1
    44     2     3    1
    45     5     7    1
    46    62    60    1
    47    32    31    1
    48    56    57    1
    49    61    60    1
    50     3     4    2
    51    35    37    1
    52    35    34    1
    53   138   137   ar
    54    36    34    1
    55    34    31    1
    56    31    30    1
    57   133   134    1
    58   133   132    1
    59   133   136    1
    60   137   139   ar
    61   137   136    1
    62   134   135    2
    63    57    58    2
    64    57    63   am
    65   132   128   am
    66    63    64    1
    67   130   127    1
    68   130   131    1
    69   128   127    1
    70   128   129    2
    71   127   126    1
    72   124   123    1
    73    68    69    1
    74    68    67    1
    75    64    67    1
    76    64    65    1
    77    66    65    2
    78    69    70    1
    79    65    71   am
    80   125   123    1
    81   123   122    1
    82   116   115    2
    83    71    72    1
    84   122   119    1
    85   115   117   am
    86   115   114    1
    87    72    73    1
    88    72    75    1
    89   114   111    1
    90    78    77   ar
    91   107   106    2
    92   113   112    2
    93    74    73    2
    94   103   102    1
    95   111   112    1
    96   111   110    1
    97    73    80   am
    98    94    92   ar
    99   119   118    1
   100   119   120    1
   101   102   101    1
   102    80    81    1
   103    75    76    1
   104   106   110   am
   105   106   105    1
   106    83    82    2
   107    77    79   ar
   108    77    76    1
   109   109   108    1
   110   120   121    2
   111    81    82    1
   112    81    84    1
   113    82    87   am
   114    91    92    1
   115    91    88    1
   116   108   105    1
   117    92    93   ar
   118   101   100    1
   119   105   104    1
   120    87    88    1
   121    88    89    1
   122   100    99    1
   123    84    85    1
   124    84    86    1
   125    89    90    2
   126    99    96    1
   127    95    96    1
   128    96    97    1
   129    97    98    2
