@<TRIPOS>MOLECULE
tmp/4zznA00.pdb
 156 146 0 0 0
SMALL
GASTEIGER

@<TRIPOS>ATOM
      1  N        -19.3580   20.1730   38.4910 N.3    21  ILE21      -0.1231
      2  CA       -19.1010   19.6730   39.8390 C.3    21  ILE21       0.1692
      3  C        -17.9510   20.5130   40.4180 C.2    21  ILE21       0.2593
      4  O        -18.0700   21.0740   41.5190 O.2    21  ILE21      -0.2718
      5  CB       -18.7540   18.1480   39.8750 C.3    21  ILE21       0.0266
      6  CG1      -19.9500   17.2590   39.4970 C.3    21  ILE21       0.0019
      7  CG2      -18.1950   17.7620   41.2820 C.3    21  ILE21       0.0020
      8  CD1      -19.5690   15.7740   39.3550 C.3    21  ILE21       0.0001
      9  N        -16.8380   20.5680   39.6950 N.am   22  GLY22      -0.1942
     10  CA       -15.6590   21.2780   40.1710 C.3    22  GLY22       0.2014
     11  C        -14.4010   20.9930   39.4030 C.2    22  GLY22       0.2639
     12  O        -14.4370   20.4100   38.3190 O.2    22  GLY22      -0.2714
     13  N        -13.2950   21.4520   39.9470 N.am   23  GLU23      -0.1963
     14  CA       -11.9860   21.2890   39.3470 C.3    23  GLU23       0.1733
     15  C        -11.2120   20.2490   40.1160 C.2    23  GLU23       0.2616
     16  O        -11.1290   20.3150   41.3460 O.2    23  GLU23      -0.2715
     17  CB       -11.2220   22.6210   39.3860 C.3    23  GLU23       0.0429
     18  CG       -10.6970   23.0970   38.0410 C.3    23  GLU23       0.1163
     19  CD       -11.7030   23.3380   36.9290 C.2    23  GLU23       0.3649
     20  OE1      -12.8180   23.8340   37.2080 O.co2  23  GLU23      -0.2457
     21  OE2      -11.3490   23.0620   35.7630 O.co2  23  GLU23      -0.2457
     22  N        -10.6320   19.3200   39.3850 N.am   24  GLY24      -0.1955
     23  CA        -9.7650   18.3030   39.9530 C.3    24  GLY24       0.1869
     24  C         -8.3690   18.5140   39.4220 C.2    24  GLY24       0.2309
     25  O         -8.1220   19.4890   38.7000 O.2    24  GLY24      -0.2863
     26  N        -14.6420   18.7560   36.0310 N.3    29  VAL29      -0.1245
     27  CA       -15.4430   17.5480   36.1960 C.3    29  VAL29       0.1561
     28  C        -16.8960   17.9800   36.2690 C.2    29  VAL29       0.2260
     29  O        -17.2190   18.9520   36.9560 O.2    29  VAL29      -0.2867
     30  CB       -15.0370   16.7680   37.4770 C.3    29  VAL29       0.0252
     31  CG1      -15.8380   15.4710   37.6050 C.3    29  VAL29       0.0019
     32  CG2      -13.5390   16.4810   37.4950 C.3    29  VAL29       0.0019
     33  N        -20.2920   10.8390   36.6330 N.3    42  ALA42      -0.1245
     34  CA       -19.3190   11.9280   36.6360 C.3    42  ALA42       0.1562
     35  C        -18.4440   11.7740   35.3820 C.2    42  ALA42       0.2260
     36  O        -18.2110   10.6520   34.9190 O.2    42  ALA42      -0.2867
     37  CB       -18.4510   11.8720   37.8790 C.3    42  ALA42       0.0290
     38  N        -14.8500   13.4470   33.7180 N.3    44  LYS44      -0.1245
     39  CA       -13.7040   14.3310   33.9000 C.3    44  LYS44       0.1561
     40  C        -13.1360   14.6160   32.5150 C.2    44  LYS44       0.2260
     41  O        -12.8610   13.6730   31.7810 O.2    44  LYS44      -0.2867
     42  CB       -12.5880   13.6310   34.7010 C.3    44  LYS44       0.0271
     43  CG       -13.0110   12.8840   35.9800 C.3    44  LYS44       0.0035
     44  CD       -11.7450   12.5490   36.8500 C.3    44  LYS44       0.0206
     45  CE       -10.8030   11.5500   36.1750 C.3    44  LYS44       0.1093
     46  NZ        -9.4750   11.3450   36.8740 N.3    44  LYS44      -0.1314
     47  N        -12.1670    3.3610   42.5010 N.3    74  ILE74      -0.1245
     48  CA       -13.0750    3.9200   41.4950 C.3    74  ILE74       0.1561
     49  C        -12.8310    3.2360   40.1340 C.2    74  ILE74       0.2260
     50  O        -11.6840    2.9840   39.7570 O.2    74  ILE74      -0.2867
     51  CB       -12.9010    5.4830   41.4190 C.3    74  ILE74       0.0252
     52  CG1      -14.0890    6.1930   40.6780 C.3    74  ILE74       0.0019
     53  CG2      -11.5360    5.8960   40.7900 C.3    74  ILE74       0.0019
     54  CD1      -15.3990    6.2330   41.4320 C.3    74  ILE74       0.0001
     55  N        -17.0140    8.0440   35.2260 N.3    95  GLN95      -0.1231
     56  CA       -16.9350    7.2450   36.4620 C.3    95  GLN95       0.1698
     57  C        -18.2490    7.3580   37.1930 C.2    95  GLN95       0.2592
     58  O        -19.0340    8.2950   36.9350 O.2    95  GLN95      -0.2718
     59  CB       -15.8140    7.7850   37.3520 C.3    95  GLN95       0.0381
     60  CG       -14.4790    7.7720   36.6240 C.3    95  GLN95       0.0905
     61  CD       -13.3150    8.1690   37.4680 C.2    95  GLN95       0.2608
     62  OE1      -13.1930    9.3050   37.8940 O.2    95  GLN95      -0.2717
     63  NE2      -12.3450    7.2630   37.6070 N.am   95  GLN95      -0.0878
     64  N        -18.4910    6.4210   38.1430 N.am   96  ASP96      -0.1960
     65  CA       -19.6950    6.4820   38.9760 C.3    96  ASP96       0.1840
     66  C        -19.7680    7.8260   39.7030 C.2    96  ASP96       0.2622
     67  O        -18.7420    8.3340   40.1780 O.2    96  ASP96      -0.2715
     68  CB       -19.6370    5.3430   40.0230 C.3    96  ASP96       0.1450
     69  CG       -19.7690    3.9540   39.4300 C.2    96  ASP96       0.3671
     70  OD1      -20.2790    3.8400   38.2840 O.co2  96  ASP96      -0.2456
     71  OD2      -19.2560    2.9940   40.0550 O.co2  96  ASP96      -0.2456
     72  N        -20.9570    8.4010   39.7680 N.am   97  LEU97      -0.1963
     73  CA       -21.1860    9.6750   40.4480 C.3    97  LEU97       0.1728
     74  C        -21.2230    9.4310   41.9460 C.2    97  LEU97       0.2616
     75  O        -21.9760    8.5790   42.4300 O.2    97  LEU97      -0.2715
     76  CB       -22.4950   10.3300   40.0070 C.3    97  LEU97       0.0311
     77  CG       -22.8320   11.6940   40.6300 C.3    97  LEU97       0.0022
     78  CD1      -21.7730   12.7560   40.3020 C.3    97  LEU97       0.0001
     79  CD2      -24.2140   12.1500   40.1910 C.3    97  LEU97       0.0001
     80  N        -20.3590   10.1440   42.6620 N.am   98  MET98      -0.1963
     81  CA       -20.2350   10.0140   44.1220 C.3    98  MET98       0.1736
     82  C        -20.9260   11.1970   44.7620 C.2    98  MET98       0.2616
     83  O        -21.1560   12.2230   44.1050 O.2    98  MET98      -0.2715
     84  CB       -18.7490    9.9700   44.5080 C.3    98  MET98       0.0427
     85  CG       -18.0320    8.7630   43.9100 C.3    98  MET98       0.0599
     86  SD       -18.5940    7.2120   44.6830 S.3    98  MET98      -0.1393
     87  CE       -18.8630    6.3470   43.4360 C.3    98  MET98       0.0692
     88  N        -21.3230   11.0490   46.0350 N.am   99  GLU99      -0.1963
     89  CA       -22.0600   12.1080   46.7180 C.3    99  GLU99       0.1733
     90  C        -21.1090   13.1430   47.3230 C.2    99  GLU99       0.2617
     91  O        -21.4590   14.3290   47.3870 O.2    99  GLU99      -0.2715
     92  CB       -22.9610   11.4910   47.8130 C.3    99  GLU99       0.0429
     93  CG       -23.7670   12.5050   48.6160 C.3    99  GLU99       0.1163
     94  CD       -24.7890   11.8850   49.5420 C.2    99  GLU99       0.3649
     95  OE1      -25.7850   11.3130   49.0420 O.co2  99  GLU99      -0.2457
     96  OE2      -24.5850   11.9670   50.7720 O.co2  99  GLU99      -0.2457
     97  N        -19.9240   12.7100   47.7910 N.am  100  THR100     -0.1937
     98  CA       -19.0040   13.6250   48.4340 C.3   100  THR100      0.2028
     99  C        -17.6380   12.9730   48.4820 C.2   100  THR100      0.2642
    100  O        -17.4110   11.9250   47.8510 O.2   100  THR100     -0.2714
    101  CB       -19.5440   13.9340   49.8700 C.3   100  THR100      0.1808
    102  OG1      -18.7880   14.9960   50.4300 O.3   100  THR100     -0.2208
    103  CG2      -19.5930   12.6910   50.7990 C.3   100  THR100      0.0379
    104  N        -16.7160   13.6380   49.1360 N.am  101  ASP101     -0.1971
    105  CA       -15.3880   13.0650   49.3730 C.3   101  ASP101      0.1709
    106  C        -15.0520   13.2420   50.8450 C.2   101  ASP101      0.2293
    107  O        -15.7510   14.0040   51.5500 O.2   101  ASP101     -0.2864
    108  CB       -14.3260   13.6320   48.4170 C.3   101  ASP101      0.1436
    109  CG       -14.1080   15.1130   48.5570 C.2   101  ASP101      0.3671
    110  OD1      -13.6180   15.5350   49.6090 O.co2 101  ASP101     -0.2456
    111  OD2      -14.4250   15.8600   47.5940 O.co2 101  ASP101     -0.2456
    112  N        -14.3030   16.9170   52.0600 N.3   104  LYS104     -0.1245
    113  CA       -15.4880   17.7400   52.2800 C.3   104  LYS104      0.1561
    114  C        -16.2440   17.3200   53.5320 C.2   104  LYS104      0.2260
    115  O        -16.7230   18.1740   54.2810 O.2   104  LYS104     -0.2867
    116  CB       -16.4030   17.6410   51.0650 C.3   104  LYS104      0.0271
    117  CG       -15.8930   18.2960   49.7940 C.3   104  LYS104      0.0035
    118  CD       -16.9600   18.3110   48.7080 C.3   104  LYS104      0.0206
    119  CE       -16.3250   18.3790   47.3300 C.3   104  LYS104      0.1093
    120  NZ       -15.3020   19.4520   47.2220 N.3   104  LYS104     -0.1314
    121  N         -9.1890   14.0170   50.0500 N.3   143  SER143     -0.1202
    122  CA        -9.8460   14.4380   48.7910 C.3   143  SER143      0.2020
    123  C         -9.7770   13.3750   47.6890 C.2   143  SER143      0.2618
    124  O        -10.4780   13.5080   46.6710 O.2   143  SER143     -0.2717
    125  CB        -9.2630   15.7600   48.2980 C.3   143  SER143      0.2103
    126  OG        -7.8890   15.6220   47.9790 O.3   143  SER143     -0.2182
    127  N         -8.9400   12.3250   47.8920 N.am  144  ASN144     -0.1974
    128  CA        -8.8440   11.2380   46.9240 C.3   144  ASN144      0.1688
    129  C         -9.7150   10.0350   47.3230 C.2   144  ASN144      0.2292
    130  O         -9.5980    8.9720   46.6990 O.2   144  ASN144     -0.2864
    131  CB        -7.3930   10.8240   46.6820 C.3   144  ASN144      0.1181
    132  CG        -6.7300   11.7850   45.7250 C.2   144  ASN144      0.2629
    133  OD1       -7.4190   12.4470   44.9060 O.2   144  ASN144     -0.2716
    134  ND2       -5.4160   11.8270   45.7470 N.am  144  ASN144     -0.0877
    135  N        -13.5310    9.0910   47.7100 N.3   146  LEU146     -0.1245
    136  CA       -14.8880    9.5300   47.3690 C.3   146  LEU146      0.1561
    137  C        -15.9060    8.5630   47.9290 C.2   146  LEU146      0.2260
    138  O        -15.6260    7.3830   48.1320 O.2   146  LEU146     -0.2867
    139  CB       -15.0140    9.7310   45.8560 C.3   146  LEU146      0.0270
    140  CG       -14.6020   11.1700   45.3400 C.3   146  LEU146      0.0019
    141  CD1      -13.1070   11.4950   45.6040 C.3   146  LEU146      0.0001
    142  CD2      -14.9570   11.3530   43.8530 C.3   146  LEU146      0.0001
    143  N         -9.3370    6.9970   44.6790 N.3   155  CYS155     -0.1221
    144  CA        -9.2280    7.6440   43.3770 C.3   155  CYS155      0.1808
    145  C         -7.8340    8.1550   43.1510 C.2   155  CYS155      0.2601
    146  O         -7.0550    8.3170   44.0820 O.2   155  CYS155     -0.2717
    147  CB       -10.1960    8.8150   43.3270 C.3   155  CYS155      0.0970
    148  SG       -11.9200    8.3680   43.5710 S.3   155  CYS155     -0.0800
    149  N         -7.5850    8.5140   41.8800 N.am  156  ASP156     -0.1973
    150  CA        -6.3970    9.1650   41.3270 C.3   156  ASP156      0.1709
    151  C         -5.1000    8.4110   41.5110 C.2   156  ASP156      0.2293
    152  O         -4.3620    8.6050   42.5070 O.2   156  ASP156     -0.2864
    153  CB        -6.2270   10.5940   41.8340 C.3   156  ASP156      0.1436
    154  CG        -5.1410   11.3520   41.0570 C.2   156  ASP156      0.3671
    155  OD1       -4.6030   10.7870   40.0810 O.co2 156  ASP156     -0.2456
    156  OD2       -4.9150   12.5230   41.3650 O.co2 156  ASP156     -0.2456
@<TRIPOS>BOND
     1    41    40    2
     2    40    39    1
     3    38    39    1
     4    39    42    1
     5    42    43    1
     6    36    35    2
     7    55    56    1
     8    35    34    1
     9    21    19   ar
    10    43    44    1
    11    26    27    1
    12    45    44    1
    13    45    46    1
    14    27    28    1
    15    27    30    1
    16    28    29    2
    17    56    57    1
    18    56    59    1
    19    60    59    1
    20    60    61    1
    21    33    34    1
    22    34    37    1
    23    19    20   ar
    24    19    18    1
    25    58    57    2
    26    57    64   am
    27    61    63   am
    28    61    62    2
    29    30    32    1
    30    30    31    1
    31    18    17    1
    32    64    65    1
    33    70    69   ar
    34    12    11    2
    35     1     2    1
    36    25    24    2
    37    65    66    1
    38    65    68    1
    39    14    17    1
    40    14    13    1
    41    14    15    1
    42     8     6    1
    43    22    23    1
    44    22    15   am
    45    11    13   am
    46    11    10    1
    47    24    23    1
    48    69    68    1
    49    69    71   ar
    50     6     5    1
    51     9    10    1
    52     9     3   am
    53    66    72   am
    54    66    67    2
    55    50    49    2
    56    72    73    1
    57     2     5    1
    58     2     3    1
    59     5     7    1
    60    76    73    1
    61    76    77    1
    62   155   154   ar
    63    15    16    2
    64    49    48    1
    65    79    77    1
    66    78    77    1
    67     3     4    2
    68    73    74    1
    69    52    51    1
    70    52    54    1
    71    53    51    1
    72   154   156   ar
    73   154   153    1
    74   150   151    1
    75   150   153    1
    76   150   149    1
    77    51    48    1
    78    48    47    1
    79   151   152    2
    80   149   145   am
    81    74    75    2
    82    74    80   am
    83    80    81    1
    84   145   144    1
    85   145   146    2
    86   147   144    1
    87   147   148    1
    88   144   143    1
    89    87    86    1
    90   142   140    1
    91    85    84    1
    92    85    86    1
    93    83    82    2
    94    81    84    1
    95    81    82    1
    96    82    88   am
    97   133   132    2
    98   140   141    1
    99   140   139    1
   100   132   134   am
   101   132   131    1
   102   139   136    1
   103    88    89    1
   104   124   123    2
   105   131   128    1
   106   130   129    2
   107    89    90    1
   108    89    92    1
   109   128   129    1
   110   128   127    1
   111   120   119    1
   112    90    91    2
   113    90    97   am
   114   119   118    1
   115   136   135    1
   116   136   137    1
   117   111   109   ar
   118   123   127   am
   119   123   122    1
   120    97    98    1
   121    92    93    1
   122   100    99    2
   123   137   138    2
   124   126   125    1
   125   125   122    1
   126   108   109    1
   127   108   105    1
   128    98    99    1
   129    98   101    1
   130    99   104   am
   131   109   110   ar
   132    93    94    1
   133   118   117    1
   134   122   121    1
   135    95    94   ar
   136   104   105    1
   137   105   106    1
   138    94    96   ar
   139   117   116    1
   140   101   102    1
   141   101   103    1
   142   106   107    2
   143   116   113    1
   144   112   113    1
   145   113   114    1
   146   114   115    2
