@<TRIPOS>MOLECULE
tmp/4zzoA00.pdb
 156 146 0 0 0
SMALL
GASTEIGER

@<TRIPOS>ATOM
      1  N        -19.7810   20.7120   38.5770 N.3    21  ILE21      -0.1231
      2  CA       -19.6050   20.2020   39.9420 C.3    21  ILE21       0.1692
      3  C        -18.4890   21.0030   40.6010 C.2    21  ILE21       0.2593
      4  O        -18.6690   21.5360   41.6950 O.2    21  ILE21      -0.2718
      5  CB       -19.2910   18.6760   40.0410 C.3    21  ILE21       0.0266
      6  CG1      -20.3790   17.7960   39.4290 C.3    21  ILE21       0.0019
      7  CG2      -18.9980   18.2670   41.5110 C.3    21  ILE21       0.0020
      8  CD1      -19.8630   16.2950   39.2320 C.3    21  ILE21       0.0001
      9  N        -17.3400   21.0450   39.9430 N.am   22  GLY22      -0.1942
     10  CA       -16.1740   21.7150   40.4870 C.3    22  GLY22       0.2014
     11  C        -14.9300   21.4930   39.6730 C.2    22  GLY22       0.2639
     12  O        -14.9770   20.9600   38.5570 O.2    22  GLY22      -0.2714
     13  N        -13.8140   21.9190   40.2430 N.am   23  GLU23      -0.1963
     14  CA       -12.5270   21.8310   39.6030 C.3    23  GLU23       0.1733
     15  C        -11.7450   20.7090   40.2490 C.2    23  GLU23       0.2616
     16  O        -11.5760   20.6790   41.4730 O.2    23  GLU23      -0.2715
     17  CB       -11.7730   23.1710   39.7240 C.3    23  GLU23       0.0429
     18  CG       -10.9460   23.5230   38.4950 C.3    23  GLU23       0.1163
     19  CD       -11.7150   23.9260   37.2460 C.2    23  GLU23       0.3649
     20  OE1      -12.8490   24.4450   37.3690 O.co2  23  GLU23      -0.2457
     21  OE2      -11.1730   23.7240   36.1360 O.co2  23  GLU23      -0.2457
     22  N        -11.3290   19.7680   39.4160 N.am   24  GLY24      -0.1955
     23  CA       -10.4880   18.6570   39.8360 C.3    24  GLY24       0.1869
     24  C         -9.0460   19.0200   39.5420 C.2    24  GLY24       0.2309
     25  O         -8.7780   20.0840   38.9660 O.2    24  GLY24      -0.2863
     26  N        -15.0030   19.4160   36.1270 N.3    29  VAL29      -0.1245
     27  CA       -15.7630   18.1850   36.2870 C.3    29  VAL29       0.1561
     28  C        -17.2360   18.5690   36.2860 C.2    29  VAL29       0.2260
     29  O        -17.6210   19.5070   36.9850 O.2    29  VAL29      -0.2867
     30  CB       -15.3920   17.3900   37.5660 C.3    29  VAL29       0.0252
     31  CG1      -16.1240   16.0590   37.5970 C.3    29  VAL29       0.0019
     32  CG2      -13.8770   17.1910   37.6960 C.3    29  VAL29       0.0019
     33  N        -20.4720   11.3830   36.5840 N.3    42  ALA42      -0.1245
     34  CA       -19.5020   12.4610   36.6740 C.3    42  ALA42       0.1562
     35  C        -18.6170   12.3840   35.4160 C.2    42  ALA42       0.2260
     36  O        -18.3030   11.2820   34.9460 O.2    42  ALA42      -0.2867
     37  CB       -18.6300   12.2870   37.9070 C.3    42  ALA42       0.0290
     38  N        -15.0690   14.1480   33.8260 N.3    44  LYS44      -0.1245
     39  CA       -13.8540   14.9490   34.0210 C.3    44  LYS44       0.1561
     40  C        -13.3090   15.2710   32.6300 C.2    44  LYS44       0.2260
     41  O        -13.1540   14.3440   31.8450 O.2    44  LYS44      -0.2867
     42  CB       -12.7920   14.0440   34.6920 C.3    44  LYS44       0.0271
     43  CG       -12.2760   14.4640   36.0360 C.3    44  LYS44       0.0035
     44  CD       -11.7160   13.2600   36.7920 C.3    44  LYS44       0.0206
     45  CE       -10.7150   12.4400   36.0040 C.3    44  LYS44       0.1093
     46  NZ        -9.7540   11.7230   36.8950 N.3    44  LYS44      -0.1314
     47  N        -12.6890    3.9550   42.4440 N.3    74  ILE74      -0.1245
     48  CA       -13.6010    4.5340   41.4680 C.3    74  ILE74       0.1561
     49  C        -13.2960    3.8650   40.1250 C.2    74  ILE74       0.2260
     50  O        -12.1350    3.6440   39.8110 O.2    74  ILE74      -0.2867
     51  CB       -13.4270    6.0960   41.4300 C.3    74  ILE74       0.0252
     52  CG1      -14.5740    6.7540   40.6270 C.3    74  ILE74       0.0019
     53  CG2      -12.0590    6.4820   40.8280 C.3    74  ILE74       0.0019
     54  CD1      -15.9130    6.7510   41.3670 C.3    74  ILE74       0.0001
     55  N        -17.2660    8.6770   35.1830 N.3    95  GLN95      -0.1231
     56  CA       -17.1890    7.8740   36.3880 C.3    95  GLN95       0.1698
     57  C        -18.4940    7.9540   37.1260 C.2    95  GLN95       0.2592
     58  O        -19.3110    8.8450   36.8520 O.2    95  GLN95      -0.2718
     59  CB       -16.0540    8.4040   37.2830 C.3    95  GLN95       0.0381
     60  CG       -14.6850    8.3160   36.5890 C.3    95  GLN95       0.0905
     61  CD       -13.5280    8.8470   37.4150 C.2    95  GLN95       0.2608
     62  OE1      -13.4320   10.0310   37.6940 O.2    95  GLN95      -0.2717
     63  NE2      -12.5600    8.0100   37.7150 N.am   95  GLN95      -0.0878
     64  N        -18.7060    7.0110   38.0550 N.am   96  ASP96      -0.1960
     65  CA       -19.8990    7.0160   38.9040 C.3    96  ASP96       0.1840
     66  C        -19.9890    8.3530   39.6380 C.2    96  ASP96       0.2622
     67  O        -18.9780    8.8360   40.1960 O.2    96  ASP96      -0.2715
     68  CB       -19.8350    5.8610   39.9280 C.3    96  ASP96       0.1450
     69  CG       -19.9230    4.4680   39.3180 C.2    96  ASP96       0.3671
     70  OD1      -20.3080    4.3590   38.1190 O.co2  96  ASP96      -0.2456
     71  OD2      -19.5770    3.4840   40.0250 O.co2  96  ASP96      -0.2456
     72  N        -21.1940    8.9210   39.6790 N.am   97  LEU97      -0.1963
     73  CA       -21.4220   10.1800   40.3720 C.3    97  LEU97       0.1728
     74  C        -21.5670    9.9010   41.8500 C.2    97  LEU97       0.2616
     75  O        -22.4790    9.1750   42.2730 O.2    97  LEU97      -0.2715
     76  CB       -22.6810   10.9130   39.8650 C.3    97  LEU97       0.0311
     77  CG       -22.9690   12.2830   40.4840 C.3    97  LEU97       0.0022
     78  CD1      -21.8340   13.2640   40.2470 C.3    97  LEU97       0.0001
     79  CD2      -24.2800   12.8500   39.9870 C.3    97  LEU97       0.0001
     80  N        -20.7120   10.5320   42.6350 N.am   98  MET98      -0.1963
     81  CA       -20.7400   10.3550   44.0880 C.3    98  MET98       0.1736
     82  C        -21.3660   11.5850   44.7490 C.2    98  MET98       0.2616
     83  O        -21.5010   12.6340   44.1190 O.2    98  MET98      -0.2715
     84  CB       -19.3170   10.0740   44.5880 C.3    98  MET98       0.0427
     85  CG       -18.6750    8.8420   43.9350 C.3    98  MET98       0.0599
     86  SD       -19.4810    7.2940   44.4290 S.3    98  MET98      -0.1393
     87  CE       -18.5390    6.8950   45.9050 C.3    98  MET98       0.0692
     88  N        -21.8270   11.4420   46.0010 N.am   99  GLU99      -0.1963
     89  CA       -22.5500   12.5200   46.6920 C.3    99  GLU99       0.1733
     90  C        -21.5840   13.5810   47.2160 C.2    99  GLU99       0.2617
     91  O        -21.8790   14.7680   47.1610 O.2    99  GLU99      -0.2715
     92  CB       -23.3770   11.9290   47.8540 C.3    99  GLU99       0.0429
     93  CG       -24.1020   12.9540   48.6980 C.3    99  GLU99       0.1163
     94  CD       -25.2980   13.6220   48.0540 C.2    99  GLU99       0.3649
     95  OE1      -25.3080   13.8980   46.8440 O.co2  99  GLU99      -0.2457
     96  OE2      -26.2630   13.8990   48.7960 O.co2  99  GLU99      -0.2457
     97  N        -20.4170   13.1630   47.7280 N.am  100  THR100     -0.1937
     98  CA       -19.4620   14.1130   48.2930 C.3   100  THR100      0.2028
     99  C        -18.0460   13.4840   48.3470 C.2   100  THR100      0.2642
    100  O        -17.8200   12.3910   47.8230 O.2   100  THR100     -0.2714
    101  CB       -19.9690   14.5400   49.7250 C.3   100  THR100      0.1808
    102  OG1      -19.1990   15.6340   50.2450 O.3   100  THR100     -0.2208
    103  CG2      -19.9680   13.3970   50.7160 C.3   100  THR100      0.0379
    104  N        -17.0960   14.1950   48.9340 N.am  101  ASP101     -0.1971
    105  CA       -15.7630   13.6560   49.1890 C.3   101  ASP101      0.1709
    106  C        -15.4910   13.7800   50.6710 C.2   101  ASP101      0.2293
    107  O        -16.1840   14.5420   51.3770 O.2   101  ASP101     -0.2864
    108  CB       -14.6530   14.2360   48.2880 C.3   101  ASP101      0.1436
    109  CG       -14.4090   15.7180   48.4390 C.2   101  ASP101      0.3671
    110  OD1      -14.1740   16.1570   49.5590 O.co2 101  ASP101     -0.2456
    111  OD2      -14.3420   16.4160   47.4110 O.co2 101  ASP101     -0.2456
    112  N        -14.8270   17.4810   51.9250 N.3   104  LYS104     -0.1245
    113  CA       -16.0140   18.3140   52.1180 C.3   104  LYS104      0.1561
    114  C        -16.8020   17.8740   53.3160 C.2   104  LYS104      0.2260
    115  O        -17.3370   18.7140   54.0430 O.2   104  LYS104     -0.2867
    116  CB       -16.8890   18.2590   50.8590 C.3   104  LYS104      0.0271
    117  CG       -16.2450   18.9910   49.6810 C.3   104  LYS104      0.0035
    118  CD       -17.0880   18.9330   48.3880 C.3   104  LYS104      0.0206
    119  CE       -18.4590   19.5720   48.4770 C.3   104  LYS104      0.1093
    120  NZ       -19.5340   18.5500   48.6190 N.3   104  LYS104     -0.1314
    121  N         -9.6390   14.6060   50.0620 N.3   143  SER143     -0.1202
    122  CA       -10.2960   15.0000   48.7870 C.3   143  SER143      0.2020
    123  C        -10.2270   13.8590   47.7340 C.2   143  SER143      0.2618
    124  O        -10.9040   13.9280   46.7010 O.2   143  SER143     -0.2717
    125  CB        -9.7100   16.2910   48.2320 C.3   143  SER143      0.2103
    126  OG        -8.3420   16.0520   47.9620 O.3   143  SER143     -0.2182
    127  N         -9.3690   12.8410   47.9680 N.am  144  ASN144     -0.1974
    128  CA        -9.3040   11.7230   47.0300 C.3   144  ASN144      0.1688
    129  C        -10.1300   10.4990   47.4530 C.2   144  ASN144      0.2292
    130  O         -9.9300    9.4140   46.9390 O.2   144  ASN144     -0.2864
    131  CB        -7.8510   11.3400   46.7430 C.3   144  ASN144      0.1181
    132  CG        -7.1950   12.3030   45.7870 C.2   144  ASN144      0.2629
    133  OD1       -7.8560   12.9740   44.9710 O.2   144  ASN144     -0.2716
    134  ND2       -5.8780   12.3950   45.8640 N.am  144  ASN144     -0.0877
    135  N        -14.0580    9.5060   47.6950 N.3   146  LEU146     -0.1245
    136  CA       -15.4190    9.8600   47.3260 C.3   146  LEU146      0.1561
    137  C        -16.4090    9.0340   48.1050 C.2   146  LEU146      0.2260
    138  O        -16.1420    7.8570   48.3790 O.2   146  LEU146     -0.2867
    139  CB       -15.6370    9.6550   45.8310 C.3   146  LEU146      0.0270
    140  CG       -14.7280   10.4610   44.8890 C.3   146  LEU146      0.0019
    141  CD1      -14.8750    9.9560   43.4590 C.3   146  LEU146      0.0001
    142  CD2      -15.0360   11.9390   44.9530 C.3   146  LEU146      0.0001
    143  N         -9.9930    7.5500   44.7020 N.3   155  CYS155     -0.1221
    144  CA        -9.8420    8.0440   43.3560 C.3   155  CYS155      0.1808
    145  C         -8.4670    8.7010   43.1300 C.2   155  CYS155      0.2601
    146  O         -7.6750    8.8170   44.0510 O.2   155  CYS155     -0.2717
    147  CB       -10.9740    9.0020   43.0600 C.3   155  CYS155      0.0970
    148  SG       -10.8110   10.5490   43.9430 S.3   155  CYS155     -0.0800
    149  N         -8.2030    9.0940   41.8750 N.am  156  ASP156     -0.1973
    150  CA        -6.9880    9.7430   41.3800 C.3   156  ASP156      0.1709
    151  C         -5.7150    8.9200   41.5530 C.2   156  ASP156      0.2293
    152  O         -4.9850    9.0620   42.5300 O.2   156  ASP156     -0.2864
    153  CB        -6.7690   11.1520   41.9250 C.3   156  ASP156      0.1436
    154  CG        -5.7050   11.9250   41.1410 C.2   156  ASP156      0.3671
    155  OD1       -5.1790   11.3760   40.1290 O.co2 156  ASP156     -0.2456
    156  OD2       -5.4350   13.0800   41.5010 O.co2 156  ASP156     -0.2456
@<TRIPOS>BOND
     1    41    40    2
     2    40    39    1
     3    38    39    1
     4    39    42    1
     5    42    43    1
     6    36    35    2
     7    55    56    1
     8    35    34    1
     9    45    44    1
    10    45    46    1
    11    43    44    1
    12    26    27    1
    13    21    19   ar
    14    28    27    1
    15    28    29    2
    16    27    30    1
    17    56    57    1
    18    56    59    1
    19    33    34    1
    20    60    59    1
    21    60    61    1
    22    34    37    1
    23    58    57    2
    24    57    64   am
    25    19    20   ar
    26    19    18    1
    27    61    62    2
    28    61    63   am
    29    30    31    1
    30    30    32    1
    31    64    65    1
    32    70    69   ar
    33    18    17    1
    34    12    11    2
    35     1     2    1
    36    65    66    1
    37    65    68    1
    38    25    24    2
    39     8     6    1
    40    69    68    1
    41    69    71   ar
    42    22    23    1
    43    22    15   am
    44     6     5    1
    45    24    23    1
    46    14    17    1
    47    14    13    1
    48    14    15    1
    49    66    72   am
    50    66    67    2
    51    11    13   am
    52    11    10    1
    53    72    73    1
    54    50    49    2
    55    76    73    1
    56    76    77    1
    57     2     5    1
    58     2     3    1
    59     9    10    1
    60     9     3   am
    61    79    77    1
    62     5     7    1
    63    49    48    1
    64   155   154   ar
    65    78    77    1
    66    15    16    2
    67    73    74    1
    68     3     4    2
    69    52    54    1
    70    52    51    1
    71    53    51    1
    72   154   156   ar
    73   154   153    1
    74   150   151    1
    75   150   149    1
    76   150   153    1
    77    51    48    1
    78    48    47    1
    79   151   152    2
    80    74    75    2
    81    74    80   am
    82   149   145   am
    83    80    81    1
    84   147   144    1
    85   147   148    1
    86   145   144    1
    87   145   146    2
    88   144   143    1
    89   141   140    1
    90    85    86    1
    91    85    84    1
    92    81    84    1
    93    81    82    1
    94    83    82    2
    95    86    87    1
    96    82    88   am
    97   140   142    1
    98   140   139    1
    99   133   132    2
   100   132   134   am
   101   132   131    1
   102   139   136    1
   103    88    89    1
   104    89    90    1
   105    89    92    1
   106   124   123    2
   107   131   128    1
   108    95    94   ar
   109   130   129    2
   110   128   129    1
   111   128   127    1
   112    91    90    2
   113    90    97   am
   114   136   135    1
   115   136   137    1
   116   111   109   ar
   117    97    98    1
   118   123   127   am
   119   123   122    1
   120   100    99    2
   121    92    93    1
   122   126   125    1
   123    94    93    1
   124    94    96   ar
   125   137   138    2
   126   125   122    1
   127   108   109    1
   128   108   105    1
   129    98    99    1
   130    98   101    1
   131    99   104   am
   132   118   119    1
   133   118   117    1
   134   109   110   ar
   135   119   120    1
   136   122   121    1
   137   104   105    1
   138   105   106    1
   139   117   116    1
   140   101   102    1
   141   101   103    1
   142   106   107    2
   143   116   113    1
   144   112   113    1
   145   113   114    1
   146   114   115    2
