@<TRIPOS>MOLECULE
tmp/4zzqA01.pdb
 123 120 0 0 0
SMALL
GASTEIGER

@<TRIPOS>ATOM
      1  N         -8.1810   16.1910  -15.1690 N.3    36  ASN36      -0.1225
      2  CA        -7.9310   16.1160  -13.7270 C.3    36  ASN36       0.1785
      3  C         -6.4770   15.7640  -13.4240 C.2    36  ASN36       0.2597
      4  O         -5.9960   16.0000  -12.3120 O.2    36  ASN36      -0.2718
      5  CB        -8.8730   15.1110  -13.0480 C.3    36  ASN36       0.1169
      6  CG        -9.1550   15.4670  -11.5990 C.2    36  ASN36       0.2627
      7  OD1       -9.3670   16.6300  -11.2700 O.2    36  ASN36      -0.2716
      8  ND2       -9.1660   14.4680  -10.7290 N.am   36  ASN36      -0.0877
      9  N         -5.7890   15.2000  -14.4170 N.am   37  TRP37      -0.1962
     10  CA        -4.3350   15.0050  -14.3500 C.3    37  TRP37       0.1771
     11  C         -3.5340   16.2610  -14.7290 C.2    37  TRP37       0.2619
     12  O         -2.3160   16.2680  -14.5740 O.2    37  TRP37      -0.2715
     13  CB        -3.8910   13.8530  -15.2520 C.3    37  TRP37       0.0590
     14  CG        -3.6310   12.6020  -14.5060 C.ar   37  TRP37       0.0006
     15  CD1       -2.4180   12.1170  -14.1200 C.ar   37  TRP37       0.0946
     16  CD2       -4.6080   11.6770  -14.0260 C.ar   37  TRP37       0.0152
     17  NE1       -2.5760   10.9420  -13.4410 N.ar   37  TRP37      -0.2442
     18  CE2       -3.9110   10.6460  -13.3690 C.ar   37  TRP37       0.0810
     19  CE3       -6.0040   11.6180  -14.0930 C.ar   37  TRP37       0.0012
     20  CZ2       -4.5620    9.5630  -12.7830 C.ar   37  TRP37       0.0191
     21  CZ3       -6.6490   10.5430  -13.5180 C.ar   37  TRP37       0.0001
     22  CH2       -5.9270    9.5290  -12.8670 C.ar   37  TRP37       0.0015
     23  N         -4.2030   17.3050  -15.2220 N.am   38  ARG38      -0.1963
     24  CA        -3.5160   18.4880  -15.7620 C.3    38  ARG38       0.1729
     25  C         -3.1970   19.5030  -14.6940 C.2    38  ARG38       0.2616
     26  O         -3.7410   19.4740  -13.5960 O.2    38  ARG38      -0.2715
     27  CB        -4.3520   19.2060  -16.8320 C.3    38  ARG38       0.0348
     28  CG        -4.4980   18.4790  -18.1520 C.3    38  ARG38       0.0492
     29  CD        -5.4500   19.2370  -19.0690 C.3    38  ARG38       0.2205
     30  NE        -5.7320   18.4820  -20.2860 N.pl3  38  ARG38      -0.0865
     31  CZ        -4.8890   18.3600  -21.3070 C.cat  38  ARG38       0.5346
     32  NH1       -3.6920   18.9550  -21.2810 N.pl3  38  ARG38       0.1354
     33  NH2       -5.2490   17.6420  -22.3630 N.pl3  38  ARG38       0.1354
     34  N         -2.3150   20.4200  -15.0630 N.am   39  TRP39      -0.1974
     35  CA        -1.9270   21.5330  -14.2230 C.3    39  TRP39       0.1640
     36  C         -2.9260   22.6520  -14.3790 C.2    39  TRP39       0.2290
     37  O         -3.1930   23.1120  -15.4920 O.2    39  TRP39      -0.2864
     38  CB        -0.5440   21.9980  -14.6300 C.3    39  TRP39       0.0576
     39  CG        -0.0870   23.2420  -13.9840 C.ar   39  TRP39       0.0006
     40  CD1       -0.3470   23.6570  -12.7160 C.ar   39  TRP39       0.0946
     41  CD2        0.7600   24.2220  -14.5700 C.ar   39  TRP39       0.0152
     42  NE1        0.2750   24.8540  -12.4790 N.ar   39  TRP39      -0.2442
     43  CE2        0.9650   25.2240  -13.6040 C.ar   39  TRP39       0.0810
     44  CE3        1.3660   24.3560  -15.8290 C.ar   39  TRP39       0.0012
     45  CZ2        1.7490   26.3540  -13.8530 C.ar   39  TRP39       0.0191
     46  CZ3        2.1490   25.4730  -16.0770 C.ar   39  TRP39       0.0001
     47  CH2        2.3300   26.4600  -15.0930 C.ar   39  TRP39       0.0015
     48  N         -0.4820   27.6370   -8.9880 N.3    47  ASN47      -0.1240
     49  CA        -1.4840   26.5600   -8.9540 C.3    47  ASN47       0.1653
     50  C         -2.7770   26.8970   -8.2060 C.2    47  ASN47       0.2266
     51  O         -2.7570   27.3740   -7.0700 O.2    47  ASN47      -0.2867
     52  CB        -0.8870   25.2910   -8.3310 C.3    47  ASN47       0.1155
     53  CG         0.2550   24.7300   -9.1470 C.2    47  ASN47       0.2627
     54  OD1        1.2170   25.4400   -9.4490 O.2    47  ASN47      -0.2716
     55  ND2        0.1530   23.4590   -9.5270 N.am   47  ASN47      -0.0877
     56  N         -4.9350   24.3330   -7.7700 N.3    49  TYR49      -0.1241
     57  CA        -5.0780   23.0560   -7.0690 C.3    49  TYR49       0.1605
     58  C         -3.7130   22.3850   -6.8910 C.2    49  TYR49       0.2264
     59  O         -2.9600   22.2450   -7.8520 O.2    49  TYR49      -0.2867
     60  CB        -5.9930   22.1380   -7.8880 C.3    49  TYR49       0.0534
     61  CG        -6.2100   20.7580   -7.2930 C.ar   49  TYR49      -0.0201
     62  CD1       -7.2370   20.5210   -6.3830 C.ar   49  TYR49      -0.0009
     63  CD2       -5.3980   19.6880   -7.6520 C.ar   49  TYR49      -0.0009
     64  CE1       -7.4420   19.2600   -5.8430 C.ar   49  TYR49       0.0417
     65  CE2       -5.5960   18.4280   -7.1170 C.ar   49  TYR49       0.0417
     66  CZ        -6.6160   18.2180   -6.2120 C.ar   49  TYR49       0.1957
     67  OH        -6.8040   16.9600   -5.6830 O.3    49  TYR49      -0.2866
     68  N         -2.0120   18.8680   -5.0550 N.3    51  GLY51      -0.1225
     69  CA        -2.1390   17.5860   -4.3700 C.3    51  GLY51       0.1811
     70  C         -3.5810   17.1670   -4.1530 C.2    51  GLY51       0.2280
     71  O         -4.2180   16.6370   -5.0560 O.2    51  GLY51      -0.2866
     72  N          2.5490   17.7430  -21.4050 N.3    75  ASN75      -0.1240
     73  CA         3.7460   17.1490  -21.9700 C.3    75  ASN75       0.1653
     74  C          3.6190   15.6360  -21.7980 C.2    75  ASN75       0.2266
     75  O          3.9000   15.0950  -20.7300 O.2    75  ASN75      -0.2867
     76  CB         4.9990   17.6950  -21.2770 C.3    75  ASN75       0.1155
     77  CG         4.9360   19.1990  -21.0510 C.2    75  ASN75       0.2627
     78  OD1        4.4380   19.9470  -21.8940 O.2    75  ASN75      -0.2716
     79  ND2        5.4180   19.6450  -19.9030 N.am   75  ASN75      -0.0877
     80  N          6.1780   14.0870  -18.7860 N.3    79  VAL79      -0.1231
     81  CA         5.5930   14.0710  -17.4370 C.3    79  VAL79       0.1692
     82  C          4.6720   12.8740  -17.1770 C.2    79  VAL79       0.2592
     83  O          4.6430   12.3660  -16.0630 O.2    79  VAL79      -0.2718
     84  CB         4.8630   15.3960  -17.1300 C.3    79  VAL79       0.0266
     85  CG1        4.4230   15.4550  -15.6750 C.3    79  VAL79       0.0020
     86  CG2        5.7700   16.5760  -17.4560 C.3    79  VAL79       0.0020
     87  N          3.9530   12.4100  -18.1990 N.am   80  TYR80      -0.1976
     88  CA         2.9130   11.3720  -18.0290 C.3    80  TYR80       0.1639
     89  C          3.3140    9.9570  -18.4930 C.2    80  TYR80       0.2290
     90  O          2.5500    8.9890  -18.3040 O.2    80  TYR80      -0.2864
     91  CB         1.6130   11.8390  -18.7070 C.3    80  TYR80       0.0560
     92  CG         1.1960   13.1880  -18.1760 C.ar   80  TYR80      -0.0198
     93  CD1        0.7210   13.3270  -16.8680 C.ar   80  TYR80      -0.0009
     94  CD2        1.3470   14.3380  -18.9460 C.ar   80  TYR80      -0.0009
     95  CE1        0.3820   14.5730  -16.3580 C.ar   80  TYR80       0.0417
     96  CE2        0.9980   15.5850  -18.4500 C.ar   80  TYR80       0.0417
     97  CZ         0.5200   15.6960  -17.1570 C.ar   80  TYR80       0.1957
     98  OH         0.1940   16.9310  -16.6730 O.3    80  TYR80      -0.2866
     99  N          4.7620   12.1240  -11.2680 N.3   101  ASN101     -0.1240
    100  CA         3.4320   11.7650  -11.7740 C.3   101  ASN101      0.1653
    101  C          3.1370   10.2770  -11.5450 C.2   101  ASN101      0.2266
    102  O          4.0540    9.4460  -11.5160 O.2   101  ASN101     -0.2867
    103  CB         3.3390   12.0580  -13.2730 C.3   101  ASN101      0.1155
    104  CG         1.9680   11.7380  -13.8560 C.2   101  ASN101      0.2627
    105  OD1        1.0270   12.5130  -13.7220 O.2   101  ASN101     -0.2716
    106  ND2        1.8570   10.5990  -14.5130 N.am  101  ASN101     -0.0877
    107  N        -11.9050   17.8460  -10.7980 N.3   179  LYS179     -0.1245
    108  CA       -11.7070   19.2640  -10.5000 C.3   179  LYS179      0.1561
    109  C        -12.8050   20.0900  -11.1330 C.2   179  LYS179      0.2260
    110  O        -13.3420   21.0020  -10.5020 O.2   179  LYS179     -0.2867
    111  CB       -10.3540   19.7600  -11.0120 C.3   179  LYS179      0.0271
    112  CG        -9.1560   19.3150  -10.1930 C.3   179  LYS179      0.0035
    113  CD        -7.8830   19.3740  -11.0440 C.3   179  LYS179      0.0206
    114  CE        -6.7780   18.4930  -10.4840 C.3   179  LYS179      0.1093
    115  NZ        -5.4180   18.9500  -10.9090 N.3   179  LYS179     -0.1314
    116  N         -2.9690   12.7150   -3.8390 N.3   198  ASN198     -0.1240
    117  CA        -3.3570   13.3590   -5.0870 C.3   198  ASN198      0.1653
    118  C         -4.8590   13.6490   -5.2060 C.2   198  ASN198      0.2266
    119  O         -5.3000   14.2010   -6.2180 O.2   198  ASN198     -0.2867
    120  CB        -2.8770   12.5350   -6.2790 C.3   198  ASN198      0.1155
    121  CG        -1.4940   12.9270   -6.7310 C.2   198  ASN198      0.2627
    122  OD1       -1.3360   13.7160   -7.6630 O.2   198  ASN198     -0.2716
    123  ND2       -0.4890   12.4080   -6.0680 N.am  198  ASN198     -0.0877
@<TRIPOS>BOND
     1    33    31    1
     2    73    74    1
     3    73    72    1
     4    73    76    1
     5    78    77    2
     6    74    75    2
     7    31    32    1
     8    31    30    2
     9    76    77    1
    10    77    79   am
    11    30    29    1
    12    29    28    1
    13    94    96   ar
    14    94    92   ar
    15    80    81    1
    16    91    92    1
    17    91    88    1
    18    89    90    2
    19    89    88    1
    20    96    97   ar
    21    87    88    1
    22    87    82   am
    23    92    93   ar
    24    28    27    1
    25    86    84    1
    26    81    82    1
    27    81    84    1
    28    82    83    2
    29    97    98    1
    30    97    95   ar
    31    84    85    1
    32    93    95   ar
    33    27    24    1
    34    46    44   ar
    35    46    47   ar
    36    44    41   ar
    37    24    23    1
    38    24    25    1
    39    37    36    2
    40    13    14    1
    41    13    10    1
    42    23    11   am
    43     1     2    1
    44    47    45   ar
    45    34    25   am
    46    34    35    1
    47    11    12    2
    48    11    10    1
    49    25    26    2
    50    38    35    1
    51    38    39    1
    52    41    39   ar
    53    41    43   ar
    54   106   104   am
    55    14    15   ar
    56    14    16   ar
    57     9    10    1
    58     9     3   am
    59    36    35    1
    60    15    17   ar
    61    19    16   ar
    62    19    21   ar
    63    16    18   ar
    64    39    40   ar
    65   104   105    2
    66   104   103    1
    67    45    43   ar
    68     2     3    1
    69     2     5    1
    70    43    42   ar
    71    21    22   ar
    72    17    18   ar
    73     3     4    2
    74    18    20   ar
    75   103   100    1
    76     5     6    1
    77    22    20   ar
    78    40    42   ar
    79   100   101    1
    80   100    99    1
    81     6     7    2
    82     6     8   am
    83   101   102    2
    84   109   110    2
    85   109   108    1
    86   113   114    1
    87   113   112    1
    88   111   108    1
    89   111   112    1
    90   115   114    1
    91   107   108    1
    92    55    53   am
    93    54    53    2
    94    53    52    1
    95    48    49    1
    96    49    52    1
    97    49    50    1
    98    50    51    2
    99    60    61    1
   100    60    57    1
   101    59    58    2
   102    56    57    1
   103   122   121    2
   104    63    61   ar
   105    63    65   ar
   106    61    62   ar
   107    65    66   ar
   108    57    58    1
   109   121   120    1
   110   121   123   am
   111    62    64   ar
   112   120   117    1
   113   119   118    2
   114    66    64   ar
   115    66    67    1
   116   118   117    1
   117   117   116    1
   118    71    70    2
   119    68    69    1
   120    69    70    1
