@<TRIPOS>MOLECULE
tmp/4zzqA00.pdb
 87 84 0 0 0
SMALL
GASTEIGER

@<TRIPOS>ATOM
      1  N        -13.6330  -19.4840  -10.5320 N.3   267  GLY267     -0.1210
      2  CA       -13.1360  -20.7960  -10.1240 C.3   267  GLY267      0.1956
      3  C        -12.0390  -21.4390  -10.9560 C.2   267  GLY267      0.2612
      4  O        -11.4470  -22.4280  -10.5260 O.2   267  GLY267     -0.2717
      5  N        -11.7570  -20.9060  -12.1400 N.am  268  ASN268     -0.1960
      6  CA       -10.7040  -21.4600  -12.9900 C.3   268  ASN268      0.1819
      7  C         -9.4010  -20.6720  -12.8320 C.2   268  ASN268      0.2622
      8  O         -9.1830  -19.6760  -13.5170 O.2   268  ASN268     -0.2715
      9  CB       -11.1750  -21.4700  -14.4390 C.3   268  ASN268      0.1195
     10  CG       -10.2770  -22.2890  -15.3530 C.2   268  ASN268      0.2630
     11  OD1       -9.0470  -22.2550  -15.2400 O.2   268  ASN268     -0.2716
     12  ND2      -10.8940  -23.0220  -16.2730 N.am  268  ASN268     -0.0877
     13  N         -8.5330  -21.1540  -11.9400 N.am  269  THR269     -0.1937
     14  CA        -7.2860  -20.4700  -11.5800 C.3   269  THR269      0.2028
     15  C         -6.0890  -20.7730  -12.4760 C.2   269  THR269      0.2643
     16  O         -4.9820  -20.2990  -12.1940 O.2   269  THR269     -0.2714
     17  CB        -6.8420  -20.8480  -10.1530 C.3   269  THR269      0.1808
     18  OG1       -6.3610  -22.2000  -10.1490 O.3   269  THR269     -0.2208
     19  CG2       -8.0000  -20.6860   -9.1590 C.3   269  THR269      0.0379
     20  N         -6.2920  -21.5800  -13.5180 N.am  270  SER270     -0.1935
     21  CA        -5.2290  -21.9260  -14.4620 C.3   270  SER270      0.2055
     22  C         -5.4190  -21.1590  -15.7540 C.2   270  SER270      0.2643
     23  O         -4.5630  -21.1810  -16.6280 O.2   270  SER270     -0.2714
     24  CB        -5.2480  -23.4280  -14.7870 C.3   270  SER270      0.2130
     25  OG        -5.5910  -24.2210  -13.6620 O.3   270  SER270     -0.2179
     26  N         -6.5460  -20.4720  -15.8750 N.am  271  PHE271     -0.1973
     27  CA        -6.8940  -19.8200  -17.1170 C.3   271  PHE271      0.1639
     28  C         -6.0460  -18.5910  -17.4380 C.2   271  PHE271      0.2290
     29  O         -5.6390  -18.4170  -18.5960 O.2   271  PHE271     -0.2864
     30  CB        -8.3770  -19.4360  -17.1300 C.3   271  PHE271      0.0560
     31  CG        -8.8220  -18.8650  -18.4420 C.ar  271  PHE271     -0.0200
     32  CD1       -8.8410  -19.6590  -19.5780 C.ar  271  PHE271     -0.0042
     33  CD2       -9.1920  -17.5350  -18.5510 C.ar  271  PHE271     -0.0042
     34  CE1       -9.2330  -19.1420  -20.8000 C.ar  271  PHE271     -0.0003
     35  CE2       -9.5900  -17.0110  -19.7680 C.ar  271  PHE271     -0.0003
     36  CZ        -9.6080  -17.8180  -20.8940 C.ar  271  PHE271     -0.0000
     37  N         -3.0840  -20.6410  -19.4720 N.3   277  MET277     -0.1245
     38  CA        -3.7620  -20.8020  -20.7790 C.3   277  MET277      0.1570
     39  C         -3.6670  -19.5100  -21.5830 C.2   277  MET277      0.2261
     40  O         -3.3340  -19.5210  -22.7680 O.2   277  MET277     -0.2867
     41  CB        -5.2480  -21.1830  -20.6180 C.3   277  MET277      0.0387
     42  CG        -5.5290  -22.6620  -20.3920 C.3   277  MET277      0.0595
     43  SD        -5.9750  -23.0710  -18.6910 S.3   277  MET277     -0.1393
     44  CE        -5.4490  -24.7830  -18.6060 C.3   277  MET277      0.0692
     45  N         -9.6040  -18.6670  -28.0730 N.3   315  ILE315     -0.1231
     46  CA       -10.0280  -19.2550  -26.8040 C.3   315  ILE315      0.1692
     47  C        -11.1550  -18.4170  -26.2150 C.2   315  ILE315      0.2593
     48  O        -11.0330  -17.2020  -26.0610 O.2   315  ILE315     -0.2718
     49  CB        -8.8740  -19.3620  -25.7820 C.3   315  ILE315      0.0266
     50  CG1       -7.6940  -20.1370  -26.3760 C.3   315  ILE315      0.0019
     51  CG2       -9.3490  -20.0480  -24.5060 C.3   315  ILE315      0.0020
     52  CD1       -8.0470  -21.5260  -26.8770 C.3   315  ILE315      0.0001
     53  N        -12.2570  -19.0840  -25.9060 N.am  316  SER316     -0.1938
     54  CA       -13.4130  -18.4410  -25.3150 C.3   316  SER316      0.2055
     55  C        -13.2030  -18.3300  -23.7940 C.2   316  SER316      0.2643
     56  O        -12.2900  -18.9530  -23.2470 O.2   316  SER316     -0.2714
     57  CB       -14.6660  -19.2440  -25.6660 C.3   316  SER316      0.2130
     58  OG       -14.4210  -20.6360  -25.5330 O.3   316  SER316     -0.2179
     59  N        -14.0320  -17.5290  -23.1270 N.am  317  GLN317     -0.1963
     60  CA       -13.8590  -17.2270  -21.7010 C.3   317  GLN317      0.1733
     61  C        -13.9880  -18.4950  -20.8560 C.2   317  GLN317      0.2617
     62  O        -14.8660  -19.3110  -21.1020 O.2   317  GLN317     -0.2715
     63  CB       -14.9130  -16.1950  -21.2680 C.3   317  GLN317      0.0408
     64  CG       -14.8860  -15.7480  -19.8010 C.3   317  GLN317      0.0908
     65  CD       -13.8760  -14.6510  -19.5250 C.2   317  GLN317      0.2608
     66  OE1      -12.6830  -14.9070  -19.4020 O.2   317  GLN317     -0.2717
     67  NE2      -14.3550  -13.4240  -19.4080 N.am  317  GLN317     -0.0878
     68  N        -13.1420  -18.6480  -19.8400 N.am  318  SER318     -0.1936
     69  CA       -13.2030  -19.8400  -18.9910 C.3   318  SER318      0.2055
     70  C        -14.6110  -19.9670  -18.3910 C.2   318  SER318      0.2642
     71  O        -15.2520  -18.9600  -18.0950 O.2   318  SER318     -0.2714
     72  CB       -12.1060  -19.8200  -17.9170 C.3   318  SER318      0.2130
     73  OG       -12.4350  -19.0340  -16.7860 O.3   318  SER318     -0.2179
     74  N        -15.1160  -21.1930  -18.2820 N.am  319  VAL319     -0.1977
     75  CA       -16.4580  -21.4070  -17.7340 C.3   319  VAL319      0.1596
     76  C        -16.3990  -21.3350  -16.2180 C.2   319  VAL319      0.2287
     77  O        -15.3840  -21.6950  -15.6150 O.2   319  VAL319     -0.2864
     78  CB       -17.1000  -22.7550  -18.1590 C.3   319  VAL319      0.0276
     79  CG1      -17.5230  -22.7140  -19.6180 C.3   319  VAL319      0.0022
     80  CG2      -16.1700  -23.9340  -17.8880 C.3   319  VAL319      0.0022
     81  N        -17.0920  -22.4390  -12.4220 N.3   321  THR321     -0.1218
     82  CA       -17.0370  -23.7540  -11.8080 C.3   321  THR321      0.1862
     83  C        -17.6630  -23.7040  -10.4360 C.2   321  THR321      0.2287
     84  O        -17.4420  -24.5950   -9.6190 O.2   321  THR321     -0.2866
     85  CB       -15.5810  -24.2220  -11.6460 C.3   321  THR321      0.1770
     86  OG1      -14.9200  -23.4030  -10.6710 O.3   321  THR321     -0.2211
     87  CG2      -14.8430  -24.1270  -12.9720 C.3   321  THR321      0.0375
@<TRIPOS>BOND
     1    45    46    1
     2    52    50    1
     3    46    47    1
     4    46    49    1
     5    50    49    1
     6    47    48    2
     7    47    53   am
     8    53    54    1
     9    49    51    1
    10    57    58    1
    11    57    54    1
    12    54    55    1
    13    55    56    2
    14    55    59   am
    15    59    60    1
    16    40    39    2
    17    60    63    1
    18    60    61    1
    19    39    38    1
    20    63    64    1
    21    62    61    2
    22    36    34   ar
    23    36    35   ar
    24    61    68   am
    25    34    32   ar
    26    38    41    1
    27    38    37    1
    28    41    42    1
    29    42    43    1
    30    68    69    1
    31    64    65    1
    32    35    33   ar
    33    79    78    1
    34    32    31   ar
    35    65    67   am
    36    65    66    2
    37    69    70    1
    38    69    72    1
    39    43    44    1
    40    29    28    2
    41    33    31   ar
    42    31    30    1
    43    70    74   am
    44    70    71    2
    45    74    75    1
    46    78    80    1
    47    78    75    1
    48    72    73    1
    49    75    76    1
    50    28    27    1
    51    30    27    1
    52    27    26    1
    53    23    22    2
    54    12    10   am
    55    76    77    2
    56    26    22   am
    57    22    21    1
    58    10    11    2
    59    10     9    1
    60    24    21    1
    61    24    25    1
    62    21    20    1
    63     9     6    1
    64    20    15   am
    65     8     7    2
    66     6     7    1
    67     6     5    1
    68    87    85    1
    69     7    13   am
    70    15    16    2
    71    15    14    1
    72    81    82    1
    73     5     3   am
    74    13    14    1
    75    82    85    1
    76    82    83    1
    77    85    86    1
    78    14    17    1
    79     3     4    2
    80     3     2    1
    81     1     2    1
    82    83    84    2
    83    17    18    1
    84    17    19    1
