@<TRIPOS>MOLECULE
tmp/4zztA08.pdb
 155 148 0 0 0
SMALL
GASTEIGER

@<TRIPOS>ATOM
      1  N          4.5310    6.5810   15.5140 N.3   174  GLN174     -0.1245
      2  CA         4.3880    8.0200   15.7090 C.3   174  GLN174      0.1566
      3  C          5.3000    8.5650   16.8080 C.2   174  GLN174      0.2260
      4  O          5.3110    9.7760   17.0500 O.2   174  GLN174     -0.2867
      5  CB         2.9450    8.3820   16.0580 C.3   174  GLN174      0.0367
      6  CG         1.9060    7.9050   15.0630 C.3   174  GLN174      0.0905
      7  CD         2.2010    8.3130   13.6370 C.2   174  GLN174      0.2608
      8  OE1        2.0590    7.5140   12.7130 O.2   174  GLN174     -0.2717
      9  NE2        2.6320    9.5490   13.4530 N.am  174  GLN174     -0.0878
     10  N         -0.0500   -1.9380   11.2240 N.3   209  ASP209     -0.1239
     11  CA        -1.4750   -1.6160   11.3630 C.3   209  ASP209      0.1674
     12  C         -2.2940   -2.5640   10.5050 C.2   209  ASP209      0.2266
     13  O         -2.6220   -2.2730    9.3630 O.2   209  ASP209     -0.2867
     14  CB        -1.7450   -0.1470   11.0400 C.3   209  ASP209      0.1410
     15  CG        -1.0920    0.7850   12.0380 C.2   209  ASP209      0.3668
     16  OD1       -1.1610    0.4950   13.2510 O.co2 209  ASP209     -0.2456
     17  OD2       -0.4880    1.7920   11.6230 O.co2 209  ASP209     -0.2456
     18  N         -7.1360   -0.5850   10.6020 N.3   212  GLU212     -0.1245
     19  CA        -7.6490    0.6850   11.1110 C.3   212  GLU212      0.1567
     20  C         -8.8740    0.9990   10.3060 C.2   212  GLU212      0.2260
     21  O         -8.7950    1.1180    9.0840 O.2   212  GLU212     -0.2867
     22  CB        -6.6220    1.7850   10.9580 C.3   212  GLU212      0.0388
     23  CG        -5.3780    1.5240   11.7730 C.3   212  GLU212      0.1160
     24  CD        -4.4620    2.7070   11.7780 C.2   212  GLU212      0.3649
     25  OE1       -4.6820    3.6060   12.6150 O.co2 212  GLU212     -0.2457
     26  OE2       -3.5520    2.7410   10.9250 O.co2 212  GLU212     -0.2457
     27  N         -1.7430   -1.0400    6.9710 N.3   221  THR221     -0.1218
     28  CA        -0.5600   -0.1780    6.8740 C.3   221  THR221      0.1862
     29  C          0.6160   -0.6420    7.7310 C.2   221  THR221      0.2287
     30  O          0.6400   -0.3940    8.9360 O.2   221  THR221     -0.2866
     31  CB        -0.9000    1.2750    7.2830 C.3   221  THR221      0.1770
     32  OG1       -2.1240    1.6910    6.6610 O.3   221  THR221     -0.2211
     33  CG2        0.2120    2.2210    6.8840 C.3   221  THR221      0.0375
     34  N          4.3780    0.0320    9.0340 N.3   223  HIS223     -0.1241
     35  CA         5.2690    1.1710    9.2520 C.3   223  HIS223      0.1621
     36  C          6.6260    0.6360    9.6780 C.2   223  HIS223      0.2264
     37  O          6.7170   -0.1370   10.6340 O.2   223  HIS223     -0.2867
     38  CB         4.8010    2.0560   10.4060 C.3   223  HIS223      0.0745
     39  CG         3.4970    2.7530   10.1850 C.ar  223  HIS223      0.0817
     40  ND1        3.4060    4.1140    9.9910 N.ar  223  HIS223     -0.2268
     41  CD2        2.2260    2.2920   10.2130 C.ar  223  HIS223      0.1154
     42  CE1        2.1360    4.4570    9.8770 C.ar  223  HIS223      0.1986
     43  NE2        1.4000    3.3690   10.0080 N.ar  223  HIS223     -0.2212
     44  N          3.5190   12.4990   14.5890 N.3   241  THR241     -0.1218
     45  CA         2.3920   13.4340   14.6650 C.3   241  THR241      0.1862
     46  C          2.5680   14.5330   15.6990 C.2   241  THR241      0.2287
     47  O          1.9530   15.5950   15.6000 O.2   241  THR241     -0.2866
     48  CB         1.0850   12.7040   15.0170 C.3   241  THR241      0.1770
     49  OG1        1.3730   11.5770   15.8540 O.3   241  THR241     -0.2211
     50  CG2        0.3900   12.2400   13.7650 C.3   241  THR241      0.0375
     51  N          7.7120   16.3280   10.8390 N.3   246  ARG246     -0.1245
     52  CA         7.1160   14.9870   10.8340 C.3   246  ARG246      0.1563
     53  C          8.0680   13.8480   10.4400 C.2   246  ARG246      0.2260
     54  O          7.9910   12.7520   11.0010 O.2   246  ARG246     -0.2867
     55  CB         5.9070   14.9750    9.8960 C.3   246  ARG246      0.0307
     56  CG         5.0730   13.7090    9.9670 C.3   246  ARG246      0.0489
     57  CD         3.9840   13.7000    8.9090 C.3   246  ARG246      0.2205
     58  NE         3.2820   12.4210    8.9250 N.pl3 246  ARG246     -0.0865
     59  CZ         2.2920   12.1020    9.7530 C.cat 246  ARG246      0.5346
     60  NH1        1.8420   12.9750   10.6510 N.pl3 246  ARG246      0.1354
     61  NH2        1.7420   10.8950    9.6850 N.pl3 246  ARG246      0.1354
     62  N          6.3500    7.4200    9.9600 N.3   253  PRO253     -0.2102
     63  CA         5.0520    7.7590   10.5350 C.3   253  PRO253      0.1504
     64  C          3.8810    7.6090    9.5650 C.2   253  PRO253      0.2575
     65  O          2.7270    7.7210    9.9830 O.2   253  PRO253     -0.2718
     66  CB         5.2300    9.2200   10.9400 C.3   253  PRO253      0.0282
     67  CG         6.1960    9.7620    9.9520 C.3   253  PRO253      0.0208
     68  CD         7.0960    8.6260    9.5470 C.3   253  PRO253      0.0893
     69  N          4.1640    7.3490    8.2900 N.am  254  ASP254     -0.1974
     70  CA         3.1080    7.2620    7.2810 C.3   254  ASP254      0.1708
     71  C          2.7450    5.8300    6.9080 C.2   254  ASP254      0.2293
     72  O          1.5640    5.4930    6.7910 O.2   254  ASP254     -0.2864
     73  CB         3.5150    8.0290    6.0270 C.3   254  ASP254      0.1436
     74  CG         3.5330    9.5300    6.2390 C.2   254  ASP254      0.3671
     75  OD1        3.4070    9.9980    7.3990 O.co2 254  ASP254     -0.2456
     76  OD2        3.6850   10.2490    5.2310 O.co2 254  ASP254     -0.2456
     77  N          0.3780    2.1530    2.9610 N.3   257  ASP257     -0.1239
     78  CA        -1.0330    1.8650    3.2170 C.3   257  ASP257      0.1674
     79  C         -1.7770    1.2870    2.0200 C.2   257  ASP257      0.2266
     80  O         -1.5090    1.6580    0.8750 O.2   257  ASP257     -0.2867
     81  CB        -1.7620    3.1350    3.6740 C.3   257  ASP257      0.1410
     82  CG        -1.7110    4.2490    2.6430 C.2   257  ASP257      0.3668
     83  OD1       -0.5950    4.6640    2.2680 O.co2 257  ASP257     -0.2456
     84  OD2       -2.7790    4.7240    2.2090 O.co2 257  ASP257     -0.2456
     85  N        -10.5180    4.6460   19.2230 N.3   366  TRP366     -0.1241
     86  CA       -10.1430    6.0300   19.4660 C.3   366  TRP366      0.1605
     87  C        -10.7220    7.0160   18.4660 C.2   366  TRP366      0.2264
     88  O        -11.1550    6.6430   17.3680 O.2   366  TRP366     -0.2867
     89  CB        -8.6130    6.1710   19.5060 C.3   366  TRP366      0.0550
     90  CG        -7.8610    5.6510   18.3000 C.ar  366  TRP366      0.0003
     91  CD1       -7.7140    4.3490   17.9190 C.ar  366  TRP366      0.0946
     92  CD2       -7.1100    6.4290   17.3540 C.ar  366  TRP366      0.0152
     93  NE1       -6.9390    4.2680   16.7880 N.ar  366  TRP366     -0.2442
     94  CE2       -6.5530    5.5290   16.4210 C.ar  366  TRP366      0.0810
     95  CE3       -6.8610    7.7970   17.2020 C.ar  366  TRP366      0.0012
     96  CZ2       -5.7580    5.9550   15.3540 C.ar  366  TRP366      0.0191
     97  CZ3       -6.0680    8.2180   16.1370 C.ar  366  TRP366      0.0001
     98  CH2       -5.5320    7.2970   15.2310 C.ar  366  TRP366      0.0015
     99  N         -9.5100   11.0840   16.9600 N.3   368  ASP368     -0.1239
    100  CA        -8.2260   11.6130   16.5260 C.3   368  ASP368      0.1674
    101  C         -8.1750   13.1210   16.7180 C.2   368  ASP368      0.2266
    102  O         -8.7600   13.8780   15.9440 O.2   368  ASP368     -0.2867
    103  CB        -8.0220   11.2220   15.0580 C.3   368  ASP368      0.1410
    104  CG        -6.8070   11.8730   14.4210 C.2   368  ASP368      0.3668
    105  OD1       -5.9490   12.4340   15.1360 O.co2 368  ASP368     -0.2456
    106  OD2       -6.7160   11.8270   13.1740 O.co2 368  ASP368     -0.2456
    107  N         -5.6110   15.0780   16.3880 N.3   370  TYR370     -0.1241
    108  CA        -4.7210   15.7580   15.4420 C.3   370  TYR370      0.1605
    109  C         -5.4110   16.0680   14.1120 C.2   370  TYR370      0.2264
    110  O         -5.3910   17.2090   13.6460 O.2   370  TYR370     -0.2867
    111  CB        -3.4460   14.9390   15.1890 C.3   370  TYR370      0.0534
    112  CG        -2.5850   15.5070   14.0740 C.ar  370  TYR370     -0.0201
    113  CD1       -1.9780   16.7550   14.2040 C.ar  370  TYR370     -0.0009
    114  CD2       -2.3900   14.8030   12.8850 C.ar  370  TYR370     -0.0009
    115  CE1       -1.2010   17.2850   13.1840 C.ar  370  TYR370      0.0417
    116  CE2       -1.6130   15.3240   11.8630 C.ar  370  TYR370      0.0417
    117  CZ        -1.0210   16.5640   12.0170 C.ar  370  TYR370      0.1957
    118  OH        -0.2480   17.0850   11.0030 O.3   370  TYR370     -0.2866
    119  N         -7.5880   11.4800    7.4480 N.3   375  TRP375     -0.1241
    120  CA        -6.6400   10.6370    6.7090 C.3   375  TRP375      0.1605
    121  C         -7.2010    9.2410    6.3700 C.2   375  TRP375      0.2264
    122  O         -6.7770    8.6200    5.3920 O.2   375  TRP375     -0.2867
    123  CB        -5.3440   10.5060    7.5150 C.3   375  TRP375      0.0550
    124  CG        -5.5680    9.9230    8.8720 C.ar  375  TRP375      0.0003
    125  CD1       -5.8370   10.5990   10.0220 C.ar  375  TRP375      0.0946
    126  CD2       -5.5600    8.5370    9.2100 C.ar  375  TRP375      0.0152
    127  NE1       -5.9960    9.7170   11.0590 N.ar  375  TRP375     -0.2442
    128  CE2       -5.8310    8.4430   10.5870 C.ar  375  TRP375      0.0810
    129  CE3       -5.3470    7.3620    8.4810 C.ar  375  TRP375      0.0012
    130  CZ2       -5.8960    7.2180   11.2560 C.ar  375  TRP375      0.0191
    131  CZ3       -5.4110    6.1450    9.1490 C.ar  375  TRP375      0.0001
    132  CH2       -5.6780    6.0870   10.5180 C.ar  375  TRP375      0.0015
    133  N         -8.0920   14.4800    2.0410 N.3   381  TYR381     -0.1241
    134  CA        -7.0570   14.7470    3.0260 C.3   381  TYR381      0.1605
    135  C         -5.7290   15.0160    2.3150 C.2   381  TYR381      0.2264
    136  O         -5.2870   14.1820    1.5260 O.2   381  TYR381     -0.2867
    137  CB        -6.9010   13.5900    4.0120 C.3   381  TYR381      0.0534
    138  CG        -5.9940   13.9610    5.1590 C.ar  381  TYR381     -0.0201
    139  CD1       -6.4470   14.7890    6.1790 C.ar  381  TYR381     -0.0009
    140  CD2       -4.6700   13.5320    5.1980 C.ar  381  TYR381     -0.0009
    141  CE1       -5.6180   15.1550    7.2220 C.ar  381  TYR381      0.0417
    142  CE2       -3.8330   13.8930    6.2370 C.ar  381  TYR381      0.0417
    143  CZ        -4.3150   14.7030    7.2470 C.ar  381  TYR381      0.1957
    144  OH        -3.4930   15.0670    8.2850 O.3   381  TYR381     -0.2866
    145  N        -10.0600    9.4360    0.6330 N.3   394  ARG394     -0.1245
    146  CA        -9.9360    8.1690    1.3800 C.3   394  ARG394      0.1563
    147  C        -11.2630    7.5620    1.8480 C.2   394  ARG394      0.2260
    148  O        -11.2980    6.4060    2.2650 O.2   394  ARG394     -0.2867
    149  CB        -9.0030    8.3390    2.5770 C.3   394  ARG394      0.0307
    150  CG        -7.5870    8.7710    2.2070 C.3   394  ARG394      0.0489
    151  CD        -7.4050   10.2340    2.5150 C.3   394  ARG394      0.2205
    152  NE        -6.1340   10.7680    2.0370 N.pl3 394  ARG394     -0.0865
    153  CZ        -4.9470   10.5610    2.6040 C.cat 394  ARG394      0.5346
    154  NH1       -4.8120    9.7840    3.6810 N.pl3 394  ARG394      0.1354
    155  NH2       -3.8740   11.1360    2.0760 N.pl3 394  ARG394      0.1354
@<TRIPOS>BOND
     1   145   146    1
     2    80    79    2
     3   146   147    1
     4   146   149    1
     5   136   135    2
     6   147   148    2
     7    79    78    1
     8   152   151    1
     9   152   153    2
    10   133   134    1
    11   155   153    1
    12   150   151    1
    13   150   149    1
    14    84    82   ar
    15    83    82   ar
    16   135   134    1
    17   153   154    1
    18    82    81    1
    19    77    78    1
    20   134   137    1
    21    78    81    1
    22   137   138    1
    23   138   140   ar
    24   138   139   ar
    25   140   142   ar
    26    76    74   ar
    27   122   121    2
    28    73    74    1
    29    73    70    1
    30   139   141   ar
    31   142   143   ar
    32    74    75   ar
    33   121   120    1
    34    32    31    1
    35   120   119    1
    36   120   123    1
    37    72    71    2
    38    28    27    1
    39    28    31    1
    40    28    29    1
    41    33    31    1
    42    71    70    1
    43   141   143   ar
    44   143   144    1
    45    70    69    1
    46   123   124    1
    47    29    30    2
    48    69    64   am
    49   129   131   ar
    50   129   126   ar
    51   124   126   ar
    52   124   125   ar
    53    57    58    1
    54    57    56    1
    55    58    59    2
    56    34    35    1
    57    21    20    2
    58   131   132   ar
    59   126   128   ar
    60    35    36    1
    61    35    38    1
    62    13    12    2
    63    68    67    1
    64    68    62    1
    65    64    65    2
    66    64    63    1
    67    36    37    2
    68    61    59    1
    69    59    60    1
    70    42    40   ar
    71    42    43   ar
    72    55    56    1
    73    55    52    1
    74    67    66    1
    75    62    63    1
    76    40    39   ar
    77    43    41   ar
    78   125   127   ar
    79    39    41   ar
    80    39    38    1
    81    20    19    1
    82    53    52    1
    83    53    54    2
    84    12    11    1
    85   132   130   ar
    86    63    66    1
    87   128   127   ar
    88   128   130   ar
    89    18    19    1
    90    52    51    1
    91    26    24   ar
    92    22    19    1
    93    22    23    1
    94   118   117    1
    95    14    11    1
    96    14    15    1
    97    10    11    1
    98    17    15   ar
    99    23    24    1
   100    24    25   ar
   101   116   117   ar
   102   116   114   ar
   103   117   115   ar
   104    15    16   ar
   105     8     7    2
   106   114   112   ar
   107   106   104   ar
   108   115   113   ar
   109     9     7   am
   110     7     6    1
   111   110   109    2
   112    50    48    1
   113   112   113   ar
   114   112   111    1
   115   109   108    1
   116   104   103    1
   117   104   105   ar
   118    44    45    1
   119    45    48    1
   120    45    46    1
   121    48    49    1
   122   103   100    1
   123     6     5    1
   124   111   108    1
   125    98    96   ar
   126    98    97   ar
   127    96    94   ar
   128   108   107    1
   129     1     2    1
   130    47    46    2
   131     2     5    1
   132     2     3    1
   133   102   101    2
   134    97    95   ar
   135    94    93   ar
   136    94    92   ar
   137   100   101    1
   138   100    99    1
   139    93    91   ar
   140     3     4    2
   141    95    92   ar
   142    92    90   ar
   143    88    87    2
   144    91    90   ar
   145    90    89    1
   146    87    86    1
   147    85    86    1
   148    86    89    1
