@<TRIPOS>MOLECULE
tmp/4zzuA04.pdb
 169 161 0 0 0
SMALL
GASTEIGER

@<TRIPOS>ATOM
      1  N         26.4570    6.6830   65.5770 N.3   174  GLN174     -0.1245
      2  CA        26.2810    8.1220   65.7850 C.3   174  GLN174      0.1566
      3  C         27.1830    8.6600   66.8930 C.2   174  GLN174      0.2260
      4  O         27.2040    9.8680   67.1330 O.2   174  GLN174     -0.2867
      5  CB        24.8260    8.4450   66.1420 C.3   174  GLN174      0.0367
      6  CG        23.8050    7.9860   65.1180 C.3   174  GLN174      0.0905
      7  CD        24.1120    8.4880   63.7200 C.2   174  GLN174      0.2608
      8  OE1       24.5870    9.6160   63.5410 O.2   174  GLN174     -0.2717
      9  NE2       23.8570    7.6520   62.7210 N.am  174  GLN174     -0.0878
     10  N         27.4770   -0.5370   63.6220 N.3   211  GLU211     -0.1245
     11  CA        26.0380   -0.6330   63.8310 C.3   211  GLU211      0.1567
     12  C         25.3610   -1.2500   62.6190 C.2   211  GLU211      0.2260
     13  O         25.5440   -0.7810   61.4960 O.2   211  GLU211     -0.2867
     14  CB        25.4670    0.7560   64.1090 C.3   211  GLU211      0.0388
     15  CG        23.9730    0.7780   64.3800 C.3   211  GLU211      0.1160
     16  CD        23.4240    2.1800   64.5280 C.2   211  GLU211      0.3649
     17  OE1       24.2040    3.1400   64.7010 O.co2 211  GLU211     -0.2457
     18  OE2       22.1890    2.3210   64.4730 O.co2 211  GLU211     -0.2457
     19  N         21.7880   -1.7480   61.2560 N.3   213  ASP213     -0.1239
     20  CA        20.3700   -1.4260   61.3660 C.3   213  ASP213      0.1674
     21  C         19.5730   -2.3940   60.5080 C.2   213  ASP213      0.2266
     22  O         19.2600   -2.1130   59.3520 O.2   213  ASP213     -0.2867
     23  CB        20.1090    0.0290   60.9770 C.3   213  ASP213      0.1410
     24  CG        20.7890    1.0090   61.9170 C.2   213  ASP213      0.3668
     25  OD1       20.8730    0.7090   63.1250 O.co2 213  ASP213     -0.2456
     26  OD2       21.2290    2.0820   61.4550 O.co2 213  ASP213     -0.2456
     27  N         14.6760   -0.3840   60.6260 N.3   216  GLU216     -0.1245
     28  CA        14.2000    0.9020   61.1150 C.3   216  GLU216      0.1567
     29  C         12.9550    1.2040   60.3120 C.2   216  GLU216      0.2260
     30  O         13.0240    1.3200   59.0910 O.2   216  GLU216     -0.2867
     31  CB        15.2570    1.9850   60.9190 C.3   216  GLU216      0.0388
     32  CG        16.3730    1.9250   61.9490 C.3   216  GLU216      0.1160
     33  CD        17.4080    3.0110   61.7560 C.2   216  GLU216      0.3649
     34  OE1       18.1820    2.9370   60.7800 O.co2 216  GLU216     -0.2457
     35  OE2       17.4560    3.9330   62.5950 O.co2 216  GLU216     -0.2457
     36  N         20.0900   -0.8250   56.9440 N.3   225  THR225     -0.1218
     37  CA        21.2990    0.0000   56.8250 C.3   225  THR225      0.1862
     38  C         22.4670   -0.4810   57.6890 C.2   225  THR225      0.2287
     39  O         22.4900   -0.2220   58.8900 O.2   225  THR225     -0.2866
     40  CB        20.9900    1.4590   57.2180 C.3   225  THR225      0.1770
     41  OG1       19.7680    1.8740   56.5980 O.3   225  THR225     -0.2211
     42  CG2       22.1180    2.3960   56.8040 C.3   225  THR225      0.0375
     43  N         26.2150    0.0900   59.0460 N.3   227  HIS227     -0.1241
     44  CA        27.1220    1.2230   59.2770 C.3   227  HIS227      0.1621
     45  C         28.4810    0.6750   59.6880 C.2   227  HIS227      0.2264
     46  O         28.5650   -0.1770   60.5780 O.2   227  HIS227     -0.2867
     47  CB        26.6490    2.1150   60.4290 C.3   227  HIS227      0.0745
     48  CG        25.3710    2.8520   60.1760 C.ar  227  HIS227      0.0817
     49  ND1       25.3240    4.2220   60.0350 N.ar  227  HIS227     -0.2268
     50  CD2       24.0890    2.4230   60.1100 C.ar  227  HIS227      0.1154
     51  CE1       24.0710    4.6020   59.8660 C.ar  227  HIS227      0.1986
     52  NE2       23.3010    3.5310   59.9110 N.ar  227  HIS227     -0.2212
     53  N         25.1330   12.4640   64.4400 N.3   245  THR245     -0.1218
     54  CA        23.9390   13.3080   64.3760 C.3   245  THR245      0.1862
     55  C         24.0510   14.6470   65.1110 C.2   245  THR245      0.2287
     56  O         23.7150   15.6870   64.5440 O.2   245  THR245     -0.2866
     57  CB        22.7030   12.5270   64.8710 C.3   245  THR245      0.1770
     58  OG1       22.3990   11.4910   63.9290 O.3   245  THR245     -0.2211
     59  CG2       21.4890   13.4350   65.0140 C.3   245  THR245      0.0375
     60  N         29.4900   16.4080   60.8880 N.3   250  ARG250     -0.1245
     61  CA        28.9150   15.0600   60.8890 C.3   250  ARG250      0.1563
     62  C         29.8890   13.9520   60.4810 C.2   250  ARG250      0.2260
     63  O         29.8770   12.8730   61.0740 O.2   250  ARG250     -0.2867
     64  CB        27.6910   15.0260   59.9660 C.3   250  ARG250      0.0307
     65  CG        26.8840   13.7400   60.0260 C.3   250  ARG250      0.0489
     66  CD        25.7730   13.7350   58.9890 C.3   250  ARG250      0.2205
     67  NE        25.0570   12.4620   58.9840 N.pl3 250  ARG250     -0.0865
     68  CZ        24.0940   12.1220   59.8380 C.cat 250  ARG250      0.5346
     69  NH1       23.6960   12.9600   60.7930 N.pl3 250  ARG250      0.1354
     70  NH2       23.5200   10.9270   59.7410 N.pl3 250  ARG250      0.1354
     71  N         28.2140    7.5370   60.0160 N.3   257  PRO257     -0.2102
     72  CA        26.9000    7.8880   60.5580 C.3   257  PRO257      0.1504
     73  C         25.7380    7.7300   59.5760 C.2   257  PRO257      0.2575
     74  O         24.5850    7.8680   59.9820 O.2   257  PRO257     -0.2718
     75  CB        27.0630    9.3630   60.9290 C.3   257  PRO257      0.0282
     76  CG        28.0600    9.8850   59.9610 C.3   257  PRO257      0.0208
     77  CD        28.9710    8.7390   59.6080 C.3   257  PRO257      0.0893
     78  N         26.0320    7.4530   58.3070 N.am  258  ASP258     -0.1974
     79  CA        24.9960    7.3830   57.2720 C.3   258  ASP258      0.1708
     80  C         24.6690    5.9550   56.8550 C.2   258  ASP258      0.2293
     81  O         23.5030    5.6170   56.6360 O.2   258  ASP258     -0.2864
     82  CB        25.4190    8.1800   56.0360 C.3   258  ASP258      0.1436
     83  CG        25.3710    9.6850   56.2490 C.2   258  ASP258      0.3671
     84  OD1       25.2240   10.1470   57.4010 O.co2 258  ASP258     -0.2456
     85  OD2       25.4940   10.4140   55.2440 O.co2 258  ASP258     -0.2456
     86  N         22.1980    2.3690   52.9470 N.3   261  ASP261     -0.1239
     87  CA        20.7860    2.1130   53.2210 C.3   261  ASP261      0.1674
     88  C         20.0350    1.5500   52.0220 C.2   261  ASP261      0.2266
     89  O         20.3230    1.9040   50.8760 O.2   261  ASP261     -0.2867
     90  CB        20.0940    3.4000   53.6750 C.3   261  ASP261      0.1410
     91  CG        20.1240    4.4850   52.6140 C.2   261  ASP261      0.3668
     92  OD1       21.2370    4.8930   52.2190 O.co2 261  ASP261     -0.2456
     93  OD2       19.0370    4.9200   52.1760 O.co2 261  ASP261     -0.2456
     94  N         11.3470    4.9480   69.2560 N.3   370  TRP370     -0.1241
     95  CA        11.7790    6.3170   69.4880 C.3   370  TRP370      0.1605
     96  C         11.2040    7.3160   68.4990 C.2   370  TRP370      0.2264
     97  O         10.7620    6.9500   67.4040 O.2   370  TRP370     -0.2867
     98  CB        13.3140    6.3960   69.4880 C.3   370  TRP370      0.0550
     99  CG        14.0280    5.9300   68.2230 C.ar  370  TRP370      0.0003
    100  CD1       14.1710    4.6440   67.7770 C.ar  370  TRP370      0.0946
    101  CD2       14.7370    6.7550   67.2900 C.ar  370  TRP370      0.0152
    102  NE1       14.9100    4.6230   66.6150 N.ar  370  TRP370     -0.2442
    103  CE2       15.2740    5.9060   66.2980 C.ar  370  TRP370      0.0810
    104  CE3       14.9690    8.1310   67.1950 C.ar  370  TRP370      0.0012
    105  CZ2       16.0200    6.3940   65.2180 C.ar  370  TRP370      0.0191
    106  CZ3       15.7230    8.6140   66.1260 C.ar  370  TRP370      0.0001
    107  CH2       16.2320    7.7480   65.1540 C.ar  370  TRP370      0.0015
    108  N         12.3630   11.4140   66.9730 N.3   372  ASP372     -0.1239
    109  CA        13.6220   11.9790   66.5100 C.3   372  ASP372      0.1674
    110  C         13.6650   13.4920   66.7150 C.2   372  ASP372      0.2266
    111  O         13.0840   14.2490   65.9390 O.2   372  ASP372     -0.2867
    112  CB        13.7730   11.6090   65.0330 C.3   372  ASP372      0.1410
    113  CG        15.0030   12.2000   64.3790 C.2   372  ASP372      0.3668
    114  OD1       15.8780   12.7660   65.0730 O.co2 372  ASP372     -0.2456
    115  OD2       15.0830   12.0990   63.1360 O.co2 372  ASP372     -0.2456
    116  N         16.1980   15.4030   66.3130 N.3   374  TYR374     -0.1227
    117  CA        17.0980   16.0320   65.3460 C.3   374  TYR374      0.1736
    118  C         16.4190   16.3310   64.0090 C.2   374  TYR374      0.2595
    119  O         16.4870   17.4540   63.5150 O.2   374  TYR374     -0.2718
    120  CB        18.3230   15.1450   65.1100 C.3   374  TYR374      0.0548
    121  CG        19.2760   15.6850   64.0660 C.ar  374  TYR374     -0.0200
    122  CD1       20.0470   16.8160   64.3200 C.ar  374  TYR374     -0.0009
    123  CD2       19.4160   15.0570   62.8300 C.ar  374  TYR374     -0.0009
    124  CE1       20.9240   17.3100   63.3700 C.ar  374  TYR374      0.0417
    125  CE2       20.2930   15.5420   61.8740 C.ar  374  TYR374      0.0417
    126  CZ        21.0440   16.6680   62.1510 C.ar  374  TYR374      0.1957
    127  OH        21.9160   17.1590   61.2080 O.3   374  TYR374     -0.2866
    128  N         15.7770   15.3210   63.4240 N.am  375  ALA375     -0.1980
    129  CA        15.2290   15.4280   62.0660 C.3   375  ALA375      0.1597
    130  C         13.8100   14.8730   61.8860 C.2   375  ALA375      0.2287
    131  O         13.3940   14.6120   60.7560 O.2   375  ALA375     -0.2864
    132  CB        16.1760   14.7590   61.0770 C.3   375  ALA375      0.0319
    133  N         14.1610   11.6790   57.3760 N.3   379  TRP379     -0.1241
    134  CA        15.1110   10.8610   56.6210 C.3   379  TRP379      0.1605
    135  C         14.5500    9.4730   56.2900 C.2   379  TRP379      0.2264
    136  O         14.9490    8.8700   55.3000 O.2   379  TRP379     -0.2867
    137  CB        16.4260   10.7230   57.3960 C.3   379  TRP379      0.0550
    138  CG        16.2460   10.1270   58.7580 C.ar  379  TRP379      0.0003
    139  CD1       16.0260   10.7990   59.9270 C.ar  379  TRP379      0.0946
    140  CD2       16.2540    8.7370   59.0890 C.ar  379  TRP379      0.0152
    141  NE1       15.8950    9.9100   60.9650 N.ar  379  TRP379     -0.2442
    142  CE2       16.0360    8.6380   60.4790 C.ar  379  TRP379      0.0810
    143  CE3       16.4300    7.5640   58.3460 C.ar  379  TRP379      0.0012
    144  CZ2       15.9900    7.4120   61.1420 C.ar  379  TRP379      0.0191
    145  CZ3       16.3790    6.3440   59.0070 C.ar  379  TRP379      0.0001
    146  CH2       16.1610    6.2790   60.3880 C.ar  379  TRP379      0.0015
    147  N         13.6230   14.7440   51.9940 N.3   385  TYR385     -0.1241
    148  CA        14.6710   15.0270   52.9650 C.3   385  TYR385      0.1605
    149  C         15.9910   15.2370   52.2220 C.2   385  TYR385      0.2264
    150  O         16.3710   14.3820   51.4250 O.2   385  TYR385     -0.2867
    151  CB        14.8150   13.8950   53.9760 C.3   385  TYR385      0.0534
    152  CG        15.7460   14.2580   55.1070 C.ar  385  TYR385     -0.0201
    153  CD1       15.3350   15.1240   56.1150 C.ar  385  TYR385     -0.0009
    154  CD2       17.0470   13.7650   55.1550 C.ar  385  TYR385     -0.0009
    155  CE1       16.1840   15.4770   57.1480 C.ar  385  TYR385      0.0417
    156  CE2       17.9040   14.1120   56.1860 C.ar  385  TYR385      0.0417
    157  CZ        17.4670   14.9690   57.1790 C.ar  385  TYR385      0.1957
    158  OH        18.3070   15.3190   58.2100 O.3   385  TYR385     -0.2866
    159  N         11.6380    9.6700   50.5690 N.3   398  ARG398     -0.1245
    160  CA        11.7860    8.4300   51.3490 C.3   398  ARG398      0.1563
    161  C         10.4700    7.8080   51.8220 C.2   398  ARG398      0.2260
    162  O         10.4470    6.6460   52.2310 O.2   398  ARG398     -0.2867
    163  CB        12.6910    8.6630   52.5590 C.3   398  ARG398      0.0307
    164  CG        14.1060    9.0950   52.2030 C.3   398  ARG398      0.0489
    165  CD        14.3100   10.5600   52.5110 C.3   398  ARG398      0.2205
    166  NE        15.5760   11.0490   51.9680 N.pl3 398  ARG398     -0.0865
    167  CZ        16.7780   10.8270   52.4980 C.cat 398  ARG398      0.5346
    168  NH1       16.9230   10.0970   53.5980 N.pl3 398  ARG398      0.1354
    169  NH2       17.8540   11.3360   51.9130 N.pl3 398  ARG398      0.1354
@<TRIPOS>BOND
     1   159   160    1
     2    89    88    2
     3   160   161    1
     4   160   163    1
     5   150   149    2
     6   161   162    2
     7   169   167    1
     8   166   167    2
     9   166   165    1
    10   147   148    1
    11    88    87    1
    12    93    91   ar
    13   164   165    1
    14   164   163    1
    15    92    91   ar
    16   149   148    1
    17   167   168    1
    18    91    90    1
    19    86    87    1
    20   148   151    1
    21    87    90    1
    22   151   152    1
    23   152   154   ar
    24   152   153   ar
    25   154   156   ar
    26    85    83   ar
    27   136   135    2
    28    82    83    1
    29    82    79    1
    30   153   155   ar
    31   156   157   ar
    32    83    84   ar
    33   135   134    1
    34    41    40    1
    35   134   133    1
    36   134   137    1
    37    81    80    2
    38    42    40    1
    39    37    36    1
    40    37    40    1
    41    37    38    1
    42    80    79    1
    43   155   157   ar
    44   157   158    1
    45    79    78    1
    46   137   138    1
    47    38    39    2
    48    78    73   am
    49   143   145   ar
    50   143   140   ar
    51   138   140   ar
    52   138   139   ar
    53    67    66    1
    54    67    68    2
    55    66    65    1
    56   145   146   ar
    57    43    44    1
    58   140   142   ar
    59    30    29    2
    60    44    45    1
    61    44    47    1
    62    22    21    2
    63    73    74    2
    64    73    72    1
    65    77    76    1
    66    77    71    1
    67    45    46    2
    68    70    68    1
    69    68    69    1
    70    51    52   ar
    71    51    49   ar
    72    52    50   ar
    73   139   141   ar
    74    76    75    1
    75    64    65    1
    76    64    61    1
    77    71    72    1
    78    49    48   ar
    79    50    48   ar
    80    48    47    1
    81    29    28    1
    82   146   144   ar
    83   142   141   ar
    84   142   144   ar
    85    62    61    1
    86    62    63    2
    87    21    20    1
    88    72    75    1
    89    27    28    1
    90   131   130    2
    91    34    33   ar
    92    60    61    1
    93    31    28    1
    94    31    32    1
    95    23    20    1
    96    23    24    1
    97   132   129    1
    98   127   126    1
    99    19    20    1
   100    26    24   ar
   101    13    12    2
   102    33    32    1
   103    33    35   ar
   104   125   126   ar
   105   125   123   ar
   106   130   129    1
   107    24    25   ar
   108   129   128    1
   109   126   124   ar
   110    12    11    1
   111     9     7   am
   112   123   121   ar
   113   115   113   ar
   114   124   122   ar
   115   128   118   am
   116   119   118    2
   117     8     7    2
   118    10    11    1
   119     7     6    1
   120    11    14    1
   121    58    57    1
   122   118   117    1
   123   121   122   ar
   124   121   120    1
   125    14    15    1
   126    54    53    1
   127    54    57    1
   128    54    55    1
   129   113   112    1
   130   113   114   ar
   131    15    16    1
   132    18    16   ar
   133    16    17   ar
   134    56    55    2
   135    57    59    1
   136   112   109    1
   137   120   117    1
   138     6     5    1
   139   107   105   ar
   140   107   106   ar
   141   105   103   ar
   142   117   116    1
   143     1     2    1
   144     2     5    1
   145     2     3    1
   146   111   110    2
   147   106   104   ar
   148   103   102   ar
   149   103   101   ar
   150   109   110    1
   151   109   108    1
   152   102   100   ar
   153     3     4    2
   154   104   101   ar
   155   101    99   ar
   156    97    96    2
   157   100    99   ar
   158    99    98    1
   159    96    95    1
   160    94    95    1
   161    95    98    1
