@<TRIPOS>MOLECULE
tmp/4zzuA05.pdb
 147 146 0 0 0
SMALL
GASTEIGER

@<TRIPOS>ATOM
      1  N         20.1540    4.5000   80.4750 N.3    36  ASN36      -0.1225
      2  CA        19.7120    5.9060   80.4490 C.3    36  ASN36       0.1785
      3  C         18.2890    6.1250   80.9520 C.2    36  ASN36       0.2597
      4  O         17.9970    7.1790   81.5080 O.2    36  ASN36      -0.2718
      5  CB        19.8380    6.5230   79.0500 C.3    36  ASN36       0.1169
      6  CG        21.0630    7.4030   78.9030 C.2    36  ASN36       0.2627
      7  OD1       22.1610    7.0230   79.2960 O.2    36  ASN36      -0.2716
      8  ND2       20.8780    8.5930   78.3350 N.am   36  ASN36      -0.0877
      9  N         17.4140    5.1390   80.7630 N.am   37  TRP37      -0.1962
     10  CA        16.0100    5.2670   81.1680 C.3    37  TRP37       0.1771
     11  C         15.7810    5.0780   82.6680 C.2    37  TRP37       0.2619
     12  O         14.7010    5.3940   83.1690 O.2    37  TRP37      -0.2715
     13  CB        15.1370    4.2710   80.3970 C.3    37  TRP37       0.0590
     14  CG        14.6440    4.7960   79.0840 C.ar   37  TRP37       0.0006
     15  CD1       13.4000    5.2850   78.8160 C.ar   37  TRP37       0.0946
     16  CD2       15.3780    4.8700   77.8580 C.ar   37  TRP37       0.0152
     17  NE1       13.3120    5.6680   77.5000 N.ar   37  TRP37      -0.2442
     18  CE2       14.5140    5.4280   76.8890 C.ar   37  TRP37       0.0810
     19  CE3       16.6850    4.5260   77.4830 C.ar   37  TRP37       0.0012
     20  CZ2       14.9090    5.6400   75.5670 C.ar   37  TRP37       0.0191
     21  CZ3       17.0790    4.7430   76.1710 C.ar   37  TRP37       0.0001
     22  CH2       16.1900    5.2940   75.2280 C.ar   37  TRP37       0.0015
     23  N         16.7880    4.5730   83.3760 N.am   38  ARG38      -0.1963
     24  CA        16.6370    4.1820   84.7760 C.3    38  ARG38       0.1729
     25  C         16.7370    5.3280   85.7630 C.2    38  ARG38       0.2616
     26  O         17.2750    6.3900   85.4720 O.2    38  ARG38      -0.2715
     27  CB        17.7020    3.1520   85.1510 C.3    38  ARG38       0.0348
     28  CG        17.6060    1.8650   84.3620 C.3    38  ARG38       0.0492
     29  CD        18.7050    0.8950   84.7440 C.3    38  ARG38       0.2205
     30  NE        18.5790   -0.3170   83.9470 N.pl3  38  ARG38      -0.0865
     31  CZ        17.7640   -1.3360   84.2200 C.cat  38  ARG38       0.5346
     32  NH1       17.0100   -1.3360   85.3140 N.pl3  38  ARG38       0.1354
     33  NH2       17.7160   -2.3740   83.3950 N.pl3  38  ARG38       0.1354
     34  N         16.2200    5.0780   86.9550 N.am   39  TRP39      -0.1974
     35  CA        16.4730    5.9320   88.0990 C.3    39  TRP39       0.1640
     36  C         17.9460    5.8060   88.4850 C.2    39  TRP39       0.2290
     37  O         18.4570    4.6980   88.6450 O.2    39  TRP39      -0.2864
     38  CB        15.5620    5.5050   89.2470 C.3    39  TRP39       0.0576
     39  CG        15.6540    6.3230   90.4910 C.ar   39  TRP39       0.0006
     40  CD1       15.9950    7.6430   90.6040 C.ar   39  TRP39       0.0946
     41  CD2       15.3550    5.8710   91.8110 C.ar   39  TRP39       0.0152
     42  NE1       15.9450    8.0310   91.9260 N.ar   39  TRP39      -0.2442
     43  CE2       15.5520    6.9600   92.6840 C.ar   39  TRP39       0.0810
     44  CE3       14.9510    4.6410   92.3430 C.ar   39  TRP39       0.0012
     45  CZ2       15.3510    6.8570   94.0610 C.ar   39  TRP39       0.0191
     46  CZ3       14.7520    4.5410   93.7060 C.ar   39  TRP39       0.0001
     47  CH2       14.9550    5.6440   94.5510 C.ar   39  TRP39       0.0015
     48  N         18.5510   11.7300   93.9080 N.3    48  ASN48      -0.1240
     49  CA        18.8650   11.5910   92.4890 C.3    48  ASN48       0.1653
     50  C         20.2570   12.1130   92.1500 C.2    48  ASN48       0.2266
     51  O         20.6750   13.1510   92.6560 O.2    48  ASN48      -0.2867
     52  CB        17.8570   12.3690   91.6410 C.3    48  ASN48       0.1155
     53  CG        16.4550   11.8060   91.7240 C.2    48  ASN48       0.2627
     54  OD1       16.2060   10.8060   92.3980 O.2    48  ASN48      -0.2716
     55  ND2       15.5270   12.4500   91.0290 N.am   48  ASN48      -0.0877
     56  N         20.7320   12.4290   88.8750 N.3    50  TYR50      -0.1227
     57  CA        20.2870   13.0500   87.6370 C.3    50  TYR50       0.1736
     58  C         18.7680   13.0920   87.6800 C.2    50  TYR50       0.2596
     59  O         18.1270   12.1290   88.1050 O.2    50  TYR50      -0.2718
     60  CB        20.7730   12.2150   86.4480 C.3    50  TYR50       0.0548
     61  CG        20.3430   12.6980   85.0790 C.ar   50  TYR50      -0.0200
     62  CD1       19.1020   12.3520   84.5530 C.ar   50  TYR50      -0.0009
     63  CD2       21.1910   13.4750   84.2970 C.ar   50  TYR50      -0.0009
     64  CE1       18.7100   12.7810   83.2950 C.ar   50  TYR50       0.0417
     65  CE2       20.8080   13.9050   83.0340 C.ar   50  TYR50       0.0417
     66  CZ        19.5660   13.5590   82.5400 C.ar   50  TYR50       0.1957
     67  OH        19.1950   13.9780   81.2800 O.3    50  TYR50      -0.2866
     68  N         18.1960   14.2150   87.2570 N.am   51  THR51      -0.1939
     69  CA        16.7470   14.3620   87.1650 C.3    51  THR51       0.2028
     70  C         16.4150   15.1320   85.9000 C.2    51  THR51       0.2642
     71  O         16.9110   16.2430   85.7030 O.2    51  THR51      -0.2714
     72  CB        16.1730   15.1340   88.3670 C.3    51  THR51       0.1808
     73  OG1       16.6730   14.5770   89.5880 O.3    51  THR51      -0.2208
     74  CG2       14.6460   15.0670   88.3710 C.3    51  THR51       0.0379
     75  N         15.5710   14.5410   85.0560 N.am   52  GLY52      -0.1954
     76  CA        15.1070   15.1910   83.8370 C.3    52  GLY52       0.1869
     77  C         16.2070   15.3880   82.8160 C.2    52  GLY52       0.2309
     78  O         16.4650   14.5170   81.9880 O.2    52  GLY52      -0.2863
     79  N          6.1930    1.5880   84.2610 N.3    80  THR80      -0.1203
     80  CA         6.9010    2.8370   84.0050 C.3    80  THR80       0.1994
     81  C          7.2110    3.0330   82.5220 C.2    80  THR80       0.2617
     82  O          7.1090    4.1470   82.0060 O.2    80  THR80      -0.2717
     83  CB         8.2040    2.8980   84.8240 C.3    80  THR80       0.1784
     84  OG1        7.8940    2.7150   86.2110 O.3    80  THR80      -0.2211
     85  CG2        8.9190    4.2340   84.6340 C.3    80  THR80       0.0376
     86  N          7.5780    1.9510   81.8370 N.am   81  TYR81      -0.1975
     87  CA         8.1340    2.0620   80.4850 C.3    81  TYR81       0.1639
     88  C          7.2550    1.5080   79.3650 C.2    81  TYR81       0.2290
     89  O          7.5860    1.6830   78.1960 O.2    81  TYR81      -0.2864
     90  CB         9.5280    1.4290   80.4560 C.3    81  TYR81       0.0560
     91  CG        10.4400    2.0680   81.4730 C.ar   81  TYR81      -0.0198
     92  CD1       11.0030    3.3160   81.2290 C.ar   81  TYR81      -0.0009
     93  CD2       10.7000    1.4570   82.6950 C.ar   81  TYR81      -0.0009
     94  CE1       11.8210    3.9280   82.1590 C.ar   81  TYR81       0.0417
     95  CE2       11.5150    2.0640   83.6400 C.ar   81  TYR81       0.0417
     96  CZ        12.0790    3.2980   83.3640 C.ar   81  TYR81       0.1957
     97  OH        12.8900    3.9120   84.2920 O.3    81  TYR81      -0.2866
     98  N          4.9680    9.4770   86.2340 N.3   100  GLN100     -0.1231
     99  CA         5.3760   10.5470   85.3240 C.3   100  GLN100      0.1698
    100  C          5.3060   10.0210   83.8920 C.2   100  GLN100      0.2592
    101  O          5.0930    8.8320   83.6750 O.2   100  GLN100     -0.2718
    102  CB         6.7830   11.0380   85.6650 C.3   100  GLN100      0.0381
    103  CG         6.9010   11.5320   87.1010 C.3   100  GLN100      0.0905
    104  CD         8.1690   12.3180   87.3760 C.2   100  GLN100      0.2608
    105  OE1        8.1500   13.3000   88.1220 O.2   100  GLN100     -0.2717
    106  NE2        9.2760   11.8920   86.7810 N.am  100  GLN100     -0.0878
    107  N          5.4600   10.9100   82.9170 N.am  101  LYS101     -0.1966
    108  CA         5.3900   10.5120   81.5130 C.3   101  LYS101      0.1728
    109  C          6.7160    9.9070   81.0560 C.2   101  LYS101      0.2616
    110  O          7.7790   10.4610   81.3270 O.2   101  LYS101     -0.2715
    111  CB         5.0350   11.7150   80.6350 C.3   101  LYS101      0.0311
    112  CG         4.7430   11.3560   79.1860 C.3   101  LYS101      0.0038
    113  CD         4.2680   12.5640   78.3940 C.3   101  LYS101      0.0206
    114  CE         3.8260   12.1720   76.9940 C.3   101  LYS101      0.1093
    115  NZ         3.4040   13.3550   76.1940 N.3   101  LYS101     -0.1314
    116  N          6.6440    8.7650   80.3730 N.am  102  ASN102     -0.1958
    117  CA         7.8150    8.1790   79.7280 C.3   102  ASN102      0.1819
    118  C          7.6110    8.0790   78.2270 C.2   102  ASN102      0.2621
    119  O          6.5630    7.6160   77.7740 O.2   102  ASN102     -0.2715
    120  CB         8.1180    6.7880   80.2740 C.3   102  ASN102      0.1195
    121  CG         9.3050    6.1460   79.5770 C.2   102  ASN102      0.2630
    122  OD1       10.4560    6.4800   79.8570 O.2   102  ASN102     -0.2716
    123  ND2        9.0310    5.2450   78.6410 N.am  102  ASN102     -0.0877
    124  N          8.6260    8.4900   77.4720 N.am  103  VAL103     -0.1977
    125  CA         8.5930    8.4200   76.0170 C.3   103  VAL103      0.1596
    126  C          9.6420    7.4320   75.5050 C.2   103  VAL103      0.2287
    127  O         10.8390    7.5950   75.7440 O.2   103  VAL103     -0.2864
    128  CB         8.8070    9.8090   75.3820 C.3   103  VAL103      0.0276
    129  CG1        8.8410    9.7090   73.8590 C.3   103  VAL103      0.0022
    130  CG2        7.7080   10.7630   75.8320 C.3   103  VAL103      0.0022
    131  N         24.5650    8.7180   79.7690 N.3   180  LYS180     -0.1245
    132  CA        24.9940    9.1320   81.1040 C.3   180  LYS180      0.1561
    133  C         26.2740    8.4330   81.5350 C.2   180  LYS180      0.2260
    134  O         27.0660    9.0000   82.2880 O.2   180  LYS180     -0.2867
    135  CB        23.8840    8.8650   82.1180 C.3   180  LYS180      0.0271
    136  CG        22.6720    9.7480   81.9080 C.3   180  LYS180      0.0035
    137  CD        21.4430    9.2080   82.6150 C.3   180  LYS180      0.0206
    138  CE        20.2050    9.9110   82.1070 C.3   180  LYS180      0.1093
    139  NZ        18.9500    9.4150   82.7280 N.3   180  LYS180     -0.1314
    140  N         14.0920   15.6260   78.6000 N.3   199  ASN199     -0.1240
    141  CA        14.6540   14.4260   79.2000 C.3   199  ASN199      0.1653
    142  C         16.1150   14.1760   78.8780 C.2   199  ASN199      0.2266
    143  O         16.6910   13.2100   79.3680 O.2   199  ASN199     -0.2867
    144  CB        13.8440   13.2180   78.7420 C.3   199  ASN199      0.1155
    145  CG        12.4560   13.2050   79.3260 C.2   199  ASN199      0.2627
    146  OD1       11.4690   13.3500   78.6050 O.2   199  ASN199     -0.2716
    147  ND2       12.3690   13.0540   80.6400 N.am  199  ASN199     -0.0877
@<TRIPOS>BOND
     1   129   128    1
     2    22    20   ar
     3    22    21   ar
     4   128   130    1
     5   128   125    1
     6   126   127    2
     7   126   125    1
     8    20    18   ar
     9   125   124    1
    10    21    19   ar
    11   115   114    1
    12    18    17   ar
    13    18    16   ar
    14   114   113    1
    15   124   118   am
    16    19    16   ar
    17    17    15   ar
    18   119   118    2
    19    16    14   ar
    20    89    88    2
    21   118   117    1
    22     8     6   am
    23   113   112    1
    24   140   141    1
    25   146   145    2
    26   123   121   am
    27   144   141    1
    28   144   145    1
    29    15    14   ar
    30   142   141    1
    31   142   143    2
    32     6     5    1
    33     6     7    2
    34     5     2    1
    35    14    13    1
    36   112   111    1
    37   145   147   am
    38    88    87    1
    39   121   122    2
    40   121   120    1
    41   117   120    1
    42   117   116    1
    43   131   132    1
    44   116   109   am
    45    13    10    1
    46     2     1    1
    47     2     3    1
    48    90    87    1
    49    90    91    1
    50    87    86    1
    51   111   108    1
    52     9     3   am
    53     9    10    1
    54     3     4    2
    55   109   110    2
    56   109   108    1
    57   132   133    1
    58   132   135    1
    59    10    11    1
    60    92    91   ar
    61    92    94   ar
    62    67    66    1
    63    91    93   ar
    64   108   107    1
    65   133   134    2
    66    86    81   am
    67   136   135    1
    68   136   137    1
    69    78    77    2
    70    82    81    2
    71   138   137    1
    72   138   139    1
    73    94    96   ar
    74    81    80    1
    75    66    65   ar
    76    66    64   ar
    77    11    12    2
    78    11    23   am
    79    93    95   ar
    80    77    76    1
    81   107   100   am
    82    65    63   ar
    83    64    62   ar
    84    96    95   ar
    85    96    97    1
    86    23    24    1
    87    33    31    1
    88   101   100    2
    89    76    75    1
    90   100    99    1
    91    30    31    2
    92    30    29    1
    93    80    79    1
    94    80    83    1
    95    31    32    1
    96    63    61   ar
    97    28    29    1
    98    28    27    1
    99    62    61   ar
   100    85    83    1
   101    24    27    1
   102    24    25    1
   103    83    84    1
   104    75    70   am
   105    61    60    1
   106    99   102    1
   107    99    98    1
   108    26    25    2
   109   102   103    1
   110    71    70    2
   111    25    34   am
   112    70    69    1
   113    60    57    1
   114   106   104   am
   115    34    35    1
   116   103   104    1
   117    69    68    1
   118    69    72    1
   119    68    58   am
   120   104   105    2
   121    57    58    1
   122    57    56    1
   123    58    59    2
   124    35    36    1
   125    35    38    1
   126    72    74    1
   127    72    73    1
   128    36    37    2
   129    38    39    1
   130    39    40   ar
   131    39    41   ar
   132    40    42   ar
   133    55    53   am
   134    52    53    1
   135    52    49    1
   136    53    54    2
   137    41    44   ar
   138    41    43   ar
   139    42    43   ar
   140    50    49    1
   141    50    51    2
   142    44    46   ar
   143    49    48    1
   144    43    45   ar
   145    46    47   ar
   146    45    47   ar
