@<TRIPOS>MOLECULE
tmp/4zzuA06.pdb
 110 107 0 0 0
SMALL
GASTEIGER

@<TRIPOS>ATOM
      1  N         20.1540    4.5000   80.4750 N.3    36  ASN36      -0.1225
      2  CA        19.7120    5.9060   80.4490 C.3    36  ASN36       0.1785
      3  C         18.2890    6.1250   80.9520 C.2    36  ASN36       0.2597
      4  O         17.9970    7.1790   81.5080 O.2    36  ASN36      -0.2718
      5  CB        19.8380    6.5230   79.0500 C.3    36  ASN36       0.1169
      6  CG        21.0630    7.4030   78.9030 C.2    36  ASN36       0.2627
      7  OD1       22.1610    7.0230   79.2960 O.2    36  ASN36      -0.2716
      8  ND2       20.8780    8.5930   78.3350 N.am   36  ASN36      -0.0877
      9  N         17.4140    5.1390   80.7630 N.am   37  TRP37      -0.1976
     10  CA        16.0100    5.2670   81.1680 C.3    37  TRP37       0.1640
     11  C         15.7810    5.0780   82.6680 C.2    37  TRP37       0.2290
     12  O         14.7010    5.3940   83.1690 O.2    37  TRP37      -0.2864
     13  CB        15.1370    4.2710   80.3970 C.3    37  TRP37       0.0576
     14  CG        14.6440    4.7960   79.0840 C.ar   37  TRP37       0.0006
     15  CD1       13.4000    5.2850   78.8160 C.ar   37  TRP37       0.0946
     16  CD2       15.3780    4.8700   77.8580 C.ar   37  TRP37       0.0152
     17  NE1       13.3120    5.6680   77.5000 N.ar   37  TRP37      -0.2442
     18  CE2       14.5140    5.4280   76.8890 C.ar   37  TRP37       0.0810
     19  CE3       16.6850    4.5260   77.4830 C.ar   37  TRP37       0.0012
     20  CZ2       14.9090    5.6400   75.5670 C.ar   37  TRP37       0.0191
     21  CZ3       17.0790    4.7430   76.1710 C.ar   37  TRP37       0.0001
     22  CH2       16.1900    5.2940   75.2280 C.ar   37  TRP37       0.0015
     23  N         20.7320   12.4290   88.8750 N.3    50  TYR50      -0.1241
     24  CA        20.2870   13.0500   87.6370 C.3    50  TYR50       0.1605
     25  C         18.7680   13.0920   87.6800 C.2    50  TYR50       0.2264
     26  O         18.1270   12.1290   88.1050 O.2    50  TYR50      -0.2867
     27  CB        20.7730   12.2150   86.4480 C.3    50  TYR50       0.0534
     28  CG        20.3430   12.6980   85.0790 C.ar   50  TYR50      -0.0201
     29  CD1       19.1020   12.3520   84.5530 C.ar   50  TYR50      -0.0009
     30  CD2       21.1910   13.4750   84.2970 C.ar   50  TYR50      -0.0009
     31  CE1       18.7100   12.7810   83.2950 C.ar   50  TYR50       0.0417
     32  CE2       20.8080   13.9050   83.0340 C.ar   50  TYR50       0.0417
     33  CZ        19.5660   13.5590   82.5400 C.ar   50  TYR50       0.1957
     34  OH        19.1950   13.9780   81.2800 O.3    50  TYR50      -0.2866
     35  N         15.5710   14.5410   85.0560 N.3    52  GLY52      -0.1225
     36  CA        15.1070   15.1910   83.8370 C.3    52  GLY52       0.1811
     37  C         16.2070   15.3880   82.8160 C.2    52  GLY52       0.2280
     38  O         16.4650   14.5170   81.9880 O.2    52  GLY52      -0.2866
     39  N          7.5780    1.9510   81.8370 N.3    81  TYR81      -0.1241
     40  CA         8.1340    2.0620   80.4850 C.3    81  TYR81       0.1605
     41  C          7.2550    1.5080   79.3650 C.2    81  TYR81       0.2264
     42  O          7.5860    1.6830   78.1960 O.2    81  TYR81      -0.2867
     43  CB         9.5280    1.4290   80.4560 C.3    81  TYR81       0.0534
     44  CG        10.4400    2.0680   81.4730 C.ar   81  TYR81      -0.0201
     45  CD1       11.0030    3.3160   81.2290 C.ar   81  TYR81      -0.0009
     46  CD2       10.7000    1.4570   82.6950 C.ar   81  TYR81      -0.0009
     47  CE1       11.8210    3.9280   82.1590 C.ar   81  TYR81       0.0417
     48  CE2       11.5150    2.0640   83.6400 C.ar   81  TYR81       0.0417
     49  CZ        12.0790    3.2980   83.3640 C.ar   81  TYR81       0.1957
     50  OH        12.8900    3.9120   84.2920 O.3    81  TYR81      -0.2866
     51  N          6.6440    8.7650   80.3730 N.3   102  ASN102     -0.1225
     52  CA         7.8150    8.1790   79.7280 C.3   102  ASN102      0.1785
     53  C          7.6110    8.0790   78.2270 C.2   102  ASN102      0.2597
     54  O          6.5630    7.6160   77.7740 O.2   102  ASN102     -0.2718
     55  CB         8.1180    6.7880   80.2740 C.3   102  ASN102      0.1169
     56  CG         9.3050    6.1460   79.5770 C.2   102  ASN102      0.2627
     57  OD1       10.4560    6.4800   79.8570 O.2   102  ASN102     -0.2716
     58  ND2        9.0310    5.2450   78.6410 N.am  102  ASN102     -0.0877
     59  N          8.6260    8.4900   77.4720 N.am  103  VAL103     -0.1980
     60  CA         8.5930    8.4200   76.0170 C.3   103  VAL103      0.1595
     61  C          9.6420    7.4320   75.5050 C.2   103  VAL103      0.2287
     62  O         10.8390    7.5950   75.7440 O.2   103  VAL103     -0.2864
     63  CB         8.8070    9.8090   75.3820 C.3   103  VAL103      0.0276
     64  CG1        8.8410    9.7090   73.8590 C.3   103  VAL103      0.0022
     65  CG2        7.7080   10.7630   75.8320 C.3   103  VAL103      0.0022
     66  N         24.6300   11.6730   74.4470 N.3   178  ASP178     -0.1239
     67  CA        23.5170   11.7890   75.3880 C.3   178  ASP178      0.1674
     68  C         23.5020   10.6720   76.4340 C.2   178  ASP178      0.2266
     69  O         22.6110   10.6320   77.2810 O.2   178  ASP178     -0.2867
     70  CB        22.1820   11.8140   74.6350 C.3   178  ASP178      0.1410
     71  CG        21.9760   10.5890   73.7630 C.2   178  ASP178      0.3668
     72  OD1       22.8240    9.6780   73.7980 O.co2 178  ASP178     -0.2456
     73  OD2       20.9620   10.5390   73.0380 O.co2 178  ASP178     -0.2456
     74  N         24.5650    8.7180   79.7690 N.3   180  LYS180     -0.1245
     75  CA        24.9940    9.1320   81.1040 C.3   180  LYS180      0.1561
     76  C         26.2740    8.4330   81.5350 C.2   180  LYS180      0.2260
     77  O         27.0660    9.0000   82.2880 O.2   180  LYS180     -0.2867
     78  CB        23.8840    8.8650   82.1180 C.3   180  LYS180      0.0271
     79  CG        22.6720    9.7480   81.9080 C.3   180  LYS180      0.0035
     80  CD        21.4430    9.2080   82.6150 C.3   180  LYS180      0.0206
     81  CE        20.2050    9.9110   82.1070 C.3   180  LYS180      0.1093
     82  NZ        18.9500    9.4150   82.7280 N.3   180  LYS180     -0.1314
     83  N         28.2580   18.5900   80.2760 N.3   191  TRP191     -0.1241
     84  CA        26.8400   18.3520   80.0240 C.3   191  TRP191      0.1605
     85  C         26.0930   19.6590   79.8190 C.2   191  TRP191      0.2264
     86  O         26.2820   20.6150   80.5720 O.2   191  TRP191     -0.2867
     87  CB        26.1990   17.5750   81.1730 C.3   191  TRP191      0.0550
     88  CG        24.7990   17.1110   80.8900 C.ar  191  TRP191      0.0003
     89  CD1       23.6360   17.7760   81.1690 C.ar  191  TRP191      0.0946
     90  CD2       24.4160   15.8760   80.2750 C.ar  191  TRP191      0.0152
     91  NE1       22.5540   17.0250   80.7700 N.ar  191  TRP191     -0.2442
     92  CE2       23.0040   15.8520   80.2230 C.ar  191  TRP191      0.0810
     93  CE3       25.1280   14.7760   79.7800 C.ar  191  TRP191      0.0012
     94  CZ2       22.2940   14.7770   79.6860 C.ar  191  TRP191      0.0191
     95  CZ3       24.4190   13.7070   79.2480 C.ar  191  TRP191      0.0001
     96  CH2       23.0190   13.7160   79.2070 C.ar  191  TRP191      0.0015
     97  N         14.0920   15.6260   78.6000 N.3   199  ASN199     -0.1225
     98  CA        14.6540   14.4260   79.2000 C.3   199  ASN199      0.1785
     99  C         16.1150   14.1760   78.8780 C.2   199  ASN199      0.2597
    100  O         16.6910   13.2100   79.3680 O.2   199  ASN199     -0.2718
    101  CB        13.8440   13.2180   78.7420 C.3   199  ASN199      0.1169
    102  CG        12.4560   13.2050   79.3260 C.2   199  ASN199      0.2627
    103  OD1       11.4690   13.3500   78.6050 O.2   199  ASN199     -0.2716
    104  ND2       12.3690   13.0540   80.6400 N.am  199  ASN199     -0.0877
    105  N         16.7300   15.0320   78.0740 N.am  200  SER200     -0.1952
    106  CA        18.0490   14.7120   77.5600 C.3   200  SER200      0.1924
    107  C         18.9880   15.9000   77.5190 C.2   200  SER200      0.2314
    108  O         18.6270   17.0250   77.8680 O.2   200  SER200     -0.2863
    109  CB        17.9250   14.0930   76.1670 C.3   200  SER200      0.2116
    110  OG        19.1210   13.4210   75.8180 O.3   200  SER200     -0.2180
@<TRIPOS>BOND
     1    73    71   ar
     2    71    72   ar
     3    71    70    1
     4    64    63    1
     5    66    67    1
     6    70    67    1
     7    22    20   ar
     8    22    21   ar
     9    63    65    1
    10    63    60    1
    11    67    68    1
    12    61    62    2
    13    61    60    1
    14    20    18   ar
    15   110   109    1
    16    60    59    1
    17   109   106    1
    18    21    19   ar
    19    68    69    2
    20    18    17   ar
    21    18    16   ar
    22    59    53   am
    23    19    16   ar
    24    17    15   ar
    25   107   106    1
    26   107   108    2
    27   106   105    1
    28    54    53    2
    29    16    14   ar
    30   105    99   am
    31    42    41    2
    32    53    52    1
    33     8     6   am
    34    97    98    1
    35   103   102    2
    36    58    56   am
    37   101    98    1
    38   101   102    1
    39    15    14   ar
    40    99    98    1
    41    99   100    2
    42     6     5    1
    43     6     7    2
    44     5     2    1
    45    14    13    1
    46    96    95   ar
    47    96    94   ar
    48    95    93   ar
    49   102   104   am
    50    41    40    1
    51    56    57    2
    52    56    55    1
    53    94    92   ar
    54    52    55    1
    55    52    51    1
    56    74    75    1
    57    93    90   ar
    58    85    84    1
    59    85    86    2
    60    84    83    1
    61    84    87    1
    62    92    90   ar
    63    92    91   ar
    64    90    88   ar
    65    13    10    1
    66     2     1    1
    67     2     3    1
    68    43    40    1
    69    43    44    1
    70    40    39    1
    71     9     3   am
    72     9    10    1
    73    91    89   ar
    74    88    89   ar
    75    88    87    1
    76     3     4    2
    77    75    76    1
    78    75    78    1
    79    10    11    1
    80    45    44   ar
    81    45    47   ar
    82    34    33    1
    83    44    46   ar
    84    76    77    2
    85    79    78    1
    86    79    80    1
    87    38    37    2
    88    81    80    1
    89    81    82    1
    90    47    49   ar
    91    33    32   ar
    92    33    31   ar
    93    11    12    2
    94    46    48   ar
    95    37    36    1
    96    32    30   ar
    97    31    29   ar
    98    49    48   ar
    99    49    50    1
   100    36    35    1
   101    30    28   ar
   102    29    28   ar
   103    28    27    1
   104    27    24    1
   105    24    25    1
   106    24    23    1
   107    25    26    2
