@<TRIPOS>MOLECULE
tmp/4zzuA08.pdb
 150 144 0 0 0
SMALL
GASTEIGER

@<TRIPOS>ATOM
      1  N         17.4140    5.1390   80.7630 N.3    37  TRP37      -0.1241
      2  CA        16.0100    5.2670   81.1680 C.3    37  TRP37       0.1605
      3  C         15.7810    5.0780   82.6680 C.2    37  TRP37       0.2264
      4  O         14.7010    5.3940   83.1690 O.2    37  TRP37      -0.2867
      5  CB        15.1370    4.2710   80.3970 C.3    37  TRP37       0.0550
      6  CG        14.6440    4.7960   79.0840 C.ar   37  TRP37       0.0003
      7  CD1       13.4000    5.2850   78.8160 C.ar   37  TRP37       0.0946
      8  CD2       15.3780    4.8700   77.8580 C.ar   37  TRP37       0.0152
      9  NE1       13.3120    5.6680   77.5000 N.ar   37  TRP37      -0.2442
     10  CE2       14.5140    5.4280   76.8890 C.ar   37  TRP37       0.0810
     11  CE3       16.6850    4.5260   77.4830 C.ar   37  TRP37       0.0012
     12  CZ2       14.9090    5.6400   75.5670 C.ar   37  TRP37       0.0191
     13  CZ3       17.0790    4.7430   76.1710 C.ar   37  TRP37       0.0001
     14  CH2       16.1900    5.2940   75.2280 C.ar   37  TRP37       0.0015
     15  N         11.6100    3.6530   74.5090 N.3   105  SER105     -0.1202
     16  CA        12.4840    2.7570   75.2600 C.3   105  SER105      0.2020
     17  C         13.5240    2.1510   74.3360 C.2   105  SER105      0.2618
     18  O         13.3560    2.1370   73.1170 O.2   105  SER105     -0.2717
     19  CB        11.6820    1.6400   75.9390 C.3   105  SER105      0.2103
     20  OG        11.0480    0.7970   74.9920 O.3   105  SER105     -0.2182
     21  N         14.6120    1.6770   74.9310 N.am  106  ARG106     -0.1979
     22  CA        15.6050    0.8810   74.2230 C.3   106  ARG106      0.1597
     23  C         15.9250   -0.3150   75.1070 C.2   106  ARG106      0.2287
     24  O         16.1760   -0.1490   76.3000 O.2   106  ARG106     -0.2864
     25  CB        16.8620    1.6980   73.9350 C.3   106  ARG106      0.0334
     26  CG        17.9410    0.9030   73.2230 C.3   106  ARG106      0.0492
     27  CD        19.0100    1.7840   72.6050 C.3   106  ARG106      0.2205
     28  NE        19.8670    2.4440   73.5960 N.pl3 106  ARG106     -0.0865
     29  CZ        19.9460    3.7600   73.7960 C.cat 106  ARG106      0.5346
     30  NH1       19.2100    4.6070   73.0890 N.pl3 106  ARG106      0.1354
     31  NH2       20.7750    4.2430   74.7150 N.pl3 106  ARG106      0.1354
     32  N         12.8960    0.3720   65.9290 N.3   142  ALA142     -0.1245
     33  CA        14.1850   -0.0890   65.4380 C.3   142  ALA142      0.1562
     34  C         14.5940   -1.4020   66.0870 C.2   142  ALA142      0.2260
     35  O         14.5650   -1.5440   67.3130 O.2   142  ALA142     -0.2867
     36  CB        15.2520    0.9710   65.6610 C.3   142  ALA142      0.0290
     37  N         17.9660   -3.7200   65.7710 N.3   144  TYR144     -0.1241
     38  CA        19.3070   -3.5690   65.2220 C.3   144  TYR144      0.1605
     39  C         20.3610   -4.1960   66.1120 C.2   144  TYR144      0.2264
     40  O         20.0500   -4.7400   67.1700 O.2   144  TYR144     -0.2867
     41  CB        19.6090   -2.0870   64.9460 C.3   144  TYR144      0.0534
     42  CG        19.6170   -1.1420   66.1330 C.ar  144  TYR144     -0.0201
     43  CD1       18.4300   -0.7110   66.7230 C.ar  144  TYR144     -0.0009
     44  CD2       20.8130   -0.6310   66.6280 C.ar  144  TYR144     -0.0009
     45  CE1       18.4390    0.1760   67.7890 C.ar  144  TYR144      0.0417
     46  CE2       20.8300    0.2570   67.6910 C.ar  144  TYR144      0.0417
     47  CZ        19.6450    0.6610   68.2650 C.ar  144  TYR144      0.1957
     48  OH        19.6630    1.5510   69.3210 O.3   144  TYR144     -0.2866
     49  N         25.9940    0.8230   76.0160 N.3   170  TYR170     -0.1241
     50  CA        25.5480    1.1860   74.6770 C.3   170  TYR170      0.1605
     51  C         26.5740    2.0270   73.9190 C.2   170  TYR170      0.2264
     52  O         27.2650    2.8720   74.4940 O.2   170  TYR170     -0.2867
     53  CB        24.2140    1.9320   74.7280 C.3   170  TYR170      0.0534
     54  CG        23.6190    2.1690   73.3600 C.ar  170  TYR170     -0.0201
     55  CD1       23.1810    1.1010   72.5820 C.ar  170  TYR170     -0.0009
     56  CD2       23.5090    3.4540   72.8330 C.ar  170  TYR170     -0.0009
     57  CE1       22.6440    1.3070   71.3270 C.ar  170  TYR170      0.0417
     58  CE2       22.9660    3.6660   71.5810 C.ar  170  TYR170      0.0417
     59  CZ        22.5380    2.5880   70.8340 C.ar  170  TYR170      0.1957
     60  OH        22.0050    2.7830   69.5850 O.3   170  TYR170     -0.2866
     61  N         26.8860    3.3140   69.4120 N.3   172  ASP172     -0.1239
     62  CA        26.4180    3.1100   68.0370 C.3   172  ASP172      0.1674
     63  C         27.2050    3.9940   67.0640 C.2   172  ASP172      0.2266
     64  O         28.1470    4.6820   67.4780 O.2   172  ASP172     -0.2867
     65  CB        24.8730    3.2190   67.9250 C.3   172  ASP172      0.1410
     66  CG        24.3400    4.6370   68.0340 C.2   172  ASP172      0.3668
     67  OD1       25.0430    5.5980   67.6840 O.co2 172  ASP172     -0.2456
     68  OD2       23.1700    4.7860   68.4490 O.co2 172  ASP172     -0.2456
     69  N         26.4570    6.6830   65.5770 N.3   174  GLN174     -0.1245
     70  CA        26.2810    8.1220   65.7850 C.3   174  GLN174      0.1566
     71  C         27.1830    8.6600   66.8930 C.2   174  GLN174      0.2260
     72  O         27.2040    9.8680   67.1330 O.2   174  GLN174     -0.2867
     73  CB        24.8260    8.4450   66.1420 C.3   174  GLN174      0.0367
     74  CG        23.8050    7.9860   65.1180 C.3   174  GLN174      0.0905
     75  CD        24.1120    8.4880   63.7200 C.2   174  GLN174      0.2608
     76  OE1       24.5870    9.6160   63.5410 O.2   174  GLN174     -0.2717
     77  NE2       23.8570    7.6520   62.7210 N.am  174  GLN174     -0.0878
     78  N         26.8910    8.5710   70.2050 N.3   176  PRO176     -0.2116
     79  CA        25.9980    9.3860   71.0260 C.3   176  PRO176      0.1372
     80  C         26.6640    9.9650   72.2670 C.2   176  PRO176      0.2244
     81  O         27.3290    9.2430   73.0170 O.2   176  PRO176     -0.2868
     82  CB        24.8840    8.4060   71.4260 C.3   176  PRO176      0.0268
     83  CG        25.4680    7.0510   71.2230 C.3   176  PRO176      0.0207
     84  CD        26.3680    7.2060   70.0410 C.3   176  PRO176      0.0892
     85  N         24.6300   11.6730   74.4470 N.3   178  ASP178     -0.1239
     86  CA        23.5170   11.7890   75.3880 C.3   178  ASP178      0.1674
     87  C         23.5020   10.6720   76.4340 C.2   178  ASP178      0.2266
     88  O         22.6110   10.6320   77.2810 O.2   178  ASP178     -0.2867
     89  CB        22.1820   11.8140   74.6350 C.3   178  ASP178      0.1410
     90  CG        21.9760   10.5890   73.7630 C.2   178  ASP178      0.3668
     91  OD1       22.8240    9.6780   73.7980 O.co2 178  ASP178     -0.2456
     92  OD2       20.9620   10.5390   73.0380 O.co2 178  ASP178     -0.2456
     93  N         27.4770   -0.5370   63.6220 N.3   211  GLU211     -0.1245
     94  CA        26.0380   -0.6330   63.8310 C.3   211  GLU211      0.1567
     95  C         25.3610   -1.2500   62.6190 C.2   211  GLU211      0.2260
     96  O         25.5440   -0.7810   61.4960 O.2   211  GLU211     -0.2867
     97  CB        25.4670    0.7560   64.1090 C.3   211  GLU211      0.0388
     98  CG        23.9730    0.7780   64.3800 C.3   211  GLU211      0.1160
     99  CD        23.4240    2.1800   64.5280 C.2   211  GLU211      0.3649
    100  OE1       24.2040    3.1400   64.7010 O.co2 211  GLU211     -0.2457
    101  OE2       22.1890    2.3210   64.4730 O.co2 211  GLU211     -0.2457
    102  N         14.6760   -0.3840   60.6260 N.3   216  GLU216     -0.1245
    103  CA        14.2000    0.9020   61.1150 C.3   216  GLU216      0.1567
    104  C         12.9550    1.2040   60.3120 C.2   216  GLU216      0.2260
    105  O         13.0240    1.3200   59.0910 O.2   216  GLU216     -0.2867
    106  CB        15.2570    1.9850   60.9190 C.3   216  GLU216      0.0388
    107  CG        16.3730    1.9250   61.9490 C.3   216  GLU216      0.1160
    108  CD        17.4080    3.0110   61.7560 C.2   216  GLU216      0.3649
    109  OE1       18.1820    2.9370   60.7800 O.co2 216  GLU216     -0.2457
    110  OE2       17.4560    3.9330   62.5950 O.co2 216  GLU216     -0.2457
    111  N         24.5280   14.6320   66.3520 N.3   246  TYR246     -0.1241
    112  CA        24.5800   15.8660   67.1510 C.3   246  TYR246      0.1605
    113  C         25.9560   16.5470   67.1610 C.2   246  TYR246      0.2264
    114  O         26.3170   17.2230   68.1290 O.2   246  TYR246     -0.2867
    115  CB        24.0750   15.5980   68.5710 C.3   246  TYR246      0.0534
    116  CG        22.5720   15.4850   68.6340 C.ar  246  TYR246     -0.0201
    117  CD1       21.7750   16.6240   68.6560 C.ar  246  TYR246     -0.0009
    118  CD2       21.9450   14.2440   68.6540 C.ar  246  TYR246     -0.0009
    119  CE1       20.3950   16.5320   68.7050 C.ar  246  TYR246      0.0417
    120  CE2       20.5640   14.1420   68.7030 C.ar  246  TYR246      0.0417
    121  CZ        19.7960   15.2890   68.7280 C.ar  246  TYR246      0.1957
    122  OH        18.4260   15.1910   68.7790 O.3   246  TYR246     -0.2866
    123  N         14.1240   -1.1550   70.0620 N.3   368  SER368     -0.1217
    124  CA        13.7920    0.1680   70.5710 C.3   368  SER368      0.1889
    125  C         12.5760    0.7670   69.8790 C.2   368  SER368      0.2288
    126  O         12.0970    0.2540   68.8660 O.2   368  SER368     -0.2866
    127  CB        14.9930    1.1060   70.4230 C.3   368  SER368      0.2089
    128  OG        15.2300    1.4360   69.0650 O.3   368  SER368     -0.2183
    129  N         11.3470    4.9480   69.2560 N.3   370  TRP370     -0.1227
    130  CA        11.7790    6.3170   69.4880 C.3   370  TRP370      0.1737
    131  C         11.2040    7.3160   68.4990 C.2   370  TRP370      0.2595
    132  O         10.7620    6.9500   67.4040 O.2   370  TRP370     -0.2718
    133  CB        13.3140    6.3960   69.4880 C.3   370  TRP370      0.0564
    134  CG        14.0280    5.9300   68.2230 C.ar  370  TRP370      0.0003
    135  CD1       14.1710    4.6440   67.7770 C.ar  370  TRP370      0.0946
    136  CD2       14.7370    6.7550   67.2900 C.ar  370  TRP370      0.0152
    137  NE1       14.9100    4.6230   66.6150 N.ar  370  TRP370     -0.2442
    138  CE2       15.2740    5.9060   66.2980 C.ar  370  TRP370      0.0810
    139  CE3       14.9690    8.1310   67.1950 C.ar  370  TRP370      0.0012
    140  CZ2       16.0200    6.3940   65.2180 C.ar  370  TRP370      0.0191
    141  CZ3       15.7230    8.6140   66.1260 C.ar  370  TRP370      0.0001
    142  CH2       16.2320    7.7480   65.1540 C.ar  370  TRP370      0.0015
    143  N         11.1950    8.5780   68.9240 N.am  371  ASP371     -0.1974
    144  CA        10.9980    9.7090   68.0240 C.3   371  ASP371      0.1709
    145  C         12.3040   10.4930   67.9260 C.2   371  ASP371      0.2293
    146  O         13.2370   10.2610   68.6940 O.2   371  ASP371     -0.2864
    147  CB         9.7900   10.5820   68.4240 C.3   371  ASP371      0.1436
    148  CG         9.9080   11.2060   69.8070 C.2   371  ASP371      0.3671
    149  OD1       10.8720   10.9370   70.5490 O.co2 371  ASP371     -0.2456
    150  OD2        8.9980   11.9870   70.1520 O.co2 371  ASP371     -0.2456
@<TRIPOS>BOND
     1   105   104    2
     2   104   103    1
     3   102   103    1
     4   109   108   ar
     5   106   103    1
     6   106   107    1
     7    96    95    2
     8   108   107    1
     9   108   110   ar
    10    95    94    1
    11    77    75   am
    12    76    75    2
    13    93    94    1
    14    75    74    1
    15    94    97    1
    16    97    98    1
    17    98    99    1
    18   101    99   ar
    19    99   100   ar
    20    41    38    1
    21    41    42    1
    22    74    73    1
    23   142   140   ar
    24   142   141   ar
    25   140   138   ar
    26    38    37    1
    27    38    39    1
    28    33    36    1
    29    33    32    1
    30    33    34    1
    31    69    70    1
    32    70    73    1
    33    70    71    1
    34    34    35    2
    35    39    40    2
    36   141   139   ar
    37    42    44   ar
    38    42    43   ar
    39   138   137   ar
    40   138   136   ar
    41   111   112    1
    42   137   135   ar
    43    44    46   ar
    44    43    45   ar
    45    71    72    2
    46    63    64    2
    47    63    62    1
    48   112   113    1
    49   112   115    1
    50   113   114    2
    51   139   136   ar
    52   136   134   ar
    53   132   131    2
    54    67    66   ar
    55    46    47   ar
    56   135   134   ar
    57    45    47   ar
    58    65    66    1
    59    65    62    1
    60   145   144    1
    61   145   146    2
    62   144   147    1
    63   144   143    1
    64    66    68   ar
    65    62    61    1
    66   134   133    1
    67    47    48    1
    68   147   148    1
    69   131   143   am
    70   131   130    1
    71   115   116    1
    72   116   118   ar
    73   116   117   ar
    74   118   120   ar
    75   117   119   ar
    76   120   121   ar
    77   119   121   ar
    78   121   122    1
    79   126   125    2
    80   128   127    1
    81   129   130    1
    82   130   133    1
    83    60    59    1
    84   148   150   ar
    85   148   149   ar
    86   125   124    1
    87    84    78    1
    88    84    83    1
    89   123   124    1
    90    78    79    1
    91   127   124    1
    92    59    57   ar
    93    59    58   ar
    94    79    82    1
    95    79    80    1
    96    83    82    1
    97    57    55   ar
    98    58    56   ar
    99    80    81    2
   100    55    54   ar
   101    27    26    1
   102    27    28    1
   103    56    54   ar
   104    92    90   ar
   105    30    29    1
   106    18    17    2
   107    26    25    1
   108    54    53    1
   109    28    29    2
   110    90    91   ar
   111    90    89    1
   112    29    31    1
   113    51    52    2
   114    51    50    1
   115    25    22    1
   116    22    21    1
   117    22    23    1
   118    17    21   am
   119    17    16    1
   120    85    86    1
   121    15    16    1
   122    89    86    1
   123    50    53    1
   124    50    49    1
   125    20    19    1
   126    23    24    2
   127    14    12   ar
   128    14    13   ar
   129    16    19    1
   130    86    87    1
   131    12    10   ar
   132    13    11   ar
   133    87    88    2
   134    10     9   ar
   135    10     8   ar
   136    11     8   ar
   137     9     7   ar
   138     8     6   ar
   139     7     6   ar
   140     6     5    1
   141     5     2    1
   142     1     2    1
   143     2     3    1
   144     3     4    2
