@<TRIPOS>MOLECULE
tmp/4zzuA07.pdb
 131 128 0 0 0
SMALL
GASTEIGER

@<TRIPOS>ATOM
      1  N         20.1540    4.5000   80.4750 N.3    36  ASN36      -0.1225
      2  CA        19.7120    5.9060   80.4490 C.3    36  ASN36       0.1785
      3  C         18.2890    6.1250   80.9520 C.2    36  ASN36       0.2597
      4  O         17.9970    7.1790   81.5080 O.2    36  ASN36      -0.2718
      5  CB        19.8380    6.5230   79.0500 C.3    36  ASN36       0.1169
      6  CG        21.0630    7.4030   78.9030 C.2    36  ASN36       0.2627
      7  OD1       22.1610    7.0230   79.2960 O.2    36  ASN36      -0.2716
      8  ND2       20.8780    8.5930   78.3350 N.am   36  ASN36      -0.0877
      9  N         17.4140    5.1390   80.7630 N.am   37  TRP37      -0.1976
     10  CA        16.0100    5.2670   81.1680 C.3    37  TRP37       0.1640
     11  C         15.7810    5.0780   82.6680 C.2    37  TRP37       0.2290
     12  O         14.7010    5.3940   83.1690 O.2    37  TRP37      -0.2864
     13  CB        15.1370    4.2710   80.3970 C.3    37  TRP37       0.0576
     14  CG        14.6440    4.7960   79.0840 C.ar   37  TRP37       0.0006
     15  CD1       13.4000    5.2850   78.8160 C.ar   37  TRP37       0.0946
     16  CD2       15.3780    4.8700   77.8580 C.ar   37  TRP37       0.0152
     17  NE1       13.3120    5.6680   77.5000 N.ar   37  TRP37      -0.2442
     18  CE2       14.5140    5.4280   76.8890 C.ar   37  TRP37       0.0810
     19  CE3       16.6850    4.5260   77.4830 C.ar   37  TRP37       0.0012
     20  CZ2       14.9090    5.6400   75.5670 C.ar   37  TRP37       0.0191
     21  CZ3       17.0790    4.7430   76.1710 C.ar   37  TRP37       0.0001
     22  CH2       16.1900    5.2940   75.2280 C.ar   37  TRP37       0.0015
     23  N          8.6260    8.4900   77.4720 N.3   103  VAL103     -0.1245
     24  CA         8.5930    8.4200   76.0170 C.3   103  VAL103      0.1561
     25  C          9.6420    7.4320   75.5050 C.2   103  VAL103      0.2260
     26  O         10.8390    7.5950   75.7440 O.2   103  VAL103     -0.2867
     27  CB         8.8070    9.8090   75.3820 C.3   103  VAL103      0.0252
     28  CG1        8.8410    9.7090   73.8590 C.3   103  VAL103      0.0019
     29  CG2        7.7080   10.7630   75.8320 C.3   103  VAL103      0.0019
     30  N         14.6120    1.6770   74.9310 N.3   106  ARG106     -0.1245
     31  CA        15.6050    0.8810   74.2230 C.3   106  ARG106      0.1563
     32  C         15.9250   -0.3150   75.1070 C.2   106  ARG106      0.2260
     33  O         16.1760   -0.1490   76.3000 O.2   106  ARG106     -0.2867
     34  CB        16.8620    1.6980   73.9350 C.3   106  ARG106      0.0307
     35  CG        17.9410    0.9030   73.2230 C.3   106  ARG106      0.0489
     36  CD        19.0100    1.7840   72.6050 C.3   106  ARG106      0.2205
     37  NE        19.8670    2.4440   73.5960 N.pl3 106  ARG106     -0.0865
     38  CZ        19.9460    3.7600   73.7960 C.cat 106  ARG106      0.5346
     39  NH1       19.2100    4.6070   73.0890 N.pl3 106  ARG106      0.1354
     40  NH2       20.7750    4.2430   74.7150 N.pl3 106  ARG106      0.1354
     41  N         25.9940    0.8230   76.0160 N.3   170  TYR170     -0.1241
     42  CA        25.5480    1.1860   74.6770 C.3   170  TYR170      0.1605
     43  C         26.5740    2.0270   73.9190 C.2   170  TYR170      0.2264
     44  O         27.2650    2.8720   74.4940 O.2   170  TYR170     -0.2867
     45  CB        24.2140    1.9320   74.7280 C.3   170  TYR170      0.0534
     46  CG        23.6190    2.1690   73.3600 C.ar  170  TYR170     -0.0201
     47  CD1       23.1810    1.1010   72.5820 C.ar  170  TYR170     -0.0009
     48  CD2       23.5090    3.4540   72.8330 C.ar  170  TYR170     -0.0009
     49  CE1       22.6440    1.3070   71.3270 C.ar  170  TYR170      0.0417
     50  CE2       22.9660    3.6660   71.5810 C.ar  170  TYR170      0.0417
     51  CZ        22.5380    2.5880   70.8340 C.ar  170  TYR170      0.1957
     52  OH        22.0050    2.7830   69.5850 O.3   170  TYR170     -0.2866
     53  N         24.6300   11.6730   74.4470 N.3   178  ASP178     -0.1225
     54  CA        23.5170   11.7890   75.3880 C.3   178  ASP178      0.1805
     55  C         23.5020   10.6720   76.4340 C.2   178  ASP178      0.2598
     56  O         22.6110   10.6320   77.2810 O.2   178  ASP178     -0.2718
     57  CB        22.1820   11.8140   74.6350 C.3   178  ASP178      0.1424
     58  CG        21.9760   10.5890   73.7630 C.2   178  ASP178      0.3668
     59  OD1       22.8240    9.6780   73.7980 O.co2 178  ASP178     -0.2456
     60  OD2       20.9620   10.5390   73.0380 O.co2 178  ASP178     -0.2456
     61  N         24.4820    9.7720   76.3790 N.am  179  LEU179     -0.1966
     62  CA        24.5780    8.6800   77.3440 C.3   179  LEU179      0.1728
     63  C         25.1320    9.1980   78.6670 C.2   179  LEU179      0.2616
     64  O         26.0540   10.0130   78.6870 O.2   179  LEU179     -0.2715
     65  CB        25.4630    7.5570   76.7990 C.3   179  LEU179      0.0311
     66  CG        25.1400    7.0340   75.3930 C.3   179  LEU179      0.0022
     67  CD1       25.9600    5.7890   75.1040 C.3   179  LEU179      0.0001
     68  CD2       23.6570    6.7640   75.1780 C.3   179  LEU179      0.0001
     69  N         24.5650    8.7180   79.7690 N.am  180  LYS180     -0.1977
     70  CA        24.9940    9.1320   81.1040 C.3   180  LYS180      0.1596
     71  C         26.2740    8.4330   81.5350 C.2   180  LYS180      0.2287
     72  O         27.0660    9.0000   82.2880 O.2   180  LYS180     -0.2864
     73  CB        23.8840    8.8650   82.1180 C.3   180  LYS180      0.0298
     74  CG        22.6720    9.7480   81.9080 C.3   180  LYS180      0.0038
     75  CD        21.4430    9.2080   82.6150 C.3   180  LYS180      0.0206
     76  CE        20.2050    9.9110   82.1070 C.3   180  LYS180      0.1093
     77  NZ        18.9500    9.4150   82.7280 N.3   180  LYS180     -0.1314
     78  N         14.2970   18.6670   74.0410 N.3   197  SER197     -0.1217
     79  CA        13.8660   17.5460   74.8780 C.3   197  SER197      0.1889
     80  C         14.0970   17.8120   76.3640 C.2   197  SER197      0.2288
     81  O         15.2220   18.0860   76.7780 O.2   197  SER197     -0.2866
     82  CB        14.6150   16.2740   74.4800 C.3   197  SER197      0.2089
     83  OG        14.2790   15.2040   75.3430 O.3   197  SER197     -0.2183
     84  N         14.0920   15.6260   78.6000 N.3   199  ASN199     -0.1225
     85  CA        14.6540   14.4260   79.2000 C.3   199  ASN199      0.1785
     86  C         16.1150   14.1760   78.8780 C.2   199  ASN199      0.2597
     87  O         16.6910   13.2100   79.3680 O.2   199  ASN199     -0.2718
     88  CB        13.8440   13.2180   78.7420 C.3   199  ASN199      0.1169
     89  CG        12.4560   13.2050   79.3260 C.2   199  ASN199      0.2627
     90  OD1       11.4690   13.3500   78.6050 O.2   199  ASN199     -0.2716
     91  ND2       12.3690   13.0540   80.6400 N.am  199  ASN199     -0.0877
     92  N         16.7300   15.0320   78.0740 N.am  200  SER200     -0.1952
     93  CA        18.0490   14.7120   77.5600 C.3   200  SER200      0.1924
     94  C         18.9880   15.9000   77.5190 C.2   200  SER200      0.2314
     95  O         18.6270   17.0250   77.8680 O.2   200  SER200     -0.2863
     96  CB        17.9250   14.0930   76.1670 C.3   200  SER200      0.2116
     97  OG        19.1210   13.4210   75.8180 O.3   200  SER200     -0.2180
     98  N         11.3470    4.9480   69.2560 N.3   370  TRP370     -0.1227
     99  CA        11.7790    6.3170   69.4880 C.3   370  TRP370      0.1737
    100  C         11.2040    7.3160   68.4990 C.2   370  TRP370      0.2595
    101  O         10.7620    6.9500   67.4040 O.2   370  TRP370     -0.2718
    102  CB        13.3140    6.3960   69.4880 C.3   370  TRP370      0.0564
    103  CG        14.0280    5.9300   68.2230 C.ar  370  TRP370      0.0003
    104  CD1       14.1710    4.6440   67.7770 C.ar  370  TRP370      0.0946
    105  CD2       14.7370    6.7550   67.2900 C.ar  370  TRP370      0.0152
    106  NE1       14.9100    4.6230   66.6150 N.ar  370  TRP370     -0.2442
    107  CE2       15.2740    5.9060   66.2980 C.ar  370  TRP370      0.0810
    108  CE3       14.9690    8.1310   67.1950 C.ar  370  TRP370      0.0012
    109  CZ2       16.0200    6.3940   65.2180 C.ar  370  TRP370      0.0191
    110  CZ3       15.7230    8.6140   66.1260 C.ar  370  TRP370      0.0001
    111  CH2       16.2320    7.7480   65.1540 C.ar  370  TRP370      0.0015
    112  N         11.1950    8.5780   68.9240 N.am  371  ASP371     -0.1974
    113  CA        10.9980    9.7090   68.0240 C.3   371  ASP371      0.1709
    114  C         12.3040   10.4930   67.9260 C.2   371  ASP371      0.2293
    115  O         13.2370   10.2610   68.6940 O.2   371  ASP371     -0.2864
    116  CB         9.7900   10.5820   68.4240 C.3   371  ASP371      0.1436
    117  CG         9.9080   11.2060   69.8070 C.2   371  ASP371      0.3671
    118  OD1       10.8720   10.9370   70.5490 O.co2 371  ASP371     -0.2456
    119  OD2        8.9980   11.9870   70.1520 O.co2 371  ASP371     -0.2456
    120  N         14.3750   13.9200   67.7570 N.3   373  TYR373     -0.1241
    121  CA        14.4980   15.3470   68.0770 C.3   373  TYR373      0.1605
    122  C         15.4390   16.1170   67.1430 C.2   373  TYR373      0.2264
    123  O         15.4700   17.3500   67.1800 O.2   373  TYR373     -0.2867
    124  CB        14.9280   15.5350   69.5390 C.3   373  TYR373      0.0534
    125  CG        13.7780   15.3950   70.5080 C.ar  373  TYR373     -0.0201
    126  CD1       13.3270   14.1460   70.9100 C.ar  373  TYR373     -0.0009
    127  CD2       13.1230   16.5180   71.0030 C.ar  373  TYR373     -0.0009
    128  CE1       12.2640   14.0160   71.7900 C.ar  373  TYR373      0.0417
    129  CE2       12.0610   16.4010   71.8820 C.ar  373  TYR373      0.0417
    130  CZ        11.6360   15.1530   72.2740 C.ar  373  TYR373      0.1957
    131  OH        10.5760   15.0380   73.1430 O.3   373  TYR373     -0.2866
@<TRIPOS>BOND
     1   111   109   ar
     2   111   110   ar
     3   109   107   ar
     4   110   108   ar
     5   107   106   ar
     6   107   105   ar
     7   106   104   ar
     8   122   123    2
     9   122   121    1
    10   108   105   ar
    11   105   103   ar
    12   101   100    2
    13   120   121    1
    14   104   103   ar
    15   114   113    1
    16   114   115    2
    17   113   116    1
    18   113   112    1
    19   121   124    1
    20   103   102    1
    21   116   117    1
    22   100   112   am
    23   100    99    1
    24    98    99    1
    25   102    99    1
    26   124   125    1
    27    52    51    1
    28   117   119   ar
    29   117   118   ar
    30   125   126   ar
    31   125   127   ar
    32    51    49   ar
    33    51    50   ar
    34   126   128   ar
    35   127   129   ar
    36    49    47   ar
    37    50    48   ar
    38   128   130   ar
    39   129   130   ar
    40   130   131    1
    41    47    46   ar
    42    36    35    1
    43    36    37    1
    44    48    46   ar
    45    60    58   ar
    46    39    38    1
    47    35    34    1
    48    46    45    1
    49    37    38    2
    50    58    59   ar
    51    58    57    1
    52    38    40    1
    53    28    27    1
    54    43    44    2
    55    43    42    1
    56    34    31    1
    57    78    79    1
    58    31    30    1
    59    31    32    1
    60    53    54    1
    61    82    79    1
    62    82    83    1
    63    57    54    1
    64    42    45    1
    65    42    41    1
    66    79    80    1
    67    67    66    1
    68    32    33    2
    69    68    66    1
    70    22    20   ar
    71    22    21   ar
    72    27    29    1
    73    27    24    1
    74    54    55    1
    75    66    65    1
    76    25    26    2
    77    25    24    1
    78    20    18   ar
    79    97    96    1
    80    24    23    1
    81    96    93    1
    82    21    19   ar
    83    80    81    2
    84    61    55   am
    85    61    62    1
    86    55    56    2
    87    65    62    1
    88    18    17   ar
    89    18    16   ar
    90    62    63    1
    91    19    16   ar
    92    17    15   ar
    93    94    93    1
    94    94    95    2
    95    93    92    1
    96    16    14   ar
    97    92    86   am
    98     8     6   am
    99    84    85    1
   100    90    89    2
   101    63    64    2
   102    63    69   am
   103    88    85    1
   104    88    89    1
   105    15    14   ar
   106    86    85    1
   107    86    87    2
   108     6     5    1
   109     6     7    2
   110     5     2    1
   111    14    13    1
   112    89    91   am
   113    69    70    1
   114    13    10    1
   115     2     1    1
   116     2     3    1
   117     9     3   am
   118     9    10    1
   119     3     4    2
   120    70    71    1
   121    70    73    1
   122    10    11    1
   123    71    72    2
   124    74    73    1
   125    74    75    1
   126    76    75    1
   127    76    77    1
   128    11    12    2
