@<TRIPOS>MOLECULE
tmp/4zzuA03.pdb
 140 137 0 0 0
SMALL
GASTEIGER

@<TRIPOS>ATOM
      1  N         26.2150    0.0900   59.0460 N.3   227  HIS227     -0.1241
      2  CA        27.1220    1.2230   59.2770 C.3   227  HIS227      0.1621
      3  C         28.4810    0.6750   59.6880 C.2   227  HIS227      0.2264
      4  O         28.5650   -0.1770   60.5780 O.2   227  HIS227     -0.2867
      5  CB        26.6490    2.1150   60.4290 C.3   227  HIS227      0.0745
      6  CG        25.3710    2.8520   60.1760 C.ar  227  HIS227      0.0817
      7  ND1       25.3240    4.2220   60.0350 N.ar  227  HIS227     -0.2268
      8  CD2       24.0890    2.4230   60.1100 C.ar  227  HIS227      0.1154
      9  CE1       24.0710    4.6020   59.8660 C.ar  227  HIS227      0.1986
     10  NE2       23.3010    3.5310   59.9110 N.ar  227  HIS227     -0.2212
     11  N         29.4900   16.4080   60.8880 N.3   250  ARG250     -0.1231
     12  CA        28.9150   15.0600   60.8890 C.3   250  ARG250      0.1694
     13  C         29.8890   13.9520   60.4810 C.2   250  ARG250      0.2592
     14  O         29.8770   12.8730   61.0740 O.2   250  ARG250     -0.2718
     15  CB        27.6910   15.0260   59.9660 C.3   250  ARG250      0.0321
     16  CG        26.8840   13.7400   60.0260 C.3   250  ARG250      0.0489
     17  CD        25.7730   13.7350   58.9890 C.3   250  ARG250      0.2205
     18  NE        25.0570   12.4620   58.9840 N.pl3 250  ARG250     -0.0865
     19  CZ        24.0940   12.1220   59.8380 C.cat 250  ARG250      0.5346
     20  NH1       23.6960   12.9600   60.7930 N.pl3 250  ARG250      0.1354
     21  NH2       23.5200   10.9270   59.7410 N.pl3 250  ARG250      0.1354
     22  N         30.7200   14.2150   59.4740 N.am  251  TYR251     -0.1976
     23  CA        31.5860   13.1810   58.9010 C.3   251  TYR251      0.1639
     24  C         33.0360   13.2200   59.3920 C.2   251  TYR251      0.2290
     25  O         33.8970   12.5450   58.8230 O.2   251  TYR251     -0.2864
     26  CB        31.5570   13.2650   57.3700 C.3   251  TYR251      0.0560
     27  CG        30.1700   13.1380   56.7780 C.ar  251  TYR251     -0.0198
     28  CD1       29.3190   12.1070   57.1640 C.ar  251  TYR251     -0.0009
     29  CD2       29.7160   14.0340   55.8180 C.ar  251  TYR251     -0.0009
     30  CE1       28.0550   11.9810   56.6250 C.ar  251  TYR251      0.0417
     31  CE2       28.4510   13.9150   55.2700 C.ar  251  TYR251      0.0417
     32  CZ        27.6240   12.8850   55.6770 C.ar  251  TYR251      0.1957
     33  OH        26.3650   12.7580   55.1420 O.3   251  TYR251     -0.2866
     34  N         28.2140    7.5370   60.0160 N.3   257  PRO257     -0.2102
     35  CA        26.9000    7.8880   60.5580 C.3   257  PRO257      0.1504
     36  C         25.7380    7.7300   59.5760 C.2   257  PRO257      0.2575
     37  O         24.5850    7.8680   59.9820 O.2   257  PRO257     -0.2718
     38  CB        27.0630    9.3630   60.9290 C.3   257  PRO257      0.0282
     39  CG        28.0600    9.8850   59.9610 C.3   257  PRO257      0.0208
     40  CD        28.9710    8.7390   59.6080 C.3   257  PRO257      0.0893
     41  N         26.0320    7.4530   58.3070 N.am  258  ASP258     -0.1974
     42  CA        24.9960    7.3830   57.2720 C.3   258  ASP258      0.1708
     43  C         24.6690    5.9550   56.8550 C.2   258  ASP258      0.2293
     44  O         23.5030    5.6170   56.6360 O.2   258  ASP258     -0.2864
     45  CB        25.4190    8.1800   56.0360 C.3   258  ASP258      0.1436
     46  CG        25.3710    9.6850   56.2490 C.2   258  ASP258      0.3671
     47  OD1       25.2240   10.1470   57.4010 O.co2 258  ASP258     -0.2456
     48  OD2       25.4940   10.4140   55.2440 O.co2 258  ASP258     -0.2456
     49  N         22.1980    2.3690   52.9470 N.3   261  ASP261     -0.1239
     50  CA        20.7860    2.1130   53.2210 C.3   261  ASP261      0.1674
     51  C         20.0350    1.5500   52.0220 C.2   261  ASP261      0.2266
     52  O         20.3230    1.9040   50.8760 O.2   261  ASP261     -0.2867
     53  CB        20.0940    3.4000   53.6750 C.3   261  ASP261      0.1410
     54  CG        20.1240    4.4850   52.6140 C.2   261  ASP261      0.3668
     55  OD1       21.2370    4.8930   52.2190 O.co2 261  ASP261     -0.2456
     56  OD2       19.0370    4.9200   52.1760 O.co2 261  ASP261     -0.2456
     57  N         12.7520    5.0110   48.8390 N.3   266  ARG266     -0.1245
     58  CA        13.8760    5.8490   48.4350 C.3   266  ARG266      0.1563
     59  C         14.5600    5.3060   47.1790 C.2   266  ARG266      0.2260
     60  O         15.0670    6.0760   46.3650 O.2   266  ARG266     -0.2867
     61  CB        14.9020    5.9810   49.5630 C.3   266  ARG266      0.0307
     62  CG        15.9000    7.1030   49.3140 C.3   266  ARG266      0.0489
     63  CD        16.9880    7.1840   50.3670 C.3   266  ARG266      0.2205
     64  NE        17.8550    8.3270   50.0780 N.pl3 266  ARG266     -0.0865
     65  CZ        19.1660    8.3900   50.3130 C.cat 266  ARG266      0.5346
     66  NH1       19.8200    7.3720   50.8550 N.pl3 266  ARG266      0.1354
     67  NH2       19.8350    9.4890   49.9820 N.pl3 266  ARG266      0.1354
     68  N         25.6490    5.7220   46.4120 N.3   337  LYS337     -0.1245
     69  CA        26.2850    6.9370   46.9100 C.3   337  LYS337      0.1561
     70  C         26.7040    7.8610   45.7620 C.2   337  LYS337      0.2260
     71  O         26.5370    9.0780   45.8590 O.2   337  LYS337     -0.2867
     72  CB        27.4740    6.5930   47.8120 C.3   337  LYS337      0.0271
     73  CG        27.0880    5.8310   49.0750 C.3   337  LYS337      0.0035
     74  CD        26.2820    6.6690   50.0550 C.3   337  LYS337      0.0206
     75  CE        25.7520    5.8110   51.1940 C.3   337  LYS337      0.1093
     76  NZ        24.9270    6.5970   52.1500 N.3   337  LYS337     -0.1314
     77  N         25.8380   11.3590   47.7050 N.3   342  ASP342     -0.1239
     78  CA        26.0770   11.2890   49.1410 C.3   342  ASP342      0.1674
     79  C         27.4960   10.7970   49.4000 C.2   342  ASP342      0.2266
     80  O         28.0280    9.9700   48.6570 O.2   342  ASP342     -0.2867
     81  CB        25.0740   10.3490   49.8140 C.3   342  ASP342      0.1410
     82  CG        23.6350   10.8320   49.6940 C.2   342  ASP342      0.3668
     83  OD1       23.4090   12.0580   49.5900 O.co2 342  ASP342     -0.2456
     84  OD2       22.7240    9.9800   49.7250 O.co2 342  ASP342     -0.2456
     85  N         16.1980   15.4030   66.3130 N.3   374  TYR374     -0.1241
     86  CA        17.0980   16.0320   65.3460 C.3   374  TYR374      0.1605
     87  C         16.4190   16.3310   64.0090 C.2   374  TYR374      0.2264
     88  O         16.4870   17.4540   63.5150 O.2   374  TYR374     -0.2867
     89  CB        18.3230   15.1450   65.1100 C.3   374  TYR374      0.0534
     90  CG        19.2760   15.6850   64.0660 C.ar  374  TYR374     -0.0201
     91  CD1       20.0470   16.8160   64.3200 C.ar  374  TYR374     -0.0009
     92  CD2       19.4160   15.0570   62.8300 C.ar  374  TYR374     -0.0009
     93  CE1       20.9240   17.3100   63.3700 C.ar  374  TYR374      0.0417
     94  CE2       20.2930   15.5420   61.8740 C.ar  374  TYR374      0.0417
     95  CZ        21.0440   16.6680   62.1510 C.ar  374  TYR374      0.1957
     96  OH        21.9160   17.1590   61.2080 O.3   374  TYR374     -0.2866
     97  N         14.1610   11.6790   57.3760 N.3   379  TRP379     -0.1241
     98  CA        15.1110   10.8610   56.6210 C.3   379  TRP379      0.1605
     99  C         14.5500    9.4730   56.2900 C.2   379  TRP379      0.2264
    100  O         14.9490    8.8700   55.3000 O.2   379  TRP379     -0.2867
    101  CB        16.4260   10.7230   57.3960 C.3   379  TRP379      0.0550
    102  CG        16.2460   10.1270   58.7580 C.ar  379  TRP379      0.0003
    103  CD1       16.0260   10.7990   59.9270 C.ar  379  TRP379      0.0946
    104  CD2       16.2540    8.7370   59.0890 C.ar  379  TRP379      0.0152
    105  NE1       15.8950    9.9100   60.9650 N.ar  379  TRP379     -0.2442
    106  CE2       16.0360    8.6380   60.4790 C.ar  379  TRP379      0.0810
    107  CE3       16.4300    7.5640   58.3460 C.ar  379  TRP379      0.0012
    108  CZ2       15.9900    7.4120   61.1420 C.ar  379  TRP379      0.0191
    109  CZ3       16.3790    6.3440   59.0070 C.ar  379  TRP379      0.0001
    110  CH2       16.1610    6.2790   60.3880 C.ar  379  TRP379      0.0015
    111  N         13.6230   14.7440   51.9940 N.3   385  TYR385     -0.1228
    112  CA        14.6710   15.0270   52.9650 C.3   385  TYR385      0.1721
    113  C         15.9910   15.2370   52.2220 C.2   385  TYR385      0.2437
    114  O         16.3710   14.3820   51.4250 O.2   385  TYR385     -0.2733
    115  CB        14.8150   13.8950   53.9760 C.3   385  TYR385      0.0547
    116  CG        15.7460   14.2580   55.1070 C.ar  385  TYR385     -0.0200
    117  CD1       15.3350   15.1240   56.1150 C.ar  385  TYR385     -0.0009
    118  CD2       17.0470   13.7650   55.1550 C.ar  385  TYR385     -0.0009
    119  CE1       16.1840   15.4770   57.1480 C.ar  385  TYR385      0.0417
    120  CE2       17.9040   14.1120   56.1860 C.ar  385  TYR385      0.0417
    121  CZ        17.4670   14.9690   57.1790 C.ar  385  TYR385      0.1957
    122  OH        18.3070   15.3190   58.2100 O.3   385  TYR385     -0.2866
    123  N         16.6790   16.3620   52.4410 N.am  386  PRO386     -0.2729
    124  CA        16.2210   17.4760   53.2800 C.3   386  PRO386      0.1401
    125  C         14.8970   18.0710   52.7990 C.2   386  PRO386      0.2269
    126  O         14.5220   17.8860   51.6410 O.2   386  PRO386     -0.2865
    127  CB        17.3440   18.5090   53.1330 C.3   386  PRO386      0.0296
    128  CG        18.5580   17.7130   52.8030 C.3   386  PRO386      0.0237
    129  CD        18.0940   16.4990   52.0510 C.3   386  PRO386      0.0939
    130  N         11.6380    9.6700   50.5690 N.3   398  ARG398     -0.1245
    131  CA        11.7860    8.4300   51.3490 C.3   398  ARG398      0.1563
    132  C         10.4700    7.8080   51.8220 C.2   398  ARG398      0.2260
    133  O         10.4470    6.6460   52.2310 O.2   398  ARG398     -0.2867
    134  CB        12.6910    8.6630   52.5590 C.3   398  ARG398      0.0307
    135  CG        14.1060    9.0950   52.2030 C.3   398  ARG398      0.0489
    136  CD        14.3100   10.5600   52.5110 C.3   398  ARG398      0.2205
    137  NE        15.5760   11.0490   51.9680 N.pl3 398  ARG398     -0.0865
    138  CZ        16.7780   10.8270   52.4980 C.cat 398  ARG398      0.5346
    139  NH1       16.9230   10.0970   53.5980 N.pl3 398  ARG398      0.1354
    140  NH2       17.8540   11.3360   51.9130 N.pl3 398  ARG398      0.1354
@<TRIPOS>BOND
     1    70    71    2
     2    70    69    1
     3    60    59    2
     4    68    69    1
     5    69    72    1
     6    59    58    1
     7    77    78    1
     8    72    73    1
     9    58    57    1
    10    58    61    1
    11    80    79    2
    12    73    74    1
    13    78    79    1
    14    78    81    1
    15    62    61    1
    16    62    63    1
    17    83    82   ar
    18    82    84   ar
    19    82    81    1
    20    67    65    1
    21    74    75    1
    22    64    65    2
    23    64    63    1
    24    65    66    1
    25   130   131    1
    26    52    51    2
    27    75    76    1
    28   131   132    1
    29   131   134    1
    30   114   113    2
    31   126   125    2
    32   132   133    2
    33   140   138    1
    34   137   138    2
    35   137   136    1
    36   111   112    1
    37    51    50    1
    38   129   123    1
    39   129   128    1
    40    56    54   ar
    41   135   136    1
    42   135   134    1
    43    55    54   ar
    44   113   123   am
    45   113   112    1
    46   123   124    1
    47   138   139    1
    48    54    53    1
    49   125   124    1
    50   128   127    1
    51    49    50    1
    52   112   115    1
    53   127   124    1
    54    50    53    1
    55   115   116    1
    56   116   118   ar
    57   116   117   ar
    58    33    32    1
    59   118   120   ar
    60    48    46   ar
    61    31    32   ar
    62    31    29   ar
    63   100    99    2
    64    32    30   ar
    65    29    27   ar
    66    45    46    1
    67    45    42    1
    68   117   119   ar
    69   120   121   ar
    70    46    47   ar
    71    99    98    1
    72    98    97    1
    73    98   101    1
    74    30    28   ar
    75    44    43    2
    76    27    28   ar
    77    27    26    1
    78    43    42    1
    79   119   121   ar
    80   121   122    1
    81    42    41    1
    82    26    23    1
    83   101   102    1
    84    41    36   am
    85   107   109   ar
    86   107   104   ar
    87   102   104   ar
    88   102   103   ar
    89    25    24    2
    90    23    24    1
    91    23    22    1
    92    18    17    1
    93    18    19    2
    94    17    16    1
    95   109   110   ar
    96     1     2    1
    97   104   106   ar
    98     2     3    1
    99     2     5    1
   100    22    13   am
   101    36    37    2
   102    36    35    1
   103    40    39    1
   104    40    34    1
   105     3     4    2
   106    21    19    1
   107    19    20    1
   108     9    10   ar
   109     9     7   ar
   110    10     8   ar
   111   103   105   ar
   112    39    38    1
   113    15    16    1
   114    15    12    1
   115    34    35    1
   116     7     6   ar
   117     8     6   ar
   118     6     5    1
   119   110   108   ar
   120   106   105   ar
   121   106   108   ar
   122    13    12    1
   123    13    14    2
   124    35    38    1
   125    11    12    1
   126    96    95    1
   127    94    95   ar
   128    94    92   ar
   129    95    93   ar
   130    92    90   ar
   131    93    91   ar
   132    88    87    2
   133    87    86    1
   134    90    91   ar
   135    90    89    1
   136    89    86    1
   137    86    85    1
