@<TRIPOS>MOLECULE
tmp/4zzwA03.pdb
 216 207 0 0 0
SMALL
GASTEIGER

@<TRIPOS>ATOM
      1  N          4.2890    6.4550   15.3830 N.3   174  GLN174     -0.1245
      2  CA         4.1030    7.8950   15.5730 C.3   174  GLN174      0.1566
      3  C          5.0290    8.4590   16.6490 C.2   174  GLN174      0.2260
      4  O          5.0550    9.6740   16.8600 O.2   174  GLN174     -0.2867
      5  CB         2.6570    8.2130   15.9680 C.3   174  GLN174      0.0367
      6  CG         1.6070    7.7200   14.9920 C.3   174  GLN174      0.0905
      7  CD         1.8520    8.1870   13.5720 C.2   174  GLN174      0.2608
      8  OE1        1.6530    7.4320   12.6230 O.2   174  GLN174     -0.2717
      9  NE2        2.2940    9.4280   13.4210 N.am  174  GLN174     -0.0878
     10  N          5.3120   -0.7330   13.4260 N.3   208  GLU208     -0.1245
     11  CA         3.8830   -0.8680   13.6720 C.3   208  GLU208      0.1567
     12  C          3.2010   -1.4880   12.4740 C.2   208  GLU208      0.2260
     13  O          3.3580   -1.0160   11.3580 O.2   208  GLU208     -0.2867
     14  CB         3.2810    0.5040   13.9570 C.3   208  GLU208      0.0388
     15  CG         1.7860    0.4960   14.2400 C.3   208  GLU208      0.1160
     16  CD         1.2210    1.8830   14.4670 C.2   208  GLU208      0.3649
     17  OE1        1.9930    2.8630   14.5650 O.co2 208  GLU208     -0.2457
     18  OE2       -0.0200    1.9950   14.5640 O.co2 208  GLU208     -0.2457
     19  N         -0.3780   -1.9900   11.1750 N.3   210  ASP210     -0.1239
     20  CA        -1.8040   -1.7030   11.3050 C.3   210  ASP210      0.1674
     21  C         -2.5970   -2.6460   10.4210 C.2   210  ASP210      0.2266
     22  O         -2.9210   -2.3370    9.2730 O.2   210  ASP210     -0.2867
     23  CB        -2.0890   -0.2420   10.9960 C.3   210  ASP210      0.1410
     24  CG        -1.4010    0.6850   11.9680 C.2   210  ASP210      0.3668
     25  OD1       -1.4180    0.3820   13.1860 O.co2 210  ASP210     -0.2456
     26  OD2       -0.8340    1.6940   11.5220 O.co2 210  ASP210     -0.2456
     27  N         -7.4890   -0.6670   10.5490 N.3   213  GLU213     -0.1245
     28  CA        -7.9590    0.6090   11.0510 C.3   213  GLU213      0.1567
     29  C         -9.1850    0.9530   10.2440 C.2   213  GLU213      0.2260
     30  O         -9.1080    1.1170    9.0260 O.2   213  GLU213     -0.2867
     31  CB        -6.8880    1.6690   10.8930 C.3   213  GLU213      0.0388
     32  CG        -5.7480    1.5160   11.8770 C.3   213  GLU213      0.1160
     33  CD        -4.7560    2.6370   11.7410 C.2   213  GLU213      0.3649
     34  OE1       -3.9140    2.5720   10.8270 O.co2 213  GLU213     -0.2457
     35  OE2       -4.8380    3.5820   12.5420 O.co2 213  GLU213     -0.2457
     36  N         -2.0650   -1.0890    6.8800 N.3   222  THR222     -0.1218
     37  CA        -0.8810   -0.2310    6.8000 C.3   222  THR222      0.1862
     38  C          0.3080   -0.7030    7.6440 C.2   222  THR222      0.2287
     39  O          0.3490   -0.4690    8.8470 O.2   222  THR222     -0.2866
     40  CB        -1.2190    1.2190    7.2200 C.3   222  THR222      0.1770
     41  OG1       -2.4170    1.6590    6.5670 O.3   222  THR222     -0.2211
     42  CG2       -0.0860    2.1580    6.8660 C.3   222  THR222      0.0375
     43  N          4.0700   -0.0460    8.9310 N.3   224  HIS224     -0.1241
     44  CA         4.9630    1.1040    9.1510 C.3   224  HIS224      0.1621
     45  C          6.3270    0.5710    9.5490 C.2   224  HIS224      0.2264
     46  O          6.4360   -0.2290   10.4840 O.2   224  HIS224     -0.2867
     47  CB         4.4890    1.9720   10.3170 C.3   224  HIS224      0.0745
     48  CG         3.1610    2.6350   10.1210 C.ar  224  HIS224      0.0817
     49  ND1        3.0330    3.9940    9.9490 N.ar  224  HIS224     -0.2268
     50  CD2        1.9010    2.1420   10.1510 C.ar  224  HIS224      0.1154
     51  CE1        1.7540    4.3110    9.8670 C.ar  224  HIS224      0.1986
     52  NE2        1.0460    3.2040    9.9840 N.ar  224  HIS224     -0.2212
     53  N          3.3530   12.4960   14.6030 N.3   242  THR242     -0.1218
     54  CA         2.2060   13.4060   14.6470 C.3   242  THR242      0.1862
     55  C          2.4360   14.6810   15.4750 C.2   242  THR242      0.2287
     56  O          2.0110   15.7640   15.0630 O.2   242  THR242     -0.2866
     57  CB         0.9390   12.6600   15.1280 C.3   242  THR242      0.1770
     58  OG1        0.5710   11.6750   14.1530 O.3   242  THR242     -0.2211
     59  CG2       -0.2310   13.6140   15.3260 C.3   242  THR242      0.0375
     60  N          7.3540   16.1840   10.7230 N.3   247  ARG247     -0.1231
     61  CA         6.7860   14.8400   10.7920 C.3   247  ARG247      0.1694
     62  C          7.7450   13.7260   10.3740 C.2   247  ARG247      0.2592
     63  O          7.7060   12.6280   10.9340 O.2   247  ARG247     -0.2718
     64  CB         5.5440   14.7960    9.9070 C.3   247  ARG247      0.0321
     65  CG         4.7780   13.4910    9.9280 C.3   247  ARG247      0.0489
     66  CD         3.6140   13.5520    8.9560 C.3   247  ARG247      0.2205
     67  NE         2.8680   12.3000    8.9520 N.pl3 247  ARG247     -0.0865
     68  CZ         2.0040   11.9260    9.8930 C.cat 247  ARG247      0.5346
     69  NH1        1.7510   12.7070   10.9450 N.pl3 247  ARG247      0.1354
     70  NH2        1.3930   10.7530    9.7900 N.pl3 247  ARG247      0.1354
     71  N          8.5990   14.0040    9.3940 N.am  248  TYR248     -0.1976
     72  CA         9.4540   12.9800    8.8090 C.3   248  TYR248      0.1639
     73  C         10.9090   13.0120    9.2890 C.2   248  TYR248      0.2290
     74  O         11.7580   12.3470    8.7050 O.2   248  TYR248     -0.2864
     75  CB         9.3970   13.1050    7.2860 C.3   248  TYR248      0.0560
     76  CG         7.9940   12.9880    6.7430 C.ar  248  TYR248     -0.0198
     77  CD1        7.2600   11.8220    6.9210 C.ar  248  TYR248     -0.0009
     78  CD2        7.3950   14.0410    6.0600 C.ar  248  TYR248     -0.0009
     79  CE1        5.9730   11.7040    6.4300 C.ar  248  TYR248      0.0417
     80  CE2        6.1070   13.9310    5.5670 C.ar  248  TYR248      0.0417
     81  CZ         5.4030   12.7600    5.7510 C.ar  248  TYR248      0.1957
     82  OH         4.1250   12.6510    5.2580 O.3   248  TYR248     -0.2866
     83  N          5.9620    7.3950    9.8790 N.3   254  PRO254     -0.2102
     84  CA         4.6610    7.7140   10.4670 C.3   254  PRO254      0.1504
     85  C          3.4750    7.5360    9.5200 C.2   254  PRO254      0.2575
     86  O          2.3310    7.5840    9.9690 O.2   254  PRO254     -0.2718
     87  CB         4.8080    9.1870   10.8620 C.3   254  PRO254      0.0282
     88  CG         5.7850    9.7350    9.8980 C.3   254  PRO254      0.0208
     89  CD         6.7190    8.6150    9.5260 C.3   254  PRO254      0.0893
     90  N          3.7310    7.3290    8.2290 N.am  255  ASP255     -0.1974
     91  CA         2.6470    7.2400    7.2440 C.3   255  ASP255      0.1708
     92  C          2.3070    5.8080    6.8630 C.2   255  ASP255      0.2293
     93  O          1.1340    5.4630    6.7290 O.2   255  ASP255     -0.2864
     94  CB         3.0070    8.0220    5.9850 C.3   255  ASP255      0.1436
     95  CG         3.0460    9.5200    6.2200 C.2   255  ASP255      0.3671
     96  OD1        2.8730    9.9660    7.3800 O.co2 255  ASP255     -0.2456
     97  OD2        3.2620   10.2540    5.2320 O.co2 255  ASP255     -0.2456
     98  N          0.0370    2.1550    2.9110 N.3   258  ASP258     -0.1239
     99  CA        -1.3620    1.8420    3.1850 C.3   258  ASP258      0.1674
    100  C         -2.0920    1.3040    1.9700 C.2   258  ASP258      0.2266
    101  O         -1.7950    1.6840    0.8370 O.2   258  ASP258     -0.2867
    102  CB        -2.0990    3.0930    3.6610 C.3   258  ASP258      0.1410
    103  CG        -2.0660    4.2080    2.6360 C.2   258  ASP258      0.3668
    104  OD1       -0.9460    4.6000    2.2390 O.co2 258  ASP258     -0.2456
    105  OD2       -3.1460    4.6990    2.2340 O.co2 258  ASP258     -0.2456
    106  N         -9.3170    4.7940   -1.2690 N.3   263  ARG263     -0.1245
    107  CA        -8.1900    5.6430   -1.6540 C.3   263  ARG263      0.1563
    108  C         -7.5240    5.1060   -2.9180 C.2   263  ARG263      0.2260
    109  O         -6.9910    5.8720   -3.7340 O.2   263  ARG263     -0.2867
    110  CB        -7.1660    5.7410   -0.5200 C.3   263  ARG263      0.0307
    111  CG        -6.1800    6.8750   -0.7150 C.3   263  ARG263      0.0489
    112  CD        -5.1450    6.9670    0.3900 C.3   263  ARG263      0.2205
    113  NE        -4.2750    8.1210    0.1570 N.pl3 263  ARG263     -0.0865
    114  CZ        -2.9750    8.1840    0.4410 C.cat 263  ARG263      0.5346
    115  NH1       -2.3410    7.1570    0.9930 N.pl3 263  ARG263      0.1354
    116  NH2       -2.2970    9.2900    0.1550 N.pl3 263  ARG263      0.1354
    117  N          3.5290    5.5990   -3.5370 N.3   334  LYS334     -0.1245
    118  CA         4.1660    6.7970   -3.0030 C.3   334  LYS334      0.1561
    119  C          4.5560    7.7490   -4.1310 C.2   334  LYS334      0.2260
    120  O          4.3950    8.9590   -4.0010 O.2   334  LYS334     -0.2867
    121  CB         5.3710    6.4270   -2.1350 C.3   334  LYS334      0.0271
    122  CG         4.9880    5.6440   -0.8850 C.3   334  LYS334      0.0035
    123  CD         4.2400    6.4920    0.1330 C.3   334  LYS334      0.0206
    124  CE         3.7250    5.6410    1.2860 C.3   334  LYS334      0.1093
    125  NZ         2.8980    6.4190    2.2490 N.3   334  LYS334     -0.1314
    126  N          3.5760   11.1280   -2.0160 N.3   339  ASP339     -0.1239
    127  CA         3.8010   11.0830   -0.5770 C.3   339  ASP339      0.1674
    128  C          5.2320   10.6260   -0.3420 C.2   339  ASP339      0.2266
    129  O          5.7440    9.7690   -1.0660 O.2   339  ASP339     -0.2867
    130  CB         2.8220   10.1200    0.0960 C.3   339  ASP339      0.1410
    131  CG         1.3770   10.5900    0.0170 C.2   339  ASP339      0.3668
    132  OD1        1.1250   11.8020   -0.1600 O.co2 339  ASP339     -0.2456
    133  OD2        0.4810    9.7320    0.1380 O.co2 339  ASP339     -0.2456
    134  N        -10.8440    4.5410   19.1690 N.3   367  TRP367     -0.1241
    135  CA       -10.4120    5.9070   19.4070 C.3   367  TRP367      0.1605
    136  C        -10.9890    6.9190   18.4380 C.2   367  TRP367      0.2264
    137  O        -11.3990    6.5810   17.3260 O.2   367  TRP367     -0.2867
    138  CB        -8.8810    5.9910   19.4040 C.3   367  TRP367      0.0550
    139  CG        -8.1770    5.5280   18.1410 C.ar  367  TRP367      0.0003
    140  CD1       -8.1180    4.2550   17.6490 C.ar  367  TRP367      0.0946
    141  CD2       -7.3830    6.3330   17.2560 C.ar  367  TRP367      0.0152
    142  NE1       -7.3630    4.2240   16.5050 N.ar  367  TRP367     -0.2442
    143  CE2       -6.8990    5.4850   16.2420 C.ar  367  TRP367      0.0810
    144  CE3       -7.0500    7.6910   17.2150 C.ar  367  TRP367      0.0012
    145  CZ2       -6.0920    5.9490   15.2000 C.ar  367  TRP367      0.0191
    146  CZ3       -6.2440    8.1500   16.1790 C.ar  367  TRP367      0.0001
    147  CH2       -5.7800    7.2810   15.1880 C.ar  367  TRP367      0.0015
    148  N         -9.7810   10.9760   16.9740 N.3   369  ASP369     -0.1239
    149  CA        -8.4970   11.5110   16.5460 C.3   369  ASP369      0.1674
    150  C         -8.4510   13.0140   16.7880 C.2   369  ASP369      0.2266
    151  O         -9.0220   13.8000   16.0330 O.2   369  ASP369     -0.2867
    152  CB        -8.3060   11.1540   15.0680 C.3   369  ASP369      0.1410
    153  CG        -7.0590   11.7530   14.4460 C.2   369  ASP369      0.3668
    154  OD1       -6.1990   12.3240   15.1530 O.co2 369  ASP369     -0.2456
    155  OD2       -6.9440   11.6490   13.2070 O.co2 369  ASP369     -0.2456
    156  N         -5.8950   14.9090   16.5350 N.3   371  TYR371     -0.1227
    157  CA        -4.9850   15.5750   15.6020 C.3   371  TYR371      0.1736
    158  C         -5.6730   15.9210   14.2800 C.2   371  TYR371      0.2595
    159  O         -5.6880   17.0800   13.8690 O.2   371  TYR371     -0.2718
    160  CB        -3.7500   14.7040   15.3430 C.3   371  TYR371      0.0548
    161  CG        -2.8120   15.2510   14.2850 C.ar  371  TYR371     -0.0200
    162  CD1       -2.1000   16.4340   14.4960 C.ar  371  TYR371     -0.0009
    163  CD2       -2.6220   14.5780   13.0780 C.ar  371  TYR371     -0.0009
    164  CE1       -1.2340   16.9300   13.5280 C.ar  371  TYR371      0.0417
    165  CE2       -1.7620   15.0680   12.1080 C.ar  371  TYR371      0.0417
    166  CZ        -1.0720   16.2440   12.3340 C.ar  371  TYR371      0.1957
    167  OH        -0.2160   16.7270   11.3660 O.3   371  TYR371     -0.2866
    168  N         -6.2400   14.9120   13.6180 N.am  372  ALA372     -0.1980
    169  CA        -6.7680   15.0830   12.2580 C.3   372  ALA372      0.1597
    170  C         -8.1940   14.5630   12.0280 C.2   372  ALA372      0.2287
    171  O         -8.6080   14.3850   10.8790 O.2   372  ALA372     -0.2864
    172  CB        -5.8060   14.4610   11.2580 C.3   372  ALA372      0.0319
    173  N         -7.8480   11.4060    7.4340 N.3   376  TRP376     -0.1241
    174  CA        -6.9200   10.5650    6.6710 C.3   376  TRP376      0.1605
    175  C         -7.5020    9.1690    6.3480 C.2   376  TRP376      0.2264
    176  O         -7.1020    8.5380    5.3630 O.2   376  TRP376     -0.2867
    177  CB        -5.6010   10.4280    7.4390 C.3   376  TRP376      0.0550
    178  CG        -5.7830    9.8790    8.8200 C.ar  376  TRP376      0.0003
    179  CD1       -5.9930   10.5870    9.9670 C.ar  376  TRP376      0.0946
    180  CD2       -5.8070    8.5010    9.1890 C.ar  376  TRP376      0.0152
    181  NE1       -6.1460    9.7300   11.0310 N.ar  376  TRP376     -0.2442
    182  CE2       -6.0260    8.4420   10.5790 C.ar  376  TRP376      0.0810
    183  CE3       -5.6580    7.3070    8.4770 C.ar  376  TRP376      0.0012
    184  CZ2       -6.0980    7.2310   11.2710 C.ar  376  TRP376      0.0191
    185  CZ3       -5.7330    6.1070    9.1650 C.ar  376  TRP376      0.0001
    186  CH2       -5.9460    6.0800   10.5450 C.ar  376  TRP376      0.0015
    187  N         -8.3710   14.4770    2.0630 N.3   382  TYR382     -0.1228
    188  CA        -7.3270   14.7610    3.0430 C.3   382  TYR382      0.1721
    189  C         -5.9980   15.0150    2.3180 C.2   382  TYR382      0.2437
    190  O         -5.5850   14.1870    1.5120 O.2   382  TYR382     -0.2733
    191  CB        -7.1640   13.6240    4.0580 C.3   382  TYR382      0.0547
    192  CG        -6.2520   14.0170    5.2060 C.ar  382  TYR382     -0.0200
    193  CD1       -6.7080   14.8520    6.2210 C.ar  382  TYR382     -0.0009
    194  CD2       -4.9270   13.5890    5.2560 C.ar  382  TYR382     -0.0009
    195  CE1       -5.8820   15.2360    7.2640 C.ar  382  TYR382      0.0417
    196  CE2       -4.0930   13.9660    6.2970 C.ar  382  TYR382      0.0417
    197  CZ        -4.5720   14.7890    7.2970 C.ar  382  TYR382      0.1957
    198  OH        -3.7510   15.1770    8.3390 O.3   382  TYR382     -0.2866
    199  N         -5.3450   16.1550    2.5680 N.am  383  PRO383     -0.2729
    200  CA        -5.8540   17.2250    3.4330 C.3   383  PRO383      0.1401
    201  C         -7.1620   17.8280    2.9110 C.2   383  PRO383      0.2269
    202  O         -7.4960   17.6570    1.7360 O.2   383  PRO383     -0.2865
    203  CB        -4.7180   18.2600    3.4320 C.3   383  PRO383      0.0296
    204  CG        -3.8650   17.9250    2.2630 C.3   383  PRO383      0.0237
    205  CD        -3.9940   16.4490    2.0600 C.3   383  PRO383      0.0939
    206  N        -10.3990    9.4680    0.6250 N.3   395  ARG395     -0.1245
    207  CA       -10.2570    8.2100    1.3730 C.3   395  ARG395      0.1563
    208  C        -11.5740    7.5850    1.8300 C.2   395  ARG395      0.2260
    209  O        -11.5970    6.4310    2.2410 O.2   395  ARG395     -0.2867
    210  CB        -9.3430    8.4120    2.5790 C.3   395  ARG395      0.0307
    211  CG        -7.9220    8.8320    2.2140 C.3   395  ARG395      0.0489
    212  CD        -7.7150   10.2820    2.5660 C.3   395  ARG395      0.2205
    213  NE        -6.4510   10.8210    2.0690 N.pl3 395  ARG395     -0.0865
    214  CZ        -5.2460   10.5890    2.5900 C.cat 395  ARG395      0.5346
    215  NH1       -5.0870    9.7880    3.6450 N.pl3 395  ARG395      0.1354
    216  NH2       -4.1810   11.1800    2.0560 N.pl3 395  ARG395      0.1354
@<TRIPOS>BOND
     1   119   120    2
     2   119   118    1
     3   109   108    2
     4   117   118    1
     5   118   121    1
     6   108   107    1
     7   121   122    1
     8   126   127    1
     9   107   106    1
    10   107   110    1
    11   129   128    2
    12   122   123    1
    13   111   110    1
    14   111   112    1
    15   127   128    1
    16   127   130    1
    17   132   131   ar
    18   131   130    1
    19   131   133   ar
    20   123   124    1
    21   116   114    1
    22   113   112    1
    23   113   114    2
    24   114   115    1
    25   206   207    1
    26   101   100    2
    27   124   125    1
    28   207   208    1
    29   207   210    1
    30   190   189    2
    31   202   201    2
    32   208   209    2
    33   100    99    1
    34   216   214    1
    35   205   204    1
    36   205   199    1
    37   187   188    1
    38   213   212    1
    39   213   214    2
    40   211   212    1
    41   211   210    1
    42   105   103   ar
    43   104   103   ar
    44   204   203    1
    45   189   199   am
    46   189   188    1
    47   199   200    1
    48   214   215    1
    49   103   102    1
    50    98    99    1
    51   201   200    1
    52   188   191    1
    53    99   102    1
    54   203   200    1
    55   191   192    1
    56   192   194   ar
    57   192   193   ar
    58    97    95   ar
    59   194   196   ar
    60    82    81    1
    61   176   175    2
    62    80    81   ar
    63    80    78   ar
    64    81    79   ar
    65    94    95    1
    66    94    91    1
    67    78    76   ar
    68    95    96   ar
    69   193   195   ar
    70   196   197   ar
    71   175   174    1
    72    79    77   ar
    73    41    40    1
    74   174   173    1
    75   174   177    1
    76    93    92    2
    77    76    77   ar
    78    76    75    1
    79    37    36    1
    80    37    40    1
    81    37    38    1
    82    92    91    1
    83    42    40    1
    84    91    90    1
    85   195   197   ar
    86    75    72    1
    87   197   198    1
    88   177   178    1
    89    38    39    2
    90    90    85   am
    91   183   185   ar
    92   183   180   ar
    93    74    73    2
    94    72    73    1
    95    72    71    1
    96   178   180   ar
    97   178   179   ar
    98    43    44    1
    99    67    66    1
   100    67    68    2
   101    66    65    1
   102    30    29    2
   103    44    45    1
   104    44    47    1
   105   185   186   ar
   106   180   182   ar
   107    22    21    2
   108    71    62   am
   109    85    86    2
   110    85    84    1
   111    89    83    1
   112    89    88    1
   113    45    46    2
   114    70    68    1
   115    51    49   ar
   116    51    52   ar
   117    83    84    1
   118    68    69    1
   119    88    87    1
   120    64    65    1
   121    64    61    1
   122    49    48   ar
   123   179   181   ar
   124    52    50   ar
   125    48    50   ar
   126    48    47    1
   127    29    28    1
   128    62    61    1
   129    62    63    2
   130    21    20    1
   131    84    87    1
   132   186   184   ar
   133    27    28    1
   134   182   181   ar
   135   182   184   ar
   136    60    61    1
   137    34    33   ar
   138   171   170    2
   139    31    28    1
   140    31    32    1
   141    23    20    1
   142    23    24    1
   143    19    20    1
   144   172   169    1
   145    13    12    2
   146   167   166    1
   147    26    24   ar
   148    33    32    1
   149    33    35   ar
   150    24    25   ar
   151   170   169    1
   152   165   166   ar
   153   165   163   ar
   154   169   168    1
   155   166   164   ar
   156    12    11    1
   157     8     7    2
   158   163   161   ar
   159   155   153   ar
   160     9     7   am
   161    10    11    1
   162   164   162   ar
   163     7     6    1
   164   168   158   am
   165    11    14    1
   166   159   158    2
   167    14    15    1
   168    58    57    1
   169    15    16    1
   170   158   157    1
   171   161   162   ar
   172   161   160    1
   173   153   152    1
   174   153   154   ar
   175    16    18   ar
   176    16    17   ar
   177    53    54    1
   178    54    57    1
   179    54    55    1
   180     6     5    1
   181    56    55    2
   182   152   149    1
   183    57    59    1
   184   147   145   ar
   185   147   146   ar
   186   145   143   ar
   187   160   157    1
   188     1     2    1
   189     2     5    1
   190     2     3    1
   191   157   156    1
   192   151   150    2
   193   146   144   ar
   194   143   142   ar
   195   143   141   ar
   196   142   140   ar
   197   149   150    1
   198   149   148    1
   199     3     4    2
   200   144   141   ar
   201   141   139   ar
   202   137   136    2
   203   140   139   ar
   204   139   138    1
   205   136   135    1
   206   134   135    1
   207   138   135    1
