@<TRIPOS>MOLECULE
tmp/4zzxA00.pdb
 134 130 0 0 0
SMALL
GASTEIGER

@<TRIPOS>ATOM
      1  N          3.0520    4.8220   60.4880 N.3    98  SER98      -0.1217
      2  CA         3.3220    6.1560   59.9550 C.3    98  SER98       0.1889
      3  C          2.9050    6.2760   58.4960 C.2    98  SER98       0.2288
      4  O          2.3950    7.3220   58.0860 O.2    98  SER98      -0.2866
      5  CB         4.8000    6.5310   60.1150 C.3    98  SER98       0.2089
      6  OG         4.9610    7.9250   59.9040 O.3    98  SER98      -0.2183
      7  N         -0.7960    6.8780   58.4660 N.3   101  ILE101     -0.1231
      8  CA        -1.0600    8.2690   58.8030 C.3   101  ILE101      0.1692
      9  C         -0.8100    9.1670   57.5830 C.2   101  ILE101      0.2591
     10  O         -1.6250   10.0380   57.2790 O.2   101  ILE101     -0.2718
     11  CB        -0.1750    8.7510   59.9550 C.3   101  ILE101      0.0266
     12  CG1       -0.6290    8.0830   61.2560 C.3   101  ILE101      0.0019
     13  CG2       -0.2610   10.2600   60.1000 C.3   101  ILE101      0.0020
     14  CD1        0.3980    8.1590   62.3610 C.3   101  ILE101      0.0001
     15  N          0.3140    8.9470   56.9090 N.am  102  GLN102     -0.1979
     16  CA         0.6330    9.6820   55.6730 C.3   102  GLN102      0.1601
     17  C         -0.4530    9.5640   54.6180 C.2   102  GLN102      0.2287
     18  O         -0.7650   10.5600   53.9480 O.2   102  GLN102     -0.2864
     19  CB         1.9530    9.2050   55.0770 C.3   102  GLN102      0.0394
     20  CG         3.1660    9.6890   55.8560 C.3   102  GLN102      0.0908
     21  CD         4.4280    8.9640   55.4420 C.2   102  GLN102      0.2608
     22  OE1        4.5130    8.4080   54.3480 O.2   102  GLN102     -0.2717
     23  NE2        5.4110    8.9560   56.3220 N.am  102  GLN102     -0.0878
     24  N         -3.3650   11.7010   55.7350 N.3   105  GLU105     -0.1245
     25  CA        -3.0290   13.1080   55.5300 C.3   105  GLU105      0.1567
     26  C         -3.1870   13.4760   54.0530 C.2   105  GLU105      0.2260
     27  O         -3.7480   14.5200   53.7490 O.2   105  GLU105     -0.2867
     28  CB        -1.6020   13.4010   56.0110 C.3   105  GLU105      0.0388
     29  CG        -1.4530   13.4240   57.5280 C.3   105  GLU105      0.1160
     30  CD        -0.0030   13.4800   57.9870 C.2   105  GLU105      0.3649
     31  OE1        0.8910   13.2380   57.1500 O.co2 105  GLU105     -0.2457
     32  OE2        0.2390   13.7340   59.1910 O.co2 105  GLU105     -0.2457
     33  N         10.5640   21.8320   54.5690 N.3   198  HIS198     -0.1226
     34  CA         9.4610   20.8960   54.7720 C.3   198  HIS198      0.1752
     35  C          9.1480   20.2350   53.4730 C.2   198  HIS198      0.2596
     36  O          8.9110   20.9180   52.4610 O.2   198  HIS198     -0.2718
     37  CB         8.2380   21.6220   55.2970 C.3   198  HIS198      0.0759
     38  CG         7.1070   20.6930   55.6490 C.ar  198  HIS198      0.0818
     39  ND1        6.9870   20.1420   56.8780 N.ar  198  HIS198     -0.2268
     40  CD2        6.0430   20.2070   54.8890 C.ar  198  HIS198      0.1154
     41  CE1        5.8860   19.3510   56.9090 C.ar  198  HIS198      0.1986
     42  NE2        5.3030   19.3960   55.6990 N.ar  198  HIS198     -0.2212
     43  N          9.1510   18.9060   53.4840 N.am  199  GLY199     -0.1957
     44  CA         8.7940   18.1260   52.3100 C.3   199  GLY199      0.1869
     45  C          7.4210   17.4970   52.4820 C.2   199  GLY199      0.2309
     46  O          6.9630   17.2350   53.6000 O.2   199  GLY199     -0.2863
     47  N          2.3000    7.9100   66.5810 N.3   224  GLY224     -0.1210
     48  CA         2.6520    8.1280   65.1830 C.3   224  GLY224      0.1956
     49  C          3.4760    9.3890   64.9920 C.2   224  GLY224      0.2612
     50  O          3.9480    9.6780   63.8880 O.2   224  GLY224     -0.2717
     51  N          3.6430   10.1490   66.0680 N.am  225  TYR225     -0.1962
     52  CA         4.3090   11.4440   65.9980 C.3   225  TYR225      0.1771
     53  C          5.4300   11.4650   67.0250 C.2   225  TYR225      0.2619
     54  O          5.1780   11.6340   68.2220 O.2   225  TYR225     -0.2715
     55  CB         3.2910   12.5690   66.2430 C.3   225  TYR225      0.0574
     56  CG         2.1160   12.4680   65.2960 C.ar  225  TYR225     -0.0198
     57  CD1        1.0150   11.6860   65.6210 C.ar  225  TYR225     -0.0009
     58  CD2        2.1230   13.1230   64.0630 C.ar  225  TYR225     -0.0009
     59  CE1       -0.0540   11.5580   64.7530 C.ar  225  TYR225      0.0417
     60  CE2        1.0580   12.9860   63.1720 C.ar  225  TYR225      0.0417
     61  CZ        -0.0200   12.2060   63.5320 C.ar  225  TYR225      0.1957
     62  OH        -1.0910   12.0610   62.6920 O.3   225  TYR225     -0.2866
     63  N          6.6670   11.2770   66.5570 N.am  226  MET226     -0.1977
     64  CA         7.7890   11.0080   67.4780 C.3   226  MET226      0.1605
     65  C          8.1280   12.1410   68.4340 C.2   226  MET226      0.2287
     66  O          8.7080   11.8870   69.4950 O.2   226  MET226     -0.2864
     67  CB         9.0260   10.5290   66.7180 C.3   226  MET226      0.0413
     68  CG         8.7890    9.2300   65.9560 C.3   226  MET226      0.0598
     69  SD         8.6110    7.8360   67.0960 S.3   226  MET226     -0.1393
     70  CE        10.3040    7.2700   67.0970 C.3   226  MET226      0.0692
     71  N          6.5760   19.7100   61.4770 N.3   232  TYR232     -0.1227
     72  CA         7.9580   19.2080   61.4870 C.3   232  TYR232      0.1736
     73  C          8.7950   19.8410   60.3950 C.2   232  TYR232      0.2595
     74  O          8.3700   19.9020   59.2380 O.2   232  TYR232     -0.2718
     75  CB         7.9920   17.6890   61.2880 C.3   232  TYR232      0.0548
     76  CG         7.5530   16.8960   62.4980 C.ar  232  TYR232     -0.0200
     77  CD1        6.2260   16.9300   62.9560 C.ar  232  TYR232     -0.0009
     78  CD2        8.4620   16.0820   63.1700 C.ar  232  TYR232     -0.0009
     79  CE1        5.8390   16.1920   64.0730 C.ar  232  TYR232      0.0417
     80  CE2        8.0880   15.3520   64.2870 C.ar  232  TYR232      0.0417
     81  CZ         6.7790   15.4040   64.7270 C.ar  232  TYR232      0.1957
     82  OH         6.4560   14.6680   65.8610 O.3   232  TYR232     -0.2866
     83  N         10.0060   20.2640   60.7600 N.am  233  PHE233     -0.1962
     84  CA        10.9330   20.8680   59.7930 C.3   233  PHE233      0.1771
     85  C         12.3150   20.2420   59.9410 C.2   233  PHE233      0.2619
     86  O         12.6570   19.7290   61.0050 O.2   233  PHE233     -0.2715
     87  CB        11.0570   22.3870   60.0120 C.3   233  PHE233      0.0574
     88  CG         9.7620   23.1350   59.8620 C.ar  233  PHE233     -0.0200
     89  CD1        9.3530   23.6200   58.6200 C.ar  233  PHE233     -0.0042
     90  CD2        8.9420   23.3620   60.9610 C.ar  233  PHE233     -0.0042
     91  CE1        8.1470   24.3040   58.4810 C.ar  233  PHE233     -0.0003
     92  CE2        7.7320   24.0470   60.8320 C.ar  233  PHE233     -0.0003
     93  CZ         7.3250   24.5360   59.5900 C.ar  233  PHE233     -0.0000
     94  N         13.1110   20.3680   58.8910 N.am  234  ALA234     -0.1977
     95  CA        14.5220   19.9680   58.9260 C.3   234  ALA234      0.1597
     96  C         15.4330   21.1350   58.5440 C.2   234  ALA234      0.2287
     97  O         15.0060   22.0720   57.8510 O.2   234  ALA234     -0.2864
     98  CB        14.7520   18.8240   57.9850 C.3   234  ALA234      0.0319
     99  N         16.7490   15.5110   54.1770 N.3   239  LYS239     -0.1231
    100  CA        15.9170   14.9150   55.2370 C.3   239  LYS239      0.1693
    101  C         14.4730   15.2490   54.9380 C.2   239  LYS239      0.2592
    102  O         13.6130   14.3550   54.9880 O.2   239  LYS239     -0.2718
    103  CB        16.3150   15.3900   56.6360 C.3   239  LYS239      0.0285
    104  CG        15.4010   14.8460   57.7310 C.3   239  LYS239      0.0035
    105  CD        16.0140   14.9740   59.1150 C.3   239  LYS239      0.0206
    106  CE        14.9710   14.6440   60.1780 C.3   239  LYS239      0.1093
    107  NZ        15.6230   14.3730   61.4900 N.3   239  LYS239     -0.1314
    108  N         14.2030   16.5050   54.5580 N.am  240  SER240     -0.1952
    109  CA        12.8320   16.8600   54.1460 C.3   240  SER240      0.1924
    110  C         12.4490   16.3000   52.7710 C.2   240  SER240      0.2314
    111  O         11.3050   15.8770   52.5760 O.2   240  SER240     -0.2863
    112  CB        12.5850   18.3750   54.2030 C.3   240  SER240      0.2116
    113  OG        12.5430   18.8370   55.5510 O.3   240  SER240     -0.2180
    114  N         10.6690   13.0710   52.3420 N.3   243  TYR243     -0.1241
    115  CA         9.2140   13.0860   52.5840 C.3   243  TYR243      0.1605
    116  C          8.4140   13.5380   51.3650 C.2   243  TYR243      0.2264
    117  O          7.1880   13.6290   51.4230 O.2   243  TYR243     -0.2867
    118  CB         8.8630   13.9350   53.8050 C.3   243  TYR243      0.0534
    119  CG         9.2700   13.2790   55.1000 C.ar  243  TYR243     -0.0201
    120  CD1        8.4810   12.2680   55.6540 C.ar  243  TYR243     -0.0009
    121  CD2       10.4500   13.6180   55.7430 C.ar  243  TYR243     -0.0009
    122  CE1        8.8410   11.6470   56.8300 C.ar  243  TYR243      0.0417
    123  CE2       10.8190   12.9970   56.9220 C.ar  243  TYR243      0.0417
    124  CZ        10.0090   12.0180   57.4530 C.ar  243  TYR243      0.1957
    125  OH        10.3720   11.4010   58.6050 O.3   243  TYR243     -0.2866
    126  N         15.7130   17.7430   63.8780 N.3   326  GLU326     -0.1245
    127  CA        14.3910   18.1310   63.4140 C.3   326  GLU326      0.1567
    128  C         13.7740   19.0950   64.3990 C.2   326  GLU326      0.2260
    129  O         14.0550   19.0610   65.6150 O.2   326  GLU326     -0.2867
    130  CB        13.5000   16.9290   63.0690 C.3   326  GLU326      0.0388
    131  CG        13.2140   15.9840   64.2150 C.3   326  GLU326      0.1160
    132  CD        12.6040   14.6670   63.7280 C.2   326  GLU326      0.3649
    133  OE1       13.2540   13.9360   62.9660 O.co2 326  GLU326     -0.2457
    134  OE2       11.4530   14.3640   64.0960 O.co2 326  GLU326     -0.2457
@<TRIPOS>BOND
     1   116   117    2
     2   116   115    1
     3    44    45    1
     4    44    43    1
     5   114   115    1
     6    36    35    2
     7    45    46    2
     8   111   110    2
     9   115   118    1
    10   110   109    1
    11    35    43   am
    12    35    34    1
    13    27    26    2
    14   118   119    1
    15    18    17    2
    16    26    25    1
    17   109   112    1
    18   109   108    1
    19    99   100    1
    20   112   113    1
    21    22    21    2
    22   108   101   am
    23    33    34    1
    24    17    16    1
    25    34    37    1
    26    40    38   ar
    27    40    42   ar
    28   101   102    2
    29   101   100    1
    30    19    16    1
    31    19    20    1
    32   119   120   ar
    33   119   121   ar
    34   100   103    1
    35    37    38    1
    36    21    20    1
    37    21    23   am
    38    25    24    1
    39    25    28    1
    40    38    39   ar
    41   120   122   ar
    42    16    15    1
    43    42    41   ar
    44   121   123   ar
    45    28    29    1
    46   103   104    1
    47   122   124   ar
    48    39    41   ar
    49    15     9   am
    50   123   124   ar
    51    31    30   ar
    52    10     9    2
    53   124   125    1
    54    29    30    1
    55     9     8    1
    56   104   105    1
    57    97    96    2
    58    98    95    1
    59    30    32   ar
    60     4     3    2
    61     7     8    1
    62    91    89   ar
    63    91    93   ar
    64     3     2    1
    65    96    95    1
    66    89    88   ar
    67     8    11    1
    68    94    95    1
    69    94    85   am
    70   105   106    1
    71    74    73    2
    72    93    92   ar
    73    84    85    1
    74    84    87    1
    75    84    83    1
    76    88    87    1
    77    88    90   ar
    78     6     5    1
    79    85    86    2
    80    11    13    1
    81    11    12    1
    82     2     5    1
    83     2     1    1
    84   106   107    1
    85    73    83   am
    86    73    72    1
    87    92    90   ar
    88    12    14    1
    89    75    72    1
    90    75    76    1
    91    71    72    1
    92    76    77   ar
    93    76    78   ar
    94    62    61    1
    95    77    79   ar
    96   133   132   ar
    97   130   127    1
    98   130   131    1
    99    78    80   ar
   100    60    61   ar
   101    60    58   ar
   102   127   126    1
   103   127   128    1
   104    61    59   ar
   105   132   134   ar
   106   132   131    1
   107    50    49    2
   108    58    56   ar
   109    79    81   ar
   110    80    81   ar
   111   128   129    2
   112    81    82    1
   113    59    57   ar
   114    49    48    1
   115    49    51   am
   116    48    47    1
   117    56    57   ar
   118    56    55    1
   119    68    67    1
   120    68    69    1
   121    52    51    1
   122    52    55    1
   123    52    53    1
   124    63    53   am
   125    63    64    1
   126    67    64    1
   127    53    54    2
   128    69    70    1
   129    64    65    1
   130    65    66    2
