@<TRIPOS>MOLECULE
tmp/4zzyA00.pdb
 134 130 0 0 0
SMALL
GASTEIGER

@<TRIPOS>ATOM
      1  N         21.5660  -38.9470    8.2710 N.3    94  GLN94      -0.1245
      2  CA        21.4110  -37.5240    8.4170 C.3    94  GLN94       0.1566
      3  C         21.3130  -36.8810    7.0590 C.2    94  GLN94       0.2260
      4  O         20.5220  -35.9820    6.8830 O.2    94  GLN94      -0.2867
      5  CB        22.5460  -36.9190    9.2450 C.3    94  GLN94       0.0367
      6  CG        22.3010  -37.0040   10.7500 C.3    94  GLN94       0.0905
      7  CD        21.1500  -36.1220   11.2200 C.2    94  GLN94       0.2608
      8  OE1       20.9180  -35.0360   10.6740 O.2    94  GLN94      -0.2717
      9  NE2       20.4380  -36.5750   12.2520 N.am   94  GLN94      -0.0878
     10  N         18.0410  -34.8150    5.9950 N.3    98  SER98      -0.1217
     11  CA        18.2410  -33.4330    5.7420 C.3    98  SER98       0.1889
     12  C         17.7150  -33.0700    4.3260 C.2    98  SER98       0.2288
     13  O         17.0830  -32.0300    4.1480 O.2    98  SER98      -0.2866
     14  CB        19.7230  -33.1120    5.9740 C.3    98  SER98       0.2089
     15  OG        20.1720  -32.1530    5.0190 O.3    98  SER98      -0.2183
     16  N         14.0880  -32.5450    4.6990 N.3   101  ILE101     -0.1231
     17  CA        13.8280  -31.2930    5.3970 C.3   101  ILE101      0.1692
     18  C         13.9710  -30.1520    4.4140 C.2   101  ILE101      0.2591
     19  O         13.1280  -29.2930    4.3300 O.2   101  ILE101     -0.2718
     20  CB        14.7090  -31.1380    6.6740 C.3   101  ILE101      0.0266
     21  CG1       14.2720  -32.1350    7.7430 C.3   101  ILE101      0.0019
     22  CG2       14.5760  -29.7480    7.2720 C.3   101  ILE101      0.0020
     23  CD1       15.2610  -32.2550    8.9230 C.3   101  ILE101      0.0001
     24  N         14.9980  -30.1780    3.6000 N.am  102  GLN102     -0.1979
     25  CA        15.1130  -29.1310    2.5690 C.3   102  GLN102      0.1601
     26  C         14.0010  -29.2060    1.4930 C.2   102  GLN102      0.2287
     27  O         13.5110  -28.1920    1.0400 O.2   102  GLN102     -0.2864
     28  CB        16.5170  -29.1970    1.9590 C.3   102  GLN102      0.0394
     29  CG        17.5690  -28.9350    3.0590 C.3   102  GLN102      0.0908
     30  CD        18.9950  -28.9240    2.5570 C.2   102  GLN102      0.2608
     31  OE1       19.4080  -29.7860    1.7690 O.2   102  GLN102     -0.2717
     32  NE2       19.7600  -27.9320    2.9970 N.am  102  GLN102     -0.0878
     33  N         27.9700  -17.3080   -0.2070 N.3   198  HIS198     -0.1226
     34  CA        26.7440  -18.1220    0.0110 C.3   198  HIS198      0.1752
     35  C         26.4740  -18.7880   -1.2960 C.2   198  HIS198      0.2596
     36  O         26.3450  -18.1000   -2.3290 O.2   198  HIS198     -0.2718
     37  CB        25.5150  -17.3220    0.4800 C.3   198  HIS198      0.0759
     38  CG        24.3320  -18.1970    0.9210 C.ar  198  HIS198      0.0818
     39  ND1       24.1550  -18.5870    2.2030 N.ar  198  HIS198     -0.2268
     40  CD2       23.2740  -18.7520    0.2010 C.ar  198  HIS198      0.1154
     41  CE1       23.0260  -19.3330    2.2960 C.ar  198  HIS198      0.1986
     42  NE2       22.5080  -19.4450    1.0700 N.ar  198  HIS198     -0.2212
     43  N         26.5150  -20.1270   -1.2780 N.am  199  GLY199     -0.1957
     44  CA        26.3870  -20.9360   -2.4680 C.3   199  GLY199      0.1869
     45  C         24.9990  -21.5350   -2.3590 C.2   199  GLY199      0.2309
     46  O         24.4440  -21.6620   -1.2570 O.2   199  GLY199     -0.2863
     47  N         19.1250  -30.5440   13.2410 N.3   224  GLY224     -0.1210
     48  CA        19.9290  -30.6490   12.0090 C.3   224  GLY224      0.1956
     49  C         20.8290  -29.4110   11.8180 C.2   224  GLY224      0.2612
     50  O         21.9210  -29.4980   11.2140 O.2   224  GLY224     -0.2717
     51  N         20.3790  -28.2680   12.3170 N.am  225  TYR225     -0.1962
     52  CA        21.1730  -27.0250   12.2020 C.3   225  TYR225      0.1771
     53  C         22.4150  -26.9060   13.1370 C.2   225  TYR225      0.2619
     54  O         22.3050  -26.4750   14.2450 O.2   225  TYR225     -0.2715
     55  CB        20.2030  -25.8350   12.3380 C.3   225  TYR225      0.0574
     56  CG        19.0200  -25.9710   11.3710 C.ar  225  TYR225     -0.0198
     57  CD1       17.9660  -26.8730   11.6380 C.ar  225  TYR225     -0.0009
     58  CD2       19.0070  -25.2880   10.1540 C.ar  225  TYR225     -0.0009
     59  CE1       16.9000  -27.0420   10.7490 C.ar  225  TYR225      0.0417
     60  CE2       17.9450  -25.4290    9.2580 C.ar  225  TYR225      0.0417
     61  CZ        16.8860  -26.3150    9.5590 C.ar  225  TYR225      0.1957
     62  OH        15.8400  -26.4780    8.6530 O.3   225  TYR225     -0.2866
     63  N         23.5990  -27.2830   12.6630 N.am  226  MET226     -0.1977
     64  CA        24.8220  -27.2510   13.5150 C.3   226  MET226      0.1605
     65  C         25.1200  -25.9770   14.3210 C.2   226  MET226      0.2287
     66  O         25.7210  -26.0420   15.4170 O.2   226  MET226     -0.2864
     67  CB        26.0210  -27.6500   12.6950 C.3   226  MET226      0.0413
     68  CG        25.8110  -28.9940   12.0390 C.3   226  MET226      0.0598
     69  SD        25.5570  -30.2100   13.3690 S.3   226  MET226     -0.1393
     70  CE        26.4030  -31.5270   12.4990 C.3   226  MET226      0.0692
     71  N         23.9020  -18.6570    6.7230 N.3   232  TYR232     -0.1227
     72  CA        25.2300  -19.2300    6.8810 C.3   232  TYR232      0.1736
     73  C         26.1620  -18.7040    5.7920 C.2   232  TYR232      0.2595
     74  O         25.8180  -18.7500    4.6040 O.2   232  TYR232     -0.2718
     75  CB        25.1200  -20.7790    6.7290 C.3   232  TYR232      0.0548
     76  CG        24.5610  -21.4940    7.9600 C.ar  232  TYR232     -0.0200
     77  CD1       23.2520  -21.3130    8.3500 C.ar  232  TYR232     -0.0009
     78  CD2       25.3810  -22.3210    8.7560 C.ar  232  TYR232     -0.0009
     79  CE1       22.7420  -21.8950    9.4960 C.ar  232  TYR232      0.0417
     80  CE2       24.8940  -22.9390    9.9030 C.ar  232  TYR232      0.0417
     81  CZ        23.5840  -22.7200   10.2770 C.ar  232  TYR232      0.1957
     82  OH        23.0640  -23.3230   11.3910 O.3   232  TYR232     -0.2866
     83  N         27.3730  -18.2790    6.1370 N.am  233  PHE233     -0.1962
     84  CA        28.2300  -17.8220    5.0820 C.3   233  PHE233      0.1771
     85  C         29.5940  -18.4700    5.2100 C.2   233  PHE233      0.2619
     86  O         29.9680  -18.8790    6.2560 O.2   233  PHE233     -0.2715
     87  CB        28.3920  -16.3410    5.2730 C.3   233  PHE233      0.0574
     88  CG        27.1290  -15.5670    5.1020 C.ar  233  PHE233     -0.0200
     89  CD1       26.7240  -15.1610    3.8050 C.ar  233  PHE233     -0.0042
     90  CD2       26.3400  -15.2070    6.2220 C.ar  233  PHE233     -0.0042
     91  CE1       25.5580  -14.4290    3.6490 C.ar  233  PHE233     -0.0003
     92  CE2       25.1550  -14.4660    6.0630 C.ar  233  PHE233     -0.0003
     93  CZ        24.7550  -14.1000    4.7460 C.ar  233  PHE233     -0.0000
     94  N         30.3700  -18.5290    4.1590 N.am  234  ALA234     -0.1977
     95  CA        31.7790  -18.9120    4.3030 C.3   234  ALA234      0.1597
     96  C         32.7500  -17.7130    4.0020 C.2   234  ALA234      0.2287
     97  O         32.3220  -16.6960    3.4450 O.2   234  ALA234     -0.2864
     98  CB        32.0710  -20.0910    3.3860 C.3   234  ALA234      0.0319
     99  N         34.1360  -23.6150   -0.2260 N.3   239  LYS239     -0.1231
    100  CA        33.2090  -24.1880    0.7200 C.3   239  LYS239      0.1693
    101  C         31.7620  -23.8270    0.3720 C.2   239  LYS239      0.2592
    102  O         30.9380  -24.7380    0.2970 O.2   239  LYS239     -0.2718
    103  CB        33.5440  -23.7730    2.1030 C.3   239  LYS239      0.0285
    104  CG        32.5620  -24.1940    3.1900 C.3   239  LYS239      0.0035
    105  CD        33.0490  -23.7610    4.5740 C.3   239  LYS239      0.0206
    106  CE        32.1760  -24.4920    5.6070 C.3   239  LYS239      0.1093
    107  NZ        32.4920  -24.3140    7.0420 N.3   239  LYS239     -0.1314
    108  N         31.4210  -22.5390    0.1870 N.am  240  SER240     -0.1952
    109  CA        30.0580  -22.2060   -0.3320 C.3   240  SER240      0.1924
    110  C         29.7950  -22.8190   -1.6910 C.2   240  SER240      0.2314
    111  O         28.6980  -23.2370   -1.9730 O.2   240  SER240     -0.2863
    112  CB        29.8710  -20.6850   -0.4900 C.3   240  SER240      0.2116
    113  OG        29.7260  -20.0880    0.7770 O.3   240  SER240     -0.2180
    114  N         27.8300  -25.9100   -2.1930 N.3   243  TYR243     -0.1241
    115  CA        26.3700  -25.9060   -2.0620 C.3   243  TYR243      0.1605
    116  C         25.6570  -25.4630   -3.3300 C.2   243  TYR243      0.2264
    117  O         24.4480  -25.2460   -3.3260 O.2   243  TYR243     -0.2867
    118  CB        25.9120  -25.0630   -0.8840 C.3   243  TYR243      0.0534
    119  CG        26.3130  -25.6000    0.4500 C.ar  243  TYR243     -0.0201
    120  CD1       25.5140  -26.5260    1.1200 C.ar  243  TYR243     -0.0009
    121  CD2       27.4980  -25.2040    1.0490 C.ar  243  TYR243     -0.0009
    122  CE1       25.8840  -27.0500    2.3550 C.ar  243  TYR243      0.0417
    123  CE2       27.8650  -25.6950    2.3000 C.ar  243  TYR243      0.0417
    124  CZ        27.0640  -26.6380    2.9390 C.ar  243  TYR243      0.1957
    125  OH        27.4300  -27.1120    4.2110 O.3   243  TYR243     -0.2866
    126  N         32.6840  -20.8290    9.5130 N.3   326  GLU326     -0.1245
    127  CA        31.4820  -20.4480    8.8490 C.3   326  GLU326      0.1567
    128  C         30.8060  -19.4440    9.7560 C.2   326  GLU326      0.2260
    129  O         31.1120  -19.4120   10.9430 O.2   326  GLU326     -0.2867
    130  CB        30.5980  -21.6530    8.4980 C.3   326  GLU326      0.0388
    131  CG        30.0970  -22.4850    9.6680 C.3   326  GLU326      0.1160
    132  CD        29.6830  -23.8670    9.1790 C.2   326  GLU326      0.3649
    133  OE1       30.4680  -24.5420    8.4370 O.co2 326  GLU326     -0.2457
    134  OE2       28.5720  -24.2810    9.5030 O.co2 326  GLU326     -0.2457
@<TRIPOS>BOND
     1   116   117    2
     2   116   115    1
     3    44    45    1
     4    44    43    1
     5    45    46    2
     6    36    35    2
     7   114   115    1
     8   115   118    1
     9   111   110    2
    10   110   109    1
    11    35    43   am
    12    35    34    1
    13   118   119    1
    14   112   109    1
    15   112   113    1
    16   109   108    1
    17    99   100    1
    18    33    34    1
    19    34    37    1
    20   108   101   am
    21    40    38   ar
    22    40    42   ar
    23   102   101    2
    24   101   100    1
    25   119   121   ar
    26   119   120   ar
    27    37    38    1
    28   100   103    1
    29    38    39   ar
    30    27    26    2
    31   121   123   ar
    32    42    41   ar
    33   120   122   ar
    34    26    25    1
    35    31    30    2
    36    28    25    1
    37    28    29    1
    38   103   104    1
    39    39    41   ar
    40   123   124   ar
    41   122   124   ar
    42    30    32   am
    43    30    29    1
    44    25    24    1
    45   124   125    1
    46   104   105    1
    47    98    95    1
    48    97    96    2
    49    24    18   am
    50    91    89   ar
    51    91    93   ar
    52    89    88   ar
    53    96    95    1
    54    13    12    2
    55    94    95    1
    56    94    85   am
    57    12    11    1
    58    19    18    2
    59    18    17    1
    60   105   106    1
    61    74    73    2
    62    16    17    1
    63    93    92   ar
    64    15    14    1
    65    84    85    1
    66    84    87    1
    67    84    83    1
    68    88    87    1
    69    88    90   ar
    70    85    86    2
    71    17    20    1
    72   106   107    1
    73    11    14    1
    74    11    10    1
    75    73    83   am
    76    73    72    1
    77    92    90   ar
    78    20    22    1
    79    20    21    1
    80    71    72    1
    81    75    72    1
    82    75    76    1
    83     4     3    2
    84     3     2    1
    85    21    23    1
    86    76    77   ar
    87    76    78   ar
    88     1     2    1
    89    77    79   ar
    90     2     5    1
    91   133   132   ar
    92   130   127    1
    93   130   131    1
    94    62    61    1
    95    78    80   ar
    96   127   126    1
    97   127   128    1
    98   132   134   ar
    99   132   131    1
   100     5     6    1
   101    60    61   ar
   102    60    58   ar
   103    79    81   ar
   104    61    59   ar
   105   128   129    2
   106    80    81   ar
   107    58    56   ar
   108    81    82    1
   109     8     7    2
   110    59    57   ar
   111     6     7    1
   112    50    49    2
   113     7     9   am
   114    56    57   ar
   115    56    55    1
   116    49    48    1
   117    49    51   am
   118    48    47    1
   119    68    67    1
   120    68    69    1
   121    52    51    1
   122    52    55    1
   123    52    53    1
   124    70    69    1
   125    63    53   am
   126    63    64    1
   127    67    64    1
   128    53    54    2
   129    64    65    1
   130    65    66    2
