@<TRIPOS>MOLECULE
tmp/4zzzA00.pdb
 115 112 0 0 0
SMALL
GASTEIGER

@<TRIPOS>ATOM
      1  N         54.8000   12.2300   11.8540 N.3   102  GLU102     -0.1245
      2  CA        55.6280   12.2120   10.6510 C.3   102  GLU102      0.1567
      3  C         55.4420   13.4820    9.7990 C.2   102  GLU102      0.2260
      4  O         56.4140   14.0350    9.2780 O.2   102  GLU102     -0.2867
      5  CB        55.3970   10.9400    9.8430 C.3   102  GLU102      0.0388
      6  CG        56.0530   10.9890    8.4580 C.3   102  GLU102      0.1160
      7  CD        56.9170    9.7720    8.1200 C.2   102  GLU102      0.3649
      8  OE1       56.6540    8.6520    8.6550 O.co2 102  GLU102     -0.2457
      9  OE2       57.8610    9.9420    7.2910 O.co2 102  GLU102     -0.2457
     10  N         57.4100   16.3390   11.6660 N.3   105  ASP105     -0.1239
     11  CA        58.8490   16.1170   11.4190 C.3   105  ASP105      0.1674
     12  C         59.2410   16.7500   10.0910 C.2   105  ASP105      0.2266
     13  O         60.2730   17.4480    9.9830 O.2   105  ASP105     -0.2867
     14  CB        59.1640   14.5880   11.3900 C.3   105  ASP105      0.1410
     15  CG        59.4190   13.9910   12.7880 C.2   105  ASP105      0.3668
     16  OD1       59.0010   14.5790   13.8310 O.co2 105  ASP105     -0.2456
     17  OD2       60.0640   12.9010   12.8470 O.co2 105  ASP105     -0.2456
     18  N         70.3070    6.7400    5.5360 N.3   198  HIS198     -0.1226
     19  CA        69.2070    7.5980    6.0490 C.3   198  HIS198      0.1752
     20  C         68.5870    8.2940    4.8770 C.2   198  HIS198      0.2596
     21  O         69.2740    8.9910    4.1330 O.2   198  HIS198     -0.2718
     22  CB        69.6830    8.6260    7.0760 C.3   198  HIS198      0.0759
     23  CG        68.5380    9.4560    7.6640 C.ar  198  HIS198      0.0818
     24  ND1       67.9490    9.1370    8.8200 N.ar  198  HIS198     -0.2268
     25  CD2       67.8470   10.5580    7.1660 C.ar  198  HIS198      0.1154
     26  CE1       66.9580   10.0050    9.0830 C.ar  198  HIS198      0.1986
     27  NE2       66.9000   10.8840    8.0790 N.ar  198  HIS198     -0.2212
     28  N         67.2930    8.0920    4.6750 N.am  199  GLY199     -0.1957
     29  CA        66.5460    8.6550    3.5490 C.3   199  GLY199      0.1869
     30  C         65.6860    9.8070    4.0790 C.2   199  GLY199      0.2309
     31  O         65.2910    9.8000    5.2250 O.2   199  GLY199     -0.2863
     32  N         57.3030    7.4810   17.9050 N.3   225  TYR225     -0.1227
     33  CA        58.3490    6.8260   17.1460 C.3   225  TYR225      0.1736
     34  C         58.5300    5.4380   17.7190 C.2   225  TYR225      0.2595
     35  O         58.5180    5.2750   18.9320 O.2   225  TYR225     -0.2718
     36  CB        59.6370    7.6160   17.2840 C.3   225  TYR225      0.0548
     37  CG        59.4700    9.0900   17.0140 C.ar  225  TYR225     -0.0200
     38  CD1       59.6170    9.5970   15.7220 C.ar  225  TYR225     -0.0009
     39  CD2       59.1620    9.9740   18.0520 C.ar  225  TYR225     -0.0009
     40  CE1       59.4700   10.9600   15.4720 C.ar  225  TYR225      0.0417
     41  CE2       59.0090   11.3300   17.8090 C.ar  225  TYR225      0.0417
     42  CZ        59.1650   11.8050   16.5230 C.ar  225  TYR225      0.1957
     43  OH        59.0120   13.1610   16.2990 O.3   225  TYR225     -0.2866
     44  N         58.7100    4.4600   16.8470 N.am  226  MET226     -0.1979
     45  CA        58.8190    3.0550   17.2760 C.3   226  MET226      0.1605
     46  C         59.8450    2.7980   18.3850 C.2   226  MET226      0.2287
     47  O         59.5810    1.9970   19.3110 O.2   226  MET226     -0.2864
     48  CB        59.0960    2.1340   16.0890 C.3   226  MET226      0.0413
     49  CG        59.0680    0.6470   16.4990 C.3   226  MET226      0.0598
     50  SD        59.2550   -0.4410   15.0870 S.3   226  MET226     -0.1393
     51  CE        59.3550   -2.0520   15.8750 C.3   226  MET226      0.0692
     52  N         67.4010    7.6080   13.1550 N.3   232  TYR232     -0.1227
     53  CA        67.1330    6.2800   12.5780 C.3   232  TYR232      0.1736
     54  C         67.9140    6.0440   11.3200 C.2   232  TYR232      0.2595
     55  O         68.0540    6.9600   10.4640 O.2   232  TYR232     -0.2718
     56  CB        65.6300    6.1840   12.2540 C.3   232  TYR232      0.0548
     57  CG        64.7630    6.0260   13.4730 C.ar  232  TYR232     -0.0200
     58  CD1       64.6080    7.0880   14.3900 C.ar  232  TYR232     -0.0009
     59  CD2       64.1090    4.8120   13.7400 C.ar  232  TYR232     -0.0009
     60  CE1       63.8170    6.9500   15.5190 C.ar  232  TYR232      0.0417
     61  CE2       63.3200    4.6600   14.8650 C.ar  232  TYR232      0.0417
     62  CZ        63.1780    5.7170   15.7530 C.ar  232  TYR232      0.1957
     63  OH        62.3840    5.6020   16.8690 O.3   232  TYR232     -0.2866
     64  N         68.3670    4.7850   11.1330 N.am  233  PHE233     -0.1962
     65  CA        69.1920    4.4190   10.0220 C.3   233  PHE233      0.1771
     66  C         68.7810    3.0150    9.6140 C.2   233  PHE233      0.2619
     67  O         68.2680    2.2940   10.4260 O.2   233  PHE233     -0.2715
     68  CB        70.6850    4.3440   10.4540 C.3   233  PHE233      0.0574
     69  CG        71.2780    5.6960   10.7820 C.ar  233  PHE233     -0.0200
     70  CD1       71.7910    6.5030    9.7650 C.ar  233  PHE233     -0.0042
     71  CD2       71.2440    6.1820   12.0800 C.ar  233  PHE233     -0.0042
     72  CE1       72.3160    7.7660   10.0810 C.ar  233  PHE233     -0.0003
     73  CE2       71.7680    7.4500   12.4010 C.ar  233  PHE233     -0.0003
     74  CZ        72.2940    8.2300   11.3800 C.ar  233  PHE233     -0.0000
     75  N         68.9850    2.6760    8.3570 N.am  234  ALA234     -0.1977
     76  CA        68.7470    1.2930    7.8700 C.3   234  ALA234      0.1597
     77  C         70.0370    0.7140    7.3020 C.2   234  ALA234      0.2287
     78  O         70.9100    1.4530    6.8350 O.2   234  ALA234     -0.2864
     79  CB        67.6430    1.3000    6.8010 C.3   234  ALA234      0.0319
     80  N         64.7760    0.4510    2.3920 N.3   239  LYS239     -0.1231
     81  CA        64.0200    0.8450    3.5720 C.3   239  LYS239      0.1693
     82  C         64.1860    2.3890    3.8200 C.2   239  LYS239      0.2592
     83  O         63.2240    3.0720    4.1260 O.2   239  LYS239     -0.2718
     84  CB        64.4890    0.0460    4.7730 C.3   239  LYS239      0.0285
     85  CG        63.7580    0.3770    6.0810 C.3   239  LYS239      0.0035
     86  CD        64.0800   -0.6020    7.2160 C.3   239  LYS239      0.0206
     87  CE        63.2950   -0.2810    8.4790 C.3   239  LYS239      0.1093
     88  NZ        63.4800   -1.3300    9.5330 N.3   239  LYS239     -0.1314
     89  N         65.4080    2.8840    3.6860 N.am  240  SER240     -0.1952
     90  CA        65.6810    4.3290    3.7610 C.3   240  SER240      0.1924
     91  C         65.1040    5.0900    2.5770 C.2   240  SER240      0.2314
     92  O         64.5400    6.2080    2.7130 O.2   240  SER240     -0.2863
     93  CB        67.1910    4.5350    3.8970 C.3   240  SER240      0.2116
     94  OG        67.5660    4.1690    5.2250 O.3   240  SER240     -0.2180
     95  N         61.7480    6.5360    2.5390 N.3   243  TYR243     -0.1241
     96  CA        61.6060    7.8320    3.2270 C.3   243  TYR243      0.1605
     97  C         61.9340    9.0330    2.3370 C.2   243  TYR243      0.2264
     98  O         61.7630   10.2010    2.7620 O.2   243  TYR243     -0.2867
     99  CB        62.3820    7.8640    4.5650 C.3   243  TYR243      0.0534
    100  CG        61.6970    6.9650    5.5720 C.ar  243  TYR243     -0.0201
    101  CD1       60.5770    7.4090    6.2610 C.ar  243  TYR243     -0.0009
    102  CD2       62.1290    5.6570    5.7870 C.ar  243  TYR243     -0.0009
    103  CE1       59.9050    6.5900    7.1550 C.ar  243  TYR243      0.0417
    104  CE2       61.4640    4.8290    6.6760 C.ar  243  TYR243      0.0417
    105  CZ        60.3440    5.3020    7.3410 C.ar  243  TYR243      0.1957
    106  OH        59.6720    4.5140    8.2340 O.3   243  TYR243     -0.2866
    107  N         66.8640   -1.9170   11.7700 N.3   324  GLU324     -0.1245
    108  CA        67.0350   -0.4800   11.8560 C.3   324  GLU324      0.1567
    109  C         67.8820   -0.1490   13.0650 C.2   324  GLU324      0.2260
    110  O         67.9940   -0.9540   13.9940 O.2   324  GLU324     -0.2867
    111  CB        65.7100    0.2870   11.8210 C.3   324  GLU324      0.0388
    112  CG        64.7510    0.0660   12.9750 C.3   324  GLU324      0.1160
    113  CD        63.4200    0.7010   12.6340 C.2   324  GLU324      0.3649
    114  OE1       62.8060    0.2610   11.6050 O.co2 324  GLU324     -0.2457
    115  OE2       63.0680    1.7090   13.3170 O.co2 324  GLU324     -0.2457
@<TRIPOS>BOND
     1    97    98    2
     2    97    96    1
     3    80    81    1
     4    95    96    1
     5    91    92    2
     6    91    90    1
     7    96    99    1
     8    29    30    1
     9    29    28    1
    10    81    82    1
    11    81    84    1
    12    89    90    1
    13    89    82   am
    14    90    93    1
    15    82    83    2
    16    93    94    1
    17    30    31    2
    18    21    20    2
    19    99   100    1
    20    28    20   am
    21    84    85    1
    22    20    19    1
    23    18    19    1
    24   100   102   ar
    25   100   101   ar
    26   102   104   ar
    27    19    22    1
    28    85    86    1
    29   101   103   ar
    30   104   105   ar
    31    79    76    1
    32    78    77    2
    33    22    23    1
    34   103   105   ar
    35    25    23   ar
    36    25    27   ar
    37    86    87    1
    38     9     7   ar
    39    77    76    1
    40   105   106    1
    41    23    24   ar
    42    76    75    1
    43    27    26   ar
    44     7     6    1
    45     7     8   ar
    46    75    66   am
    47     6     5    1
    48    87    88    1
    49    24    26   ar
    50     4     3    2
    51    66    65    1
    52    66    67    2
    53    70    72   ar
    54    70    69   ar
    55     3     2    1
    56     5     2    1
    57    13    12    2
    58    65    68    1
    59    65    64    1
    60    72    74   ar
    61    12    11    1
    62    68    69    1
    63    55    54    2
    64     2     1    1
    65    69    71   ar
    66    64    54   am
    67    54    53    1
    68    74    73   ar
    69    14    11    1
    70    14    15    1
    71    11    10    1
    72   114   113   ar
    73   107   108    1
    74   111   108    1
    75   111   112    1
    76   108   109    1
    77    71    73   ar
    78    56    53    1
    79    56    57    1
    80    53    52    1
    81   113   112    1
    82   113   115   ar
    83    15    17   ar
    84    15    16   ar
    85   109   110    2
    86    57    59   ar
    87    57    58   ar
    88    59    61   ar
    89    58    60   ar
    90    61    62   ar
    91    50    51    1
    92    50    49    1
    93    40    38   ar
    94    40    42   ar
    95    60    62   ar
    96    38    37   ar
    97    62    63    1
    98    48    49    1
    99    48    45    1
   100    43    42    1
   101    42    41   ar
   102    44    45    1
   103    44    34   am
   104    37    36    1
   105    37    39   ar
   106    33    36    1
   107    33    34    1
   108    33    32    1
   109    45    46    1
   110    34    35    2
   111    41    39   ar
   112    46    47    2
