@<TRIPOS>MOLECULE
tmp/521pA00.pdb
 191 188 0 0 0
SMALL
GASTEIGER

@<TRIPOS>ATOM
      1  N          5.9830   24.7120   20.8220 N.3    11  ALA11      -0.1231
      2  CA         6.1930   25.2700   22.1380 C.3    11  ALA11       0.1694
      3  C          6.5340   26.7440   22.3200 C.2    11  ALA11       0.2592
      4  O          6.6190   27.4980   21.3490 O.2    11  ALA11      -0.2718
      5  CB         7.2630   24.3850   22.8210 C.3    11  ALA11       0.0304
      6  N          6.6050   27.1850   23.5930 N.am   12  VAL12      -0.1966
      7  CA         6.9450   28.5360   23.9280 C.3    12  VAL12       0.1727
      8  C          8.4420   28.6750   24.1310 C.2    12  VAL12       0.2617
      9  O          9.1260   27.8080   24.6820 O.2    12  VAL12      -0.2715
     10  CB         6.1540   28.9210   25.1580 C.3    12  VAL12       0.0290
     11  CG1        6.2650   30.4290   25.4150 C.3    12  VAL12       0.0023
     12  CG2        4.6760   28.6870   24.8900 C.3    12  VAL12       0.0023
     13  N          8.8680   29.7910   23.5060 N.am   13  GLY13      -0.1940
     14  CA        10.2470   30.2000   23.3750 C.3    13  GLY13       0.2014
     15  C         10.8030   29.9150   21.9850 C.2    13  GLY13       0.2639
     16  O         11.5940   30.7070   21.4760 O.2    13  GLY13      -0.2714
     17  N         10.3920   28.8070   21.3170 N.am   14  VAL14      -0.1963
     18  CA        10.9500   28.2790   20.0640 C.3    14  VAL14       0.1727
     19  C         11.2140   29.1990   18.8740 C.2    14  VAL14       0.2617
     20  O         12.2600   29.0610   18.2370 O.2    14  VAL14      -0.2715
     21  CB        10.0900   27.0460   19.5330 C.3    14  VAL14       0.0290
     22  CG1       10.0920   25.9850   20.6250 C.3    14  VAL14       0.0023
     23  CG2        8.7030   27.4100   19.1120 C.3    14  VAL14       0.0023
     24  N         10.3630   30.1740   18.5580 N.am   15  GLY15      -0.1940
     25  CA        10.6030   31.0900   17.4690 C.3    15  GLY15       0.2014
     26  C          9.5410   30.9490   16.4380 C.2    15  GLY15       0.2639
     27  O          9.8080   31.1070   15.2600 O.2    15  GLY15      -0.2714
     28  N          8.3000   30.7180   16.8280 N.am   16  LYS16      -0.1963
     29  CA         7.2120   30.5860   15.8990 C.3    16  LYS16       0.1728
     30  C          6.9970   31.9380   15.2920 C.2    16  LYS16       0.2617
     31  O          7.0990   31.9910   14.0760 O.2    16  LYS16      -0.2715
     32  CB         5.9690   30.1440   16.6140 C.3    16  LYS16       0.0311
     33  CG         6.1720   28.7450   17.0810 C.3    16  LYS16       0.0038
     34  CD         4.9090   28.2100   17.5800 C.3    16  LYS16       0.0206
     35  CE         4.3800   29.0120   18.7220 C.3    16  LYS16       0.1093
     36  NZ         5.2340   28.7880   19.8460 N.3    16  LYS16      -0.1314
     37  N          6.8210   33.0300   16.0840 N.am   17  SER17      -0.1936
     38  CA         6.5580   34.3970   15.6010 C.3    17  SER17       0.2055
     39  C          7.7570   35.0430   14.9390 C.2    17  SER17       0.2642
     40  O          7.5680   35.8880   14.0820 O.2    17  SER17      -0.2714
     41  CB         6.1070   35.3370   16.7250 C.3    17  SER17       0.2130
     42  OG         4.9170   35.0680   17.4720 O.3    17  SER17      -0.2179
     43  N          8.9960   34.6390   15.2100 N.am   18  ALA18      -0.1977
     44  CA        10.1720   35.2340   14.6080 C.3    18  ALA18       0.1597
     45  C         10.4500   34.6250   13.2530 C.2    18  ALA18       0.2287
     46  O         11.2490   35.2140   12.5290 O.2    18  ALA18      -0.2864
     47  CB        11.4030   35.0430   15.5220 C.3    18  ALA18       0.0319
     48  N         14.5740   40.5700   12.1920 N.3    28  PHE28      -0.1227
     49  CA        14.4240   39.6340   13.3110 C.3    28  PHE28       0.1736
     50  C         13.6940   40.2480   14.5140 C.2    28  PHE28       0.2595
     51  O         13.8830   41.4390   14.7650 O.2    28  PHE28      -0.2718
     52  CB        15.8430   39.1170   13.7160 C.3    28  PHE28       0.0547
     53  CG        15.9470   38.2950   15.0030 C.ar   28  PHE28      -0.0202
     54  CD1       15.2610   37.1170   15.1530 C.ar   28  PHE28      -0.0042
     55  CD2       16.7760   38.7350   16.0210 C.ar   28  PHE28      -0.0042
     56  CE1       15.4180   36.4060   16.3040 C.ar   28  PHE28      -0.0003
     57  CE2       16.9210   38.0070   17.1830 C.ar   28  PHE28      -0.0003
     58  CZ        16.2410   36.8360   17.3140 C.ar   28  PHE28      -0.0000
     59  N         12.8310   39.4970   15.2230 N.am   29  VAL29      -0.1966
     60  CA        12.2130   39.9730   16.4490 C.3    29  VAL29       0.1727
     61  C         12.9980   39.3190   17.6070 C.2    29  VAL29       0.2616
     62  O         12.8350   38.1340   17.9540 O.2    29  VAL29      -0.2715
     63  CB        10.6350   39.5900   16.5110 C.3    29  VAL29       0.0290
     64  CG1       10.0060   39.7140   17.9160 C.3    29  VAL29       0.0023
     65  CG2        9.8350   40.6150   15.7250 C.3    29  VAL29       0.0023
     66  N         13.9260   40.1840   18.1040 N.am   30  ASP30      -0.1957
     67  CA        14.7120   40.0280   19.3350 C.3    30  ASP30       0.1840
     68  C         13.7370   40.2210   20.4830 C.2    30  ASP30       0.2622
     69  O         13.9440   39.6490   21.5640 O.2    30  ASP30      -0.2715
     70  CB        15.7760   41.1360   19.6340 C.3    30  ASP30       0.1450
     71  CG        16.9950   41.3620   18.7160 C.2    30  ASP30       0.3671
     72  OD1       16.7860   41.5590   17.4970 O.co2  30  ASP30      -0.2456
     73  OD2       18.1480   41.3630   19.2240 O.co2  30  ASP30      -0.2456
     74  N         12.7100   41.0740   20.3160 N.am   31  GLU31      -0.1963
     75  CA        11.8200   41.2930   21.4350 C.3    31  GLU31       0.1733
     76  C         10.8920   40.1110   21.7730 C.2    31  GLU31       0.2616
     77  O         10.2360   39.4250   20.9580 O.2    31  GLU31      -0.2715
     78  CB        10.9600   42.5890   21.2190 C.3    31  GLU31       0.0429
     79  CG         9.9430   43.0000   22.3000 C.3    31  GLU31       0.1163
     80  CD        10.4250   43.6270   23.6220 C.2    31  GLU31       0.3649
     81  OE1       10.8860   42.9030   24.5410 O.co2  31  GLU31      -0.2457
     82  OE2       10.2860   44.8720   23.7300 O.co2  31  GLU31      -0.2457
     83  N         11.0930   39.8840   23.0970 N.am   32  TYR32      -0.1960
     84  CA        10.2870   38.9980   23.9470 C.3    32  TYR32       0.1771
     85  C          8.7790   39.4270   23.8220 C.2    32  TYR32       0.2620
     86  O          8.4610   40.5430   24.3110 O.2    32  TYR32      -0.2715
     87  CB        10.8800   39.2070   25.3880 C.3    32  TYR32       0.0574
     88  CG        10.4090   38.3770   26.5840 C.ar   32  TYR32      -0.0198
     89  CD1        9.0570   38.1120   26.7830 C.ar   32  TYR32      -0.0009
     90  CD2       11.3490   37.8290   27.4810 C.ar   32  TYR32      -0.0009
     91  CE1        8.6340   37.3100   27.8610 C.ar   32  TYR32       0.0417
     92  CE2       10.9250   37.0250   28.5500 C.ar   32  TYR32       0.0417
     93  CZ         9.5670   36.7710   28.7350 C.ar   32  TYR32       0.1957
     94  OH         9.1150   35.9600   29.7650 O.3    32  TYR32      -0.2866
     95  N          7.8060   38.7570   23.1730 N.am   33  ASP33      -0.1958
     96  CA         6.4110   39.1300   23.4080 C.3    33  ASP33       0.1825
     97  C          5.3890   38.1100   22.9020 C.2    33  ASP33       0.2464
     98  O          5.2130   37.9530   21.6940 O.2    33  ASP33      -0.2730
     99  CB         6.1110   40.5300   22.7950 C.3    33  ASP33       0.1450
    100  CG         6.0600   40.6680   21.2720 C.2    33  ASP33       0.3671
    101  OD1        4.9790   40.3630   20.7340 O.co2  33  ASP33      -0.2456
    102  OD2        7.0530   41.1200   20.6560 O.co2  33  ASP33      -0.2456
    103  N          4.6770   37.3710   23.7620 N.am   34  PRO34      -0.2715
    104  CA         4.0440   36.1290   23.4220 C.3    34  PRO34       0.1536
    105  C          2.7030   36.3370   22.7240 C.2    34  PRO34       0.2599
    106  O          2.1590   37.4550   22.6550 O.2    34  PRO34      -0.2715
    107  CB         3.9730   35.4340   24.7400 C.3    34  PRO34       0.0310
    108  CG         4.8750   36.2880   25.5700 C.3    34  PRO34       0.0237
    109  CD         4.4190   37.6430   25.1400 C.3    34  PRO34       0.0939
    110  N          2.2210   35.1810   22.2170 N.am   35  THR35      -0.1951
    111  CA         1.0800   35.0810   21.2930 C.3    35  THR35       0.1897
    112  C         -0.2150   34.3990   21.8380 C.2    35  THR35       0.2313
    113  O         -0.1760   33.5980   22.7820 O.2    35  THR35      -0.2863
    114  CB         1.6240   34.3310   19.9690 C.3    35  THR35       0.1794
    115  OG1        2.7890   35.0540   19.5230 O.3    35  THR35      -0.2208
    116  CG2        0.5440   34.1830   18.8450 C.3    35  THR35       0.0378
    117  N          0.0400   31.9840   12.8680 N.3    57  ASP57      -0.1225
    118  CA         1.0070   31.8930   13.9370 C.3    57  ASP57       0.1805
    119  C          0.2470   31.7500   15.2060 C.2    57  ASP57       0.2598
    120  O         -0.5880   32.6080   15.4940 O.2    57  ASP57      -0.2718
    121  CB         1.7910   33.1510   13.9600 C.3    57  ASP57       0.1424
    122  CG         2.6650   33.3720   15.1630 C.2    57  ASP57       0.3668
    123  OD1        3.1710   32.4230   15.7770 O.co2  57  ASP57      -0.2456
    124  OD2        2.8410   34.5510   15.4530 O.co2  57  ASP57      -0.2456
    125  N          0.5010   30.7210   15.9880 N.am   58  THR58      -0.1939
    126  CA        -0.2010   30.6170   17.2380 C.3    58  THR58       0.2028
    127  C          0.7430   30.2990   18.3560 C.2    58  THR58       0.2642
    128  O          1.8410   30.8030   18.4450 O.2    58  THR58      -0.2714
    129  CB        -1.2590   29.5760   17.0170 C.3    58  THR58       0.1808
    130  OG1       -0.5060   28.4300   16.6510 O.3    58  THR58      -0.2208
    131  CG2       -2.3410   29.9580   16.0280 C.3    58  THR58       0.0379
    132  N          0.3490   29.4400   19.2750 N.am   59  THR59      -0.1950
    133  CA         1.1400   29.0910   20.4370 C.3    59  THR59       0.1897
    134  C          1.2400   27.5440   20.7090 C.2    59  THR59       0.2313
    135  O          0.9870   26.6310   19.8830 O.2    59  THR59      -0.2863
    136  CB         0.5230   29.9260   21.6340 C.3    59  THR59       0.1794
    137  OG1       -0.2940   29.0170   22.3310 O.3    59  THR59      -0.2208
    138  CG2       -0.4060   31.0840   21.2840 C.3    59  THR59       0.0378
    139  N         14.4700   24.9010   15.0770 N.3   116  ASN116     -0.1225
    140  CA        14.8120   26.3160   15.0500 C.3   116  ASN116      0.1785
    141  C         15.9190   26.7370   15.9810 C.2   116  ASN116      0.2597
    142  O         16.2490   26.0170   16.9080 O.2   116  ASN116     -0.2718
    143  CB        13.5830   27.1550   15.3710 C.3   116  ASN116      0.1169
    144  CG        13.7470   28.5640   14.8310 C.2   116  ASN116      0.2627
    145  OD1       14.3530   28.7440   13.7810 O.2   116  ASN116     -0.2716
    146  ND2       13.3180   29.6280   15.4840 N.am  116  ASN116     -0.0877
    147  N         16.4850   27.9220   15.6970 N.am  117  LYS117     -0.1980
    148  CA        17.4660   28.6840   16.4620 C.3   117  LYS117      0.1596
    149  C         18.8460   28.1510   16.2230 C.2   117  LYS117      0.2287
    150  O         19.7260   28.3340   17.0660 O.2   117  LYS117     -0.2864
    151  CB        17.1150   28.6420   17.9930 C.3   117  LYS117      0.0298
    152  CG        15.7180   29.1980   18.3630 C.3   117  LYS117      0.0038
    153  CD        15.6730   29.6560   19.7840 C.3   117  LYS117      0.0206
    154  CE        14.3780   30.4330   20.0930 C.3   117  LYS117      0.1093
    155  NZ        14.4290   31.0290   21.4230 N.3   117  LYS117     -0.1314
    156  N         21.6280   28.7530   14.8910 N.3   119  ASP119     -0.1225
    157  CA        22.8490   29.5520   15.1160 C.3   119  ASP119      0.1805
    158  C         23.3750   29.5920   16.5630 C.2   119  ASP119      0.2597
    159  O         24.4500   30.1380   16.7970 O.2   119  ASP119     -0.2718
    160  CB        22.6250   30.9890   14.6690 C.3   119  ASP119      0.1424
    161  CG        21.4480   31.7600   15.2380 C.2   119  ASP119      0.3668
    162  OD1       20.8640   31.4650   16.2830 O.co2 119  ASP119     -0.2456
    163  OD2       21.1090   32.7150   14.5720 O.co2 119  ASP119     -0.2456
    164  N         22.7040   29.0370   17.5820 N.am  120  LEU120     -0.1979
    165  CA        23.2450   29.0440   18.9290 C.3   120  LEU120      0.1596
    166  C         24.0520   27.7850   19.2120 C.2   120  LEU120      0.2287
    167  O         23.6840   26.6920   18.7690 O.2   120  LEU120     -0.2864
    168  CB        22.1050   29.1810   19.9360 C.3   120  LEU120      0.0297
    169  CG        21.4590   30.5810   19.9050 C.3   120  LEU120      0.0022
    170  CD1       20.3870   30.7020   20.9860 C.3   120  LEU120      0.0001
    171  CD2       22.5120   31.6240   20.1620 C.3   120  LEU120      0.0001
    172  N         16.7900   29.3860   11.1560 N.3   145  SER145     -0.1202
    173  CA        17.2630   30.5410   11.8870 C.3   145  SER145      0.2020
    174  C         16.5030   31.8160   11.4830 C.2   145  SER145      0.2619
    175  O         16.3720   32.2110   10.3350 O.2   145  SER145     -0.2717
    176  CB        18.7260   30.7230   11.6330 C.3   145  SER145      0.2103
    177  OG        19.1490   31.8440   12.3920 O.3   145  SER145     -0.2182
    178  N         15.8500   32.3540   12.5070 N.am  146  ALA146     -0.1965
    179  CA        15.1480   33.6310   12.5170 C.3   146  ALA146      0.1728
    180  C         16.0950   34.7900   12.8080 C.2   146  ALA146      0.2616
    181  O         15.7750   35.8960   12.3460 O.2   146  ALA146     -0.2715
    182  CB        14.0450   33.6670   13.5850 C.3   146  ALA146      0.0334
    183  N         17.2240   34.6420   13.5580 N.am  147  LYS147     -0.1977
    184  CA        18.1990   35.7460   13.7040 C.3   147  LYS147      0.1596
    185  C         18.8430   36.0790   12.3310 C.2   147  LYS147      0.2287
    186  O         18.9020   37.2550   11.9240 O.2   147  LYS147     -0.2864
    187  CB        19.2950   35.3650   14.7170 C.3   147  LYS147      0.0298
    188  CG        20.3440   36.4240   15.1640 C.3   147  LYS147      0.0038
    189  CD        20.2190   36.9330   16.6240 C.3   147  LYS147      0.0206
    190  CE        20.6720   38.4110   16.9020 C.3   147  LYS147      0.1093
    191  NZ        20.3030   38.9290   18.2440 N.3   147  LYS147     -0.1314
@<TRIPOS>BOND
     1   175   174    2
     2   172   173    1
     3   174   173    1
     4   174   178   am
     5   176   173    1
     6   176   177    1
     7   186   185    2
     8    48    49    1
     9   185   184    1
    10   181   180    2
    11   178   179    1
    12   179   180    1
    13   179   182    1
    14    46    45    2
    15   180   183   am
    16   117   118    1
    17    45    44    1
    18    49    52    1
    19    49    50    1
    20   183   184    1
    21   184   187    1
    22    52    53    1
    23   145   144    2
    24   118   121    1
    25   118   119    1
    26   121   122    1
    27    31    30    2
    28    40    39    2
    29    50    51    2
    30    50    59   am
    31   163   161   ar
    32    44    43    1
    33    44    47    1
    34   160   157    1
    35   160   161    1
    36   187   188    1
    37   144   143    1
    38   144   146   am
    39   156   157    1
    40    39    43   am
    41    39    38    1
    42    53    54   ar
    43    53    55   ar
    44   140   139    1
    45   140   143    1
    46   140   141    1
    47   157   158    1
    48    54    56   ar
    49   122   124   ar
    50   122   123   ar
    51   188   189    1
    52   119   120    2
    53   119   125   am
    54    59    60    1
    55   161   162   ar
    56    27    26    2
    57    30    29    1
    58    30    37   am
    59    38    37    1
    60    38    41    1
    61   147   141   am
    62   147   148    1
    63    65    63    1
    64    29    32    1
    65    29    28    1
    66   141   142    2
    67   125   126    1
    68    55    57   ar
    69   131   129    1
    70   149   148    1
    71   149   150    2
    72    56    58   ar
    73    26    28   am
    74    26    25    1
    75    60    63    1
    76    60    61    1
    77   148   151    1
    78    63    64    1
    79   158   159    2
    80   158   164   am
    81    32    33    1
    82   189   190    1
    83   130   129    1
    84    41    42    1
    85   190   191    1
    86   129   126    1
    87    33    34    1
    88    57    58   ar
    89   126   127    1
    90    25    24    1
    91    72    71   ar
    92    34    35    1
    93   164   165    1
    94    61    62    2
    95    61    66   am
    96   151   152    1
    97    66    67    1
    98    20    19    2
    99   127   128    2
   100   127   132   am
   101   152   153    1
   102    24    19   am
   103    71    73   ar
   104    71    70    1
   105    35    36    1
   106   167   166    2
   107   116   114    1
   108    19    18    1
   109   165   166    1
   110   165   168    1
   111    23    21    1
   112   132   133    1
   113    67    70    1
   114    67    68    1
   115   115   114    1
   116    21    18    1
   117    21    22    1
   118   153   154    1
   119   135   134    2
   120   169   168    1
   121   169   171    1
   122   169   170    1
   123   114   111    1
   124    18    17    1
   125   154   155    1
   126    74    68   am
   127    74    75    1
   128   133   134    1
   129   133   136    1
   130    68    69    2
   131   102   100   ar
   132   101   100   ar
   133     1     2    1
   134    77    76    2
   135    78    75    1
   136    78    79    1
   137   100    99    1
   138   138   136    1
   139   111   112    1
   140   111   110    1
   141    17    15   am
   142     4     3    2
   143    75    76    1
   144    16    15    2
   145   136   137    1
   146    98    97    2
   147    76    83   am
   148   112   113    2
   149    15    14    1
   150     2     3    1
   151     2     5    1
   152   110   105   am
   153    79    80    1
   154     3     6   am
   155   106   105    2
   156   105   104    1
   157    99    96    1
   158    97    96    1
   159    97   103   am
   160    83    84    1
   161    95    96    1
   162    95    85   am
   163    14    13    1
   164   104   103    1
   165   104   107    1
   166    13     8   am
   167     6     7    1
   168    80    82   ar
   169    80    81   ar
   170   103   109    1
   171    85    84    1
   172    85    86    2
   173     7     8    1
   174     7    10    1
   175    84    87    1
   176     8     9    2
   177   107   108    1
   178    12    10    1
   179   109   108    1
   180    10    11    1
   181    87    88    1
   182    88    89   ar
   183    88    90   ar
   184    89    91   ar
   185    90    92   ar
   186    91    93   ar
   187    92    93   ar
   188    93    94    1
