@<TRIPOS>MOLECULE
tmp/5a00A00.pdb
 149 145 0 0 0
SMALL
GASTEIGER

@<TRIPOS>ATOM
      1  N         17.1330    4.8610   73.7350 N.3    93  GLN93      -0.1245
      2  CA        17.6930    6.2090   73.8290 C.3    93  GLN93       0.1566
      3  C         18.3660    6.6480   72.5260 C.2    93  GLN93       0.2260
      4  O         18.3640    7.8370   72.1960 O.2    93  GLN93      -0.2867
      5  CB        18.6640    6.2960   74.9970 C.3    93  GLN93       0.0367
      6  CG        17.9930    6.0780   76.3430 C.3    93  GLN93       0.0905
      7  CD        18.9700    5.6900   77.4290 C.2    93  GLN93       0.2608
      8  OE1       20.1820    5.7030   77.2190 O.2    93  GLN93      -0.2717
      9  NE2       18.4490    5.3410   78.5990 N.am   93  GLN93      -0.0878
     10  N         15.3950    7.9200   70.6260 N.3    96  VAL96      -0.1231
     11  CA        14.9620    9.2370   71.1250 C.3    96  VAL96       0.1692
     12  C         15.8040   10.3480   70.4830 C.2    96  VAL96       0.2591
     13  O         15.2500   11.3110   69.9480 O.2    96  VAL96      -0.2718
     14  CB        15.0330    9.3600   72.6710 C.3    96  VAL96       0.0266
     15  CG1       14.5360   10.7260   73.1380 C.3    96  VAL96       0.0020
     16  CG2       14.2320    8.2580   73.3450 C.3    96  VAL96       0.0020
     17  N         17.1320   10.1870   70.5280 N.am   97  GLU97      -0.1979
     18  CA        18.0810   11.1490   69.9610 C.3    97  GLU97       0.1602
     19  C         17.7820   11.4480   68.5110 C.2    97  GLU97       0.2287
     20  O         17.8490   12.5980   68.0820 O.2    97  GLU97      -0.2864
     21  CB        19.5080   10.6260   70.0580 C.3    97  GLU97       0.0415
     22  CG        20.2000   10.9170   71.3730 C.3    97  GLU97       0.1163
     23  CD        21.4770   10.1110   71.5290 C.2    97  GLU97       0.3649
     24  OE1       22.4210   10.3280   70.7350 O.co2  97  GLU97      -0.2457
     25  OE2       21.5290    9.2470   72.4360 O.co2  97  GLU97      -0.2457
     26  N         14.4130   13.4510   68.3040 N.3   100  ASP100     -0.1239
     27  CA        14.6820   14.8320   68.7080 C.3   100  ASP100      0.1674
     28  C         15.2140   15.6260   67.5160 C.2   100  ASP100      0.2266
     29  O         14.7360   16.7230   67.2260 O.2   100  ASP100     -0.2867
     30  CB        15.6650   14.8860   69.8870 C.3   100  ASP100      0.1410
     31  CG        15.0760   14.3070   71.1910 C.2   100  ASP100      0.3668
     32  OD1       13.8830   13.9180   71.2240 O.co2 100  ASP100     -0.2456
     33  OD2       15.8220   14.2390   72.1960 O.co2 100  ASP100     -0.2456
     34  N         25.3660   26.0210   75.0090 N.3   192  HIS192     -0.1226
     35  CA        24.4530   24.9860   74.5690 C.3   192  HIS192      0.1752
     36  C         24.7560   24.5720   73.1540 C.2   192  HIS192      0.2596
     37  O         24.4420   25.2880   72.2070 O.2   192  HIS192     -0.2718
     38  CB        23.0110   25.4540   74.6960 C.3   192  HIS192      0.0759
     39  CG        22.0080   24.3720   74.4060 C.ar  192  HIS192      0.0818
     40  ND1       21.5040   23.5810   75.3680 N.ar  192  HIS192     -0.2268
     41  CD2       21.4500   23.9440   73.2100 C.ar  192  HIS192      0.1154
     42  CE1       20.6480   22.7050   74.8220 C.ar  192  HIS192      0.1986
     43  NE2       20.6180   22.9230   73.4990 N.ar  192  HIS192     -0.2212
     44  N         25.3890   23.4150   72.9980 N.am  193  GLY193     -0.1957
     45  CA        25.6910   22.8740   71.6730 C.3   193  GLY193      0.1869
     46  C         24.5370   22.0530   71.1320 C.2   193  GLY193      0.2309
     47  O         23.7530   21.4920   71.8980 O.2   193  GLY193     -0.2863
     48  N         10.0300    9.0100   76.4000 N.3   215  PRO215     -0.2116
     49  CA        10.4460    8.1880   77.5530 C.3   215  PRO215      0.1372
     50  C         11.3100    8.9540   78.5620 C.2   215  PRO215      0.2244
     51  O         12.0880    9.8270   78.1750 O.2   215  PRO215     -0.2868
     52  CB        11.2470    7.0450   76.9150 C.3   215  PRO215      0.0268
     53  CG        11.6090    7.5230   75.5510 C.3   215  PRO215      0.0207
     54  CD        10.5050    8.4440   75.1240 C.3   215  PRO215      0.0892
     55  N         13.7040    7.9610   81.0370 N.3   217  THR217     -0.1203
     56  CA        15.1000    7.6580   81.3630 C.3   217  THR217      0.1994
     57  C         16.0510    8.0480   80.2210 C.2   217  THR217      0.2618
     58  O         15.6150    8.3690   79.1090 O.2   217  THR217     -0.2717
     59  CB        15.2960    6.1820   81.7970 C.3   217  THR217      0.1784
     60  OG1       14.0670    5.6620   82.3250 O.3   217  THR217     -0.2211
     61  CG2       16.4110    6.0570   82.8660 C.3   217  THR217      0.0376
     62  N         17.3480    8.0240   80.5170 N.am  218  GLY218     -0.1942
     63  CA        18.3720    8.5490   79.6210 C.3   218  GLY218      0.2014
     64  C         18.8280    9.9090   80.1120 C.2   218  GLY218      0.2639
     65  O         20.0070   10.2540   80.0020 O.2   218  GLY218     -0.2714
     66  N         17.8730   10.6650   80.6600 N.am  219  TYR219     -0.1959
     67  CA        18.0950   11.9970   81.2230 C.3   219  TYR219      0.1771
     68  C         18.7230   11.9240   82.6070 C.2   219  TYR219      0.2619
     69  O         18.0890   11.4570   83.5600 O.2   219  TYR219     -0.2715
     70  CB        16.7660   12.7560   81.3310 C.3   219  TYR219      0.0574
     71  CG        16.1060   13.0720   80.0100 C.ar  219  TYR219     -0.0198
     72  CD1       16.4730   14.2070   79.2850 C.ar  219  TYR219     -0.0009
     73  CD2       15.1100   12.2430   79.4860 C.ar  219  TYR219     -0.0009
     74  CE1       15.8740   14.5100   78.0740 C.ar  219  TYR219      0.0417
     75  CE2       14.5040   12.5360   78.2720 C.ar  219  TYR219      0.0417
     76  CZ        14.8920   13.6750   77.5720 C.ar  219  TYR219      0.1957
     77  OH        14.3100   13.9810   76.3660 O.3   219  TYR219     -0.2866
     78  N         19.9560   12.4030   82.7260 N.am  220  MET220     -0.1977
     79  CA        20.6280   12.4260   84.0180 C.3   220  MET220      0.1605
     80  C         19.8400   13.2500   85.0410 C.2   220  MET220      0.2287
     81  O         19.6310   12.8100   86.1750 O.2   220  MET220     -0.2864
     82  CB        22.0590   12.9440   83.8840 C.3   220  MET220      0.0413
     83  CG        22.9290   12.6300   85.0900 C.3   220  MET220      0.0598
     84  SD        24.7060   12.6830   84.7640 S.3   220  MET220     -0.1393
     85  CE        24.9510   11.2090   83.7650 C.3   220  MET220      0.0692
     86  N         19.5730   21.8220   79.0810 N.3   226  TYR226     -0.1227
     87  CA        20.8850   21.4650   79.6260 C.3   226  TYR226      0.1736
     88  C         21.9980   22.3580   79.0990 C.2   226  TYR226      0.2595
     89  O         22.1310   22.5490   77.8880 O.2   226  TYR226     -0.2718
     90  CB        21.2230   20.0070   79.2980 C.3   226  TYR226      0.0548
     91  CG        20.4760   18.9500   80.0890 C.ar  226  TYR226     -0.0200
     92  CD1       19.0890   18.7890   79.9590 C.ar  226  TYR226     -0.0009
     93  CD2       21.1620   18.0850   80.9430 C.ar  226  TYR226     -0.0009
     94  CE1       18.4080   17.8130   80.6810 C.ar  226  TYR226      0.0417
     95  CE2       20.4960   17.1020   81.6660 C.ar  226  TYR226      0.0417
     96  CZ        19.1220   16.9700   81.5360 C.ar  226  TYR226      0.1957
     97  OH        18.4620   15.9990   82.2550 O.3   226  TYR226     -0.2866
     98  N         22.8100   22.8820   80.0140 N.am  227  PHE227     -0.1962
     99  CA        23.9000   23.7980   79.6590 C.3   227  PHE227      0.1771
    100  C         25.2440   23.3460   80.2160 C.2   227  PHE227      0.2619
    101  O         25.2990   22.5060   81.1090 O.2   227  PHE227     -0.2715
    102  CB        23.6020   25.2030   80.1790 C.3   227  PHE227      0.0574
    103  CG        22.4390   25.8590   79.5220 C.ar  227  PHE227     -0.0200
    104  CD1       22.6010   26.5520   78.3380 C.ar  227  PHE227     -0.0042
    105  CD2       21.1760   25.7910   80.0940 C.ar  227  PHE227     -0.0042
    106  CE1       21.5250   27.1710   77.7300 C.ar  227  PHE227     -0.0003
    107  CE2       20.0880   26.4070   79.4980 C.ar  227  PHE227     -0.0003
    108  CZ        20.2640   27.1010   78.3110 C.ar  227  PHE227     -0.0000
    109  N         26.3170   23.9360   79.6970 N.am  228  ALA228     -0.1977
    110  CA        27.6730   23.6720   80.1730 C.3   228  ALA228      0.1597
    111  C         28.4320   24.9710   80.4450 C.2   228  ALA228      0.2287
    112  O         28.1250   26.0080   79.8650 O.2   228  ALA228     -0.2864
    113  CB        28.4280   22.8290   79.1540 C.3   228  ALA228      0.0319
    114  N         32.5040   20.4840   76.1480 N.3   233  LYS233     -0.1231
    115  CA        31.4110   19.5940   76.5640 C.3   233  LYS233      0.1693
    116  C         30.1410   19.8360   75.7460 C.2   233  LYS233      0.2592
    117  O         29.4460   18.8850   75.3770 O.2   233  LYS233     -0.2718
    118  CB        31.1050   19.7410   78.0610 C.3   233  LYS233      0.0285
    119  CG        29.8780   18.9590   78.5120 C.3   233  LYS233      0.0035
    120  CD        29.7820   18.8600   80.0170 C.3   233  LYS233      0.0206
    121  CE        28.8300   17.7490   80.4140 C.3   233  LYS233      0.1093
    122  NZ        29.0070   17.3780   81.8480 N.3   233  LYS233     -0.1314
    123  N         29.8420   21.1070   75.4810 N.am  234  SER234     -0.1952
    124  CA        28.7200   21.4790   74.6270 C.3   234  SER234      0.1924
    125  C         29.0520   21.2470   73.1640 C.2   234  SER234      0.2314
    126  O         28.1740   20.8780   72.3830 O.2   234  SER234     -0.2863
    127  CB        28.3400   22.9420   74.8330 C.3   234  SER234      0.2116
    128  OG        27.2960   23.0780   75.7780 O.3   234  SER234     -0.2180
    129  N         28.1060   18.0230   71.3110 N.3   237  TYR237     -0.1241
    130  CA        26.7370   17.8430   70.8020 C.3   237  TYR237      0.1605
    131  C         26.5320   18.4840   69.4280 C.2   237  TYR237      0.2264
    132  O         25.4290   18.4590   68.8780 O.2   237  TYR237     -0.2867
    133  CB        25.6920   18.3530   71.8010 C.3   237  TYR237      0.0534
    134  CG        25.7240   17.6440   73.1400 C.ar  237  TYR237     -0.0201
    135  CD1       25.1420   16.3840   73.3090 C.ar  237  TYR237     -0.0009
    136  CD2       26.3410   18.2330   74.2400 C.ar  237  TYR237     -0.0009
    137  CE1       25.1790   15.7340   74.5370 C.ar  237  TYR237      0.0417
    138  CE2       26.3820   17.5930   75.4680 C.ar  237  TYR237      0.0417
    139  CZ        25.7960   16.3490   75.6160 C.ar  237  TYR237      0.1957
    140  OH        25.8470   15.7310   76.8470 O.3   237  TYR237     -0.2866
    141  N         27.3920   20.8490   84.6480 N.3   318  GLU318     -0.1245
    142  CA        26.2700   21.1240   83.7530 C.3   318  GLU318      0.1567
    143  C         25.0960   21.7330   84.5070 C.2   318  GLU318      0.2260
    144  O         24.9250   21.4970   85.7030 O.2   318  GLU318     -0.2867
    145  CB        25.8540   19.8930   82.9450 C.3   318  GLU318      0.0388
    146  CG        25.3920   18.6760   83.7320 C.3   318  GLU318      0.1160
    147  CD        25.2300   17.4660   82.8270 C.2   318  GLU318      0.3649
    148  OE1       26.2630   17.0090   82.2740 O.co2 318  GLU318     -0.2457
    149  OE2       24.0770   16.9870   82.6610 O.co2 318  GLU318     -0.2457
@<TRIPOS>BOND
     1    29    28    2
     2    28    27    1
     3    20    19    2
     4    26    27    1
     5    19    18    1
     6    27    30    1
     7   132   131    2
     8   131   130    1
     9    30    31    1
    10    13    12    2
    11    18    21    1
    12    18    17    1
    13    21    22    1
    14    12    17   am
    15    12    11    1
    16    10    11    1
    17    24    23   ar
    18   130   129    1
    19   130   133    1
    20    11    14    1
    21    46    45    1
    22    46    47    2
    23    31    32   ar
    24    31    33   ar
    25    22    23    1
    26    23    25   ar
    27    45    44    1
    28   133   134    1
    29     4     3    2
    30    37    36    2
    31   126   125    2
    32     3     2    1
    33    14    15    1
    34    14    16    1
    35    44    36   am
    36   134   135   ar
    37   134   136   ar
    38    36    35    1
    39   125   124    1
    40    41    43   ar
    41    41    39   ar
    42   135   137   ar
    43    43    42   ar
    44     1     2    1
    45     2     5    1
    46   136   138   ar
    47    39    38    1
    48    39    40   ar
    49   137   139   ar
    50    35    38    1
    51    35    34    1
    52   124   127    1
    53   124   123    1
    54    42    40   ar
    55   127   128    1
    56     5     6    1
    57    54    53    1
    58    54    48    1
    59   117   116    2
    60   138   139   ar
    61   123   116   am
    62    53    52    1
    63   139   140    1
    64   116   115    1
    65   114   115    1
    66     6     7    1
    67    77    76    1
    68    48    49    1
    69   115   118    1
    70    52    49    1
    71     8     7    2
    72     7     9   am
    73    49    50    1
    74    76    74   ar
    75    76    75   ar
    76   106   108   ar
    77   106   104   ar
    78    89    88    2
    79   118   119    1
    80    74    72   ar
    81    51    50    2
    82    75    73   ar
    83   108   107   ar
    84   104   103   ar
    85   119   120    1
    86    86    87    1
    87    88    87    1
    88    88    98   am
    89    58    57    2
    90   113   110    1
    91    72    71   ar
    92    90    87    1
    93    90    91    1
    94    73    71   ar
    95   107   105   ar
    96   103   105   ar
    97   103   102    1
    98    63    64    1
    99    63    62    1
   100    99    98    1
   101    99   102    1
   102    99   100    1
   103   109   110    1
   104   109   100   am
   105   112   111    2
   106    92    91   ar
   107    92    94   ar
   108    65    64    2
   109    71    70    1
   110   120   121    1
   111    91    93   ar
   112    64    66   am
   113   110   111    1
   114   100   101    2
   115    57    62   am
   116    57    56    1
   117   121   122    1
   118    66    67    1
   119    94    96   ar
   120    93    95   ar
   121    55    56    1
   122    67    70    1
   123    67    68    1
   124    56    59    1
   125    96    95   ar
   126    96    97    1
   127    59    60    1
   128    59    61    1
   129   148   147   ar
   130    68    78   am
   131    68    69    2
   132   149   147   ar
   133    78    79    1
   134   147   146    1
   135   145   146    1
   136   145   142    1
   137   142   143    1
   138   142   141    1
   139    85    84    1
   140    82    79    1
   141    82    83    1
   142    79    80    1
   143   143   144    2
   144    84    83    1
   145    80    81    2
