@<TRIPOS>MOLECULE
tmp/5a04F02.pdb
 115 110 0 0 0
SMALL
GASTEIGER

@<TRIPOS>ATOM
      1  N         44.2830  -16.5540   53.5310 N.3    13  TYR13      -0.1241
      2  CA        43.9890  -15.4400   54.4210 C.3    13  TYR13       0.1605
      3  C         45.0720  -15.3010   55.4930 C.2    13  TYR13       0.2264
      4  O         45.5600  -14.1900   55.7610 O.2    13  TYR13      -0.2867
      5  CB        42.6020  -15.5940   55.0640 C.3    13  TYR13       0.0534
      6  CG        42.1170  -14.3050   55.7020 C.ar   13  TYR13      -0.0201
      7  CD1       41.9580  -13.1480   54.9400 C.ar   13  TYR13      -0.0009
      8  CD2       41.8250  -14.2420   57.0540 C.ar   13  TYR13      -0.0009
      9  CE1       41.5140  -11.9660   55.5120 C.ar   13  TYR13       0.0417
     10  CE2       41.3840  -13.0610   57.6420 C.ar   13  TYR13       0.0417
     11  CZ        41.2350  -11.9280   56.8610 C.ar   13  TYR13       0.1957
     12  OH        40.8030  -10.7710   57.4480 O.3    13  TYR13      -0.2866
     13  N         35.3150  -15.7510   60.5850 N.3   100  LYS100     -0.1245
     14  CA        33.9260  -15.9340   60.1950 C.3   100  LYS100      0.1561
     15  C         33.8550  -16.9460   59.0570 C.2   100  LYS100      0.2260
     16  O         34.8530  -17.1980   58.3850 O.2   100  LYS100     -0.2867
     17  CB        33.2830  -14.5950   59.7810 C.3   100  LYS100      0.0271
     18  CG        34.1660  -13.6340   58.9480 C.3   100  LYS100      0.0035
     19  CD        34.7080  -14.2130   57.6170 C.3   100  LYS100      0.0206
     20  CE        33.6090  -14.6010   56.6200 C.3   100  LYS100      0.1093
     21  NZ        34.1810  -15.1700   55.3430 N.3   100  LYS100     -0.1314
     22  N         36.4760   -7.9750   60.7850 N.3   128  ARG128     -0.1245
     23  CA        37.4260   -6.8670   60.6200 C.3   128  ARG128      0.1563
     24  C         36.7730   -5.5630   60.1830 C.2   128  ARG128      0.2260
     25  O         37.3070   -4.4810   60.4570 O.2   128  ARG128     -0.2867
     26  CB        38.5010   -7.2560   59.6060 C.3   128  ARG128      0.0307
     27  CG        37.9320   -7.7270   58.2820 C.3   128  ARG128      0.0489
     28  CD        39.0270   -7.9660   57.2430 C.3   128  ARG128      0.2205
     29  NE        38.4690   -8.6230   56.0700 N.pl3 128  ARG128     -0.0865
     30  CZ        37.8120   -7.9960   55.1020 C.cat 128  ARG128      0.5346
     31  NH1       37.6650   -6.6750   55.1400 N.pl3 128  ARG128      0.1354
     32  NH2       37.3070   -8.6920   54.0900 N.pl3 128  ARG128      0.1354
     33  N         31.0650  -12.9310   45.0520 N.3   159  PHE159     -0.1241
     34  CA        32.1570  -12.9730   44.0920 C.3   159  PHE159      0.1605
     35  C         31.9980  -14.1920   43.2040 C.2   159  PHE159      0.2264
     36  O         31.3080  -15.1480   43.5590 O.2   159  PHE159     -0.2867
     37  CB        33.5280  -12.9460   44.7800 C.3   159  PHE159      0.0534
     38  CG        33.8640  -14.1840   45.5580 C.ar  159  PHE159     -0.0203
     39  CD1       33.4770  -14.3110   46.8910 C.ar  159  PHE159     -0.0042
     40  CD2       34.5930  -15.2130   44.9680 C.ar  159  PHE159     -0.0042
     41  CE1       33.8030  -15.4480   47.6270 C.ar  159  PHE159     -0.0003
     42  CE2       34.9250  -16.3570   45.6950 C.ar  159  PHE159     -0.0003
     43  CZ        34.5310  -16.4730   47.0230 C.ar  159  PHE159     -0.0000
     44  N         35.3910  -24.3600   49.9120 N.3   168  ARG168     -0.1245
     45  CA        34.1860  -23.5320   49.9940 C.3   168  ARG168      0.1563
     46  C         32.9790  -24.1270   49.2530 C.2   168  ARG168      0.2260
     47  O         31.8380  -23.7690   49.5440 O.2   168  ARG168     -0.2867
     48  CB        34.4630  -22.1210   49.4620 C.3   168  ARG168      0.0307
     49  CG        35.1010  -21.1980   50.4870 C.3   168  ARG168      0.0489
     50  CD        35.4930  -19.8730   49.8250 C.3   168  ARG168      0.2205
     51  NE        36.1030  -18.9430   50.7630 N.pl3 168  ARG168     -0.0865
     52  CZ        37.3940  -18.9320   51.0840 C.cat 168  ARG168      0.5346
     53  NH1       38.2250  -19.8290   50.5700 N.pl3 168  ARG168      0.1354
     54  NH2       37.8510  -18.0210   51.9350 N.pl3 168  ARG168      0.1354
     55  N         29.9870  -17.7950   53.4090 N.3   181  ASP181     -0.1225
     56  CA        31.2890  -17.2150   53.1030 C.3   181  ASP181      0.1805
     57  C         31.2920  -15.7120   52.8960 C.2   181  ASP181      0.2597
     58  O         32.1600  -15.0050   53.4050 O.2   181  ASP181     -0.2718
     59  CB        31.8560  -17.8640   51.8470 C.3   181  ASP181      0.1424
     60  CG        33.2590  -17.3930   51.5520 C.2   181  ASP181      0.3668
     61  OD1       34.1720  -17.8150   52.2900 O.co2 181  ASP181     -0.2456
     62  OD2       33.4440  -16.5800   50.6220 O.co2 181  ASP181     -0.2456
     63  N         30.3370  -15.2380   52.1110 N.am  182  ILE182     -0.1980
     64  CA        30.3730  -13.8550   51.6380 C.3   182  ILE182      0.1595
     65  C         29.0540  -13.1500   51.9660 C.2   182  ILE182      0.2287
     66  O         29.0370  -11.9770   52.3700 O.2   182  ILE182     -0.2864
     67  CB        30.7180  -13.8180   50.1070 C.3   182  ILE182      0.0276
     68  CG1       30.8220  -12.3860   49.5730 C.3   182  ILE182      0.0022
     69  CG2       29.7440  -14.6450   49.2540 C.3   182  ILE182      0.0022
     70  CD1       31.8990  -11.5800   50.2470 C.3   182  ILE182      0.0001
     71  N         28.6570  -11.1060   55.2040 N.3   185  TYR185     -0.1241
     72  CA        29.0090   -9.6750   55.2860 C.3   185  TYR185      0.1605
     73  C         27.7700   -8.8000   55.1240 C.2   185  TYR185      0.2264
     74  O         27.6660   -7.7650   55.7740 O.2   185  TYR185     -0.2867
     75  CB        30.0600   -9.2710   54.2310 C.3   185  TYR185      0.0534
     76  CG        31.4470   -9.7960   54.5280 C.ar  185  TYR185     -0.0201
     77  CD1       31.8430  -11.0470   54.0780 C.ar  185  TYR185     -0.0009
     78  CD2       32.3600   -9.0410   55.2560 C.ar  185  TYR185     -0.0009
     79  CE1       33.1090  -11.5400   54.3540 C.ar  185  TYR185      0.0417
     80  CE2       33.6360   -9.5250   55.5340 C.ar  185  TYR185      0.0417
     81  CZ        33.9980  -10.7770   55.0840 C.ar  185  TYR185      0.1957
     82  OH        35.2550  -11.2760   55.3510 O.3   185  TYR185     -0.2866
     83  N         30.1390   -5.7960   46.2330 N.3   244  ASN244     -0.1240
     84  CA        30.5750   -5.5860   47.5990 C.3   244  ASN244      0.1653
     85  C         30.1900   -4.1800   47.9980 C.2   244  ASN244      0.2266
     86  O         30.9290   -3.2370   47.7220 O.2   244  ASN244     -0.2867
     87  CB        32.0900   -5.8010   47.7360 C.3   244  ASN244      0.1155
     88  CG        32.5460   -5.7900   49.1800 C.2   244  ASN244      0.2627
     89  OD1       32.2520   -4.8660   49.9220 O.2   244  ASN244     -0.2716
     90  ND2       33.2250   -6.8610   49.6040 N.am  244  ASN244     -0.0877
     91  N         33.4820   -3.8000   52.1780 N.3   261  THR261     -0.1203
     92  CA        34.1150   -4.6680   53.1630 C.3   261  THR261      0.1994
     93  C         35.3210   -5.3820   52.5560 C.2   261  THR261      0.2619
     94  O         35.7320   -6.4540   53.0210 O.2   261  THR261     -0.2717
     95  CB        33.1080   -5.7050   53.6950 C.3   261  THR261      0.1784
     96  OG1       32.6130   -6.4570   52.5930 O.3   261  THR261     -0.2211
     97  CG2       31.9330   -5.0090   54.3820 C.3   261  THR261      0.0376
     98  N         35.8780   -4.7710   51.5150 N.am  262  SER262     -0.1937
     99  CA        37.0970   -5.2430   50.8610 C.3   262  SER262      0.2055
    100  C         38.3320   -5.0760   51.7580 C.2   262  SER262      0.2643
    101  O         38.2740   -4.4160   52.7880 O.2   262  SER262     -0.2714
    102  CB        37.3020   -4.4740   49.5570 C.3   262  SER262      0.2130
    103  OG        37.1000   -3.0870   49.7950 O.3   262  SER262     -0.2179
    104  N         39.4510   -5.6810   51.3650 N.am  263  TYR263     -0.1973
    105  CA        40.6870   -5.5320   52.1330 C.3   263  TYR263      0.1639
    106  C         41.1770   -4.0890   52.1010 C.2   263  TYR263      0.2290
    107  O         41.7720   -3.5960   53.0670 O.2   263  TYR263     -0.2864
    108  CB        41.7720   -6.4470   51.5800 C.3   263  TYR263      0.0560
    109  CG        41.4220   -7.9180   51.6250 C.ar  263  TYR263     -0.0198
    110  CD1       40.6140   -8.4350   52.6340 C.ar  263  TYR263     -0.0009
    111  CD2       41.9090   -8.7880   50.6620 C.ar  263  TYR263     -0.0009
    112  CE1       40.3010   -9.7950   52.6750 C.ar  263  TYR263      0.0417
    113  CE2       41.6010  -10.1410   50.6940 C.ar  263  TYR263      0.0417
    114  CZ        40.7990  -10.6360   51.7000 C.ar  263  TYR263      0.1957
    115  OH        40.4970  -11.9830   51.7230 O.3   263  TYR263     -0.2866
@<TRIPOS>BOND
     1    35    36    2
     2    35    34    1
     3    34    37    1
     4    34    33    1
     5    37    38    1
     6    40    38   ar
     7    40    42   ar
     8    38    39   ar
     9    42    43   ar
    10    83    84    1
    11    39    41   ar
    12    43    41   ar
    13    84    87    1
    14    84    85    1
    15    86    85    2
    16    87    88    1
    17    88    90   am
    18    88    89    2
    19    46    47    2
    20    46    45    1
    21    69    67    1
    22    48    45    1
    23    48    49    1
    24   102   103    1
    25   102    99    1
    26    68    67    1
    27    68    70    1
    28    50    49    1
    29    50    51    1
    30    44    45    1
    31    67    64    1
    32    53    52    1
    33    62    60   ar
    34   111   113   ar
    35   111   109   ar
    36   113   114   ar
    37    51    52    2
    38    99    98    1
    39    99   100    1
    40    52    54    1
    41   104   100   am
    42   104   105    1
    43    98    93   am
    44    60    59    1
    45    60    61   ar
    46   108   109    1
    47   108   105    1
    48   109   110   ar
    49    64    65    1
    50    64    63    1
    51   114   115    1
    52   114   112   ar
    53   100   101    2
    54    59    56    1
    55    65    66    2
    56   106   105    1
    57   106   107    2
    58    63    57   am
    59    91    92    1
    60    93    94    2
    61    93    92    1
    62    96    95    1
    63   110   112   ar
    64    57    56    1
    65    57    58    2
    66    56    55    1
    67    92    95    1
    68     1     2    1
    69    95    97    1
    70    77    79   ar
    71    77    76   ar
    72    32    30    1
    73    75    76    1
    74    75    72    1
    75    79    81   ar
    76     2     5    1
    77     2     3    1
    78    76    78   ar
    79     7     9   ar
    80     7     6   ar
    81     5     6    1
    82    81    82    1
    83    81    80   ar
    84    30    31    1
    85    30    29    2
    86    73    72    1
    87    73    74    2
    88    71    72    1
    89    78    80   ar
    90    21    20    1
    91     3     4    2
    92     9    11   ar
    93     6     8   ar
    94    29    28    1
    95    20    19    1
    96    11    12    1
    97    11    10   ar
    98     8    10   ar
    99    28    27    1
   100    19    18    1
   101    27    26    1
   102    16    15    2
   103    18    17    1
   104    15    14    1
   105    26    23    1
   106    17    14    1
   107    24    25    2
   108    24    23    1
   109    14    13    1
   110    23    22    1
