@<TRIPOS>MOLECULE
tmp/5a05A01.pdb
 169 165 0 0 0
SMALL
GASTEIGER

@<TRIPOS>ATOM
      1  N         31.8260   26.7000   48.2860 N.3    12  TYR12      -0.1227
      2  CA        31.9910   25.4530   47.5500 C.3    12  TYR12       0.1736
      3  C         33.4260   24.9390   47.5700 C.2    12  TYR12       0.2595
      4  O         33.6620   23.7670   47.8610 O.2    12  TYR12      -0.2718
      5  CB        31.5290   25.6080   46.0960 C.3    12  TYR12       0.0548
      6  CG        31.8930   24.4070   45.2420 C.ar   12  TYR12      -0.0200
      7  CD1       31.0740   23.2820   45.2040 C.ar   12  TYR12      -0.0009
      8  CD2       33.0660   24.3860   44.4960 C.ar   12  TYR12      -0.0009
      9  CE1       31.4130   22.1760   44.4340 C.ar   12  TYR12       0.0417
     10  CE2       33.4130   23.2830   43.7280 C.ar   12  TYR12       0.0417
     11  CZ        32.5850   22.1870   43.6990 C.ar   12  TYR12       0.1957
     12  OH        32.9280   21.0900   42.9310 O.3    12  TYR12      -0.2866
     13  N         34.3920   25.7900   47.2280 N.am   13  TYR13      -0.1976
     14  CA        35.7540   25.2960   47.1060 C.3    13  TYR13       0.1639
     15  C         36.2910   24.8960   48.4780 C.2    13  TYR13       0.2290
     16  O         36.9380   23.8560   48.6190 O.2    13  TYR13      -0.2864
     17  CB        36.6680   26.3370   46.4430 C.3    13  TYR13       0.0560
     18  CG        38.0010   25.7660   45.9910 C.ar   13  TYR13      -0.0198
     19  CD1       38.0570   24.6700   45.1300 C.ar   13  TYR13      -0.0009
     20  CD2       39.1960   26.3150   46.4280 C.ar   13  TYR13      -0.0009
     21  CE1       39.2800   24.1470   44.7070 C.ar   13  TYR13       0.0417
     22  CE2       40.4150   25.8040   46.0170 C.ar   13  TYR13       0.0417
     23  CZ        40.4530   24.7210   45.1570 C.ar   13  TYR13       0.1957
     24  OH        41.6670   24.2410   44.7450 O.3    13  TYR13      -0.2866
     25  N         43.1480   32.0630   43.8890 N.3   100  LYS100     -0.1245
     26  CA        43.2100   32.8610   42.6680 C.3   100  LYS100      0.1561
     27  C         41.8090   33.3950   42.3020 C.2   100  LYS100      0.2260
     28  O         40.7990   32.8790   42.7910 O.2   100  LYS100     -0.2867
     29  CB        43.8140   32.0480   41.5020 C.3   100  LYS100      0.0271
     30  CG        43.3610   30.5820   41.3550 C.3   100  LYS100      0.0035
     31  CD        41.8320   30.3810   41.2540 C.3   100  LYS100      0.0206
     32  CE        41.2230   30.9610   39.9720 C.3   100  LYS100      0.1093
     33  NZ        39.7220   30.7800   39.9570 N.3   100  LYS100     -0.1314
     34  N         47.1210   25.4060   42.3620 N.3   128  ARG128     -0.1245
     35  CA        47.2770   23.9690   42.6110 C.3   128  ARG128      0.1563
     36  C         47.8930   23.1980   41.4510 C.2   128  ARG128      0.2260
     37  O         48.5160   22.1480   41.6570 O.2   128  ARG128     -0.2867
     38  CB        45.9220   23.3430   42.9490 C.3   128  ARG128      0.0307
     39  CG        44.8170   23.7430   41.9760 C.3   128  ARG128      0.0489
     40  CD        43.5000   23.0040   42.2430 C.3   128  ARG128      0.2205
     41  NE        42.4530   23.5230   41.3620 N.pl3 128  ARG128     -0.0865
     42  CZ        42.3020   23.1710   40.0920 C.cat 128  ARG128      0.5346
     43  NH1       43.1070   22.2580   39.5420 N.pl3 128  ARG128      0.1354
     44  NH2       41.3380   23.7220   39.3710 N.pl3 128  ARG128      0.1354
     45  N         37.4280   27.5070   29.8860 N.3   158  GLY158     -0.1210
     46  CA        36.1100   28.0890   29.9650 C.3   158  GLY158      0.1956
     47  C         35.1230   27.0840   30.5160 C.2   158  GLY158      0.2611
     48  O         35.3700   25.8760   30.4890 O.2   158  GLY158     -0.2717
     49  N         34.0050   27.5780   31.0260 N.am  159  PHE159     -0.1976
     50  CA        32.8870   26.6890   31.3110 C.3   159  PHE159      0.1639
     51  C         31.6010   27.4580   31.0590 C.2   159  PHE159      0.2290
     52  O         31.6000   28.6900   31.0430 O.2   159  PHE159     -0.2864
     53  CB        32.9570   26.1200   32.7440 C.3   159  PHE159      0.0560
     54  CG        32.7620   27.1420   33.8350 C.ar  159  PHE159     -0.0200
     55  CD1       33.8030   27.9750   34.2260 C.ar  159  PHE159     -0.0042
     56  CD2       31.5410   27.2480   34.4900 C.ar  159  PHE159     -0.0042
     57  CE1       33.6190   28.9180   35.2370 C.ar  159  PHE159     -0.0003
     58  CE2       31.3500   28.1810   35.5120 C.ar  159  PHE159     -0.0003
     59  CZ        32.3920   29.0150   35.8810 C.ar  159  PHE159     -0.0000
     60  N         30.2580   35.5120   40.7690 N.3   168  ARG168     -0.1245
     61  CA        31.1970   35.5710   39.6400 C.3   168  ARG168      0.1563
     62  C         30.7020   36.4760   38.5010 C.2   168  ARG168      0.2260
     63  O         31.5000   36.9280   37.6900 O.2   168  ARG168     -0.2867
     64  CB        31.4960   34.1680   39.0890 C.3   168  ARG168      0.0307
     65  CG        32.5660   33.3910   39.8660 C.3   168  ARG168      0.0489
     66  CD        32.6630   31.9320   39.3790 C.3   168  ARG168      0.2205
     67  NE        33.6710   31.1290   40.0820 N.pl3 168  ARG168     -0.0865
     68  CZ        33.4570   30.4880   41.2330 C.cat 168  ARG168      0.5346
     69  NH1       32.2840   30.5760   41.8450 N.pl3 168  ARG168      0.1354
     70  NH2       34.4240   29.7690   41.7820 N.pl3 168  ARG168      0.1354
     71  N         38.3040   34.4920   36.4940 N.3   181  ASP181     -0.1225
     72  CA        37.9480   33.2150   37.1190 C.3   181  ASP181      0.1805
     73  C         38.6020   31.9810   36.5310 C.2   181  ASP181      0.2597
     74  O         39.0640   31.1070   37.2730 O.2   181  ASP181     -0.2718
     75  CB        36.4380   33.0080   37.0570 C.3   181  ASP181      0.1424
     76  CG        36.0100   31.7360   37.7550 C.2   181  ASP181      0.3668
     77  OD1       36.1250   31.6680   38.9970 O.co2 181  ASP181     -0.2456
     78  OD2       35.5810   30.8010   37.0630 O.co2 181  ASP181     -0.2456
     79  N         38.5890   31.8760   35.2080 N.am  182  ILE182     -0.1980
     80  CA        38.9820   30.6330   34.5540 C.3   182  ILE182      0.1595
     81  C         40.0320   30.9020   33.4620 C.2   182  ILE182      0.2287
     82  O         40.9550   30.0980   33.2500 O.2   182  ILE182     -0.2864
     83  CB        37.7220   29.8970   33.9930 C.3   182  ILE182      0.0276
     84  CG1       38.0680   28.5260   33.4190 C.3   182  ILE182      0.0022
     85  CG2       36.9610   30.7570   32.9810 C.3   182  ILE182      0.0022
     86  CD1       38.6930   27.5890   34.4190 C.3   182  ILE182      0.0001
     87  N         43.7930   30.5780   34.2490 N.3   185  TYR185     -0.1241
     88  CA        44.5380   29.3160   34.0900 C.3   185  TYR185      0.1605
     89  C         45.2870   29.2490   32.7660 C.2   185  TYR185      0.2264
     90  O         46.3850   28.6980   32.7010 O.2   185  TYR185     -0.2867
     91  CB        43.6210   28.0910   34.1930 C.3   185  TYR185      0.0534
     92  CG        43.1510   27.8110   35.5950 C.ar  185  TYR185     -0.0201
     93  CD1       41.9970   28.4030   36.0850 C.ar  185  TYR185     -0.0009
     94  CD2       43.8650   26.9580   36.4340 C.ar  185  TYR185     -0.0009
     95  CE1       41.5490   28.1520   37.3680 C.ar  185  TYR185      0.0417
     96  CE2       43.4300   26.7040   37.7320 C.ar  185  TYR185      0.0417
     97  CZ        42.2700   27.3080   38.1890 C.ar  185  TYR185      0.1957
     98  OH        41.8130   27.0630   39.4660 O.3   185  TYR185     -0.2866
     99  N         32.7060   25.0640   27.0520 N.3   242  ASN242     -0.1225
    100  CA        33.5020   24.2580   27.9720 C.3   242  ASN242      0.1785
    101  C         34.8310   23.8860   27.3220 C.2   242  ASN242      0.2597
    102  O         34.8580   23.3060   26.2450 O.2   242  ASN242     -0.2718
    103  CB        32.7440   22.9920   28.3970 C.3   242  ASN242      0.1169
    104  CG        31.5190   23.3040   29.2460 C.2   242  ASN242      0.2627
    105  OD1       31.6320   23.8240   30.3620 O.2   242  ASN242     -0.2716
    106  ND2       30.3430   22.9850   28.7240 N.am  242  ASN242     -0.0877
    107  N         35.9290   24.2390   27.9770 N.am  243  CYS243     -0.1956
    108  CA        37.2500   23.8130   27.5490 C.3   243  CYS243      0.1843
    109  C         38.1990   23.8620   28.7240 C.2   243  CYS243      0.2625
    110  O         38.0390   24.6610   29.6480 O.2   243  CYS243     -0.2714
    111  CB        37.7700   24.6840   26.4010 C.3   243  CYS243      0.0997
    112  SG        37.5170   26.4860   26.6360 S.3   243  CYS243     -0.0797
    113  N         39.1990   23.0020   28.6870 N.am  244  ASN244     -0.1972
    114  CA        40.2130   23.0180   29.7200 C.3   244  ASN244      0.1688
    115  C         41.4200   22.2530   29.2160 C.2   244  ASN244      0.2292
    116  O         41.4580   21.0320   29.3250 O.2   244  ASN244     -0.2864
    117  CB        39.6660   22.4100   31.0180 C.3   244  ASN244      0.1181
    118  CG        40.6320   22.5490   32.1750 C.2   244  ASN244      0.2629
    119  OD1       41.8220   22.2430   32.0390 O.2   244  ASN244     -0.2716
    120  ND2       40.1310   23.0270   33.3210 N.am  244  ASN244     -0.0877
    121  N         44.5440   17.4560   28.3920 N.3   258  ASP258     -0.1225
    122  CA        43.1360   17.7850   28.1810 C.3   258  ASP258      0.1790
    123  C         42.2920   16.6940   28.8340 C.2   258  ASP258      0.2439
    124  O         42.2660   15.5740   28.3420 O.2   258  ASP258     -0.2733
    125  CB        42.8330   17.8860   26.6780 C.3   258  ASP258      0.1423
    126  CG        41.4030   18.3400   26.3800 C.2   258  ASP258      0.3668
    127  OD1       40.6270   18.5890   27.3330 O.co2 258  ASP258     -0.2456
    128  OD2       41.0590   18.4570   25.1770 O.co2 258  ASP258     -0.2456
    129  N         41.6250   17.0010   29.9580 N.am  259  PRO259     -0.2729
    130  CA        41.6000   18.2770   30.6860 C.3   259  PRO259      0.1401
    131  C         42.9480   18.5490   31.3570 C.2   259  PRO259      0.2269
    132  O         43.6420   17.5940   31.7370 O.2   259  PRO259     -0.2865
    133  CB        40.4980   18.0640   31.7270 C.3   259  PRO259      0.0296
    134  CG        40.5600   16.5750   32.0040 C.3   259  PRO259      0.0237
    135  CD        40.8830   15.9390   30.6690 C.3   259  PRO259      0.0939
    136  N         43.7200   21.3890   33.8260 N.3   261  THR261     -0.1203
    137  CA        43.8100   21.9690   35.1550 C.3   261  THR261      0.1994
    138  C         42.5640   21.6740   35.9770 C.2   261  THR261      0.2619
    139  O         42.2340   22.4060   36.9100 O.2   261  THR261     -0.2717
    140  CB        44.0290   23.4980   35.0740 C.3   261  THR261      0.1784
    141  OG1       42.9160   24.0980   34.4010 O.3   261  THR261     -0.2211
    142  CG2       45.3220   23.8140   34.3000 C.3   261  THR261      0.0376
    143  N         41.8760   20.5990   35.6180 N.am  262  SER262     -0.1937
    144  CA        40.6740   20.1790   36.3280 C.3   262  SER262      0.2055
    145  C         41.0300   19.5910   37.7000 C.2   262  SER262      0.2643
    146  O         42.2010   19.3370   37.9930 O.2   262  SER262     -0.2714
    147  CB        39.9120   19.1580   35.4860 C.3   262  SER262      0.2130
    148  OG        40.7880   18.1080   35.1000 O.3   262  SER262     -0.2179
    149  N         40.0300   19.3880   38.5520 N.am  263  TYR263     -0.1959
    150  CA        40.2780   18.7940   39.8760 C.3   263  TYR263      0.1771
    151  C         40.8120   17.3670   39.7520 C.2   263  TYR263      0.2619
    152  O         41.6100   16.9150   40.5670 O.2   263  TYR263     -0.2715
    153  CB        39.0050   18.7730   40.7250 C.3   263  TYR263      0.0574
    154  CG        38.3610   20.1130   40.9580 C.ar  263  TYR263     -0.0198
    155  CD1       39.1220   21.2680   41.0930 C.ar  263  TYR263     -0.0009
    156  CD2       36.9800   20.2190   41.0700 C.ar  263  TYR263     -0.0009
    157  CE1       38.5190   22.4940   41.3230 C.ar  263  TYR263      0.0417
    158  CE2       36.3760   21.4300   41.2990 C.ar  263  TYR263      0.0417
    159  CZ        37.1440   22.5660   41.4270 C.ar  263  TYR263      0.1957
    160  OH        36.5190   23.7720   41.6530 O.3   263  TYR263     -0.2866
    161  N         40.3500   16.6590   38.7290 N.am  264  GLN264     -0.1977
    162  CA        40.8440   15.3270   38.4410 C.3   264  GLN264      0.1601
    163  C         40.6040   15.0200   36.9710 C.2   264  GLN264      0.2287
    164  O         40.0050   15.8220   36.2550 O.2   264  GLN264     -0.2864
    165  CB        40.1420   14.2900   39.3240 C.3   264  GLN264      0.0394
    166  CG        38.6340   14.3660   39.1950 C.3   264  GLN264      0.0908
    167  CD        37.9210   13.2870   39.9890 C.2   264  GLN264      0.2608
    168  OE1       38.5510   12.5190   40.7210 O.2   264  GLN264     -0.2717
    169  NE2       36.5970   13.2230   39.8470 N.am  264  GLN264     -0.0878
@<TRIPOS>BOND
     1   128   126   ar
     2   102   101    2
     3   126   125    1
     4   126   127   ar
     5   111   112    1
     6   111   108    1
     7   125   122    1
     8    99   100    1
     9   101   100    1
    10   101   107   am
    11   108   107    1
    12   108   109    1
    13   100   103    1
    14   122   121    1
    15   122   123    1
    16   124   123    2
    17   103   104    1
    18   113   109   am
    19   113   114    1
    20   106   104   am
    21   109   110    2
    22   123   129   am
    23   115   116    2
    24   115   114    1
    25   104   105    2
    26   114   117    1
    27    45    46    1
    28   129   135    1
    29   129   130    1
    30    46    47    1
    31    48    47    2
    32    47    49   am
    33   135   134    1
    34   130   131    1
    35   130   133    1
    36   117   118    1
    37    49    50    1
    38    52    51    2
    39    51    50    1
    40    50    53    1
    41   131   132    2
    42   133   134    1
    43   119   118    2
    44   118   120   am
    45    90    89    2
    46    53    54    1
    47    89    88    1
    48    85    83    1
    49    82    81    2
    50    84    83    1
    51    84    86    1
    52    81    80    1
    53   136   137    1
    54    54    55   ar
    55    54    56   ar
    56    83    80    1
    57    88    91    1
    58    88    87    1
    59    91    92    1
    60    55    57   ar
    61   142   140    1
    62   141   140    1
    63    56    58   ar
    64    80    79    1
    65   140   137    1
    66   148   147    1
    67   137   138    1
    68    79    73   am
    69    57    59   ar
    70   147   144    1
    71    58    59   ar
    72    92    93   ar
    73    92    94   ar
    74   143   138   am
    75   143   144    1
    76   138   139    2
    77    93    95   ar
    78   164   163    2
    79   144   145    1
    80    94    96   ar
    81    71    72    1
    82    73    72    1
    83    73    74    2
    84   163   162    1
    85    75    72    1
    86    75    76    1
    87    78    76   ar
    88    95    97   ar
    89    63    62    2
    90   145   146    2
    91   145   149   am
    92    96    97   ar
    93    76    77   ar
    94    97    98    1
    95   162   161    1
    96   162   165    1
    97    62    61    1
    98   149   150    1
    99   161   151   am
   100    64    61    1
   101    64    65    1
   102   166   165    1
   103   166   167    1
   104    44    42    1
   105    66    65    1
   106    66    67    1
   107    43    42    1
   108    61    60    1
   109   151   150    1
   110   151   152    2
   111   169   167   am
   112   150   153    1
   113    33    32    1
   114    32    31    1
   115   167   168    2
   116    67    68    2
   117    42    41    2
   118   153   154    1
   119   154   156   ar
   120   154   155   ar
   121   156   158   ar
   122   155   157   ar
   123    68    70    1
   124    68    69    1
   125    31    30    1
   126   158   159   ar
   127   157   159   ar
   128    30    29    1
   129    41    40    1
   130   159   160    1
   131    36    37    2
   132    36    35    1
   133    29    26    1
   134    39    40    1
   135    39    38    1
   136    27    26    1
   137    27    28    2
   138    34    35    1
   139    35    38    1
   140    26    25    1
   141    12    11    1
   142    11    10   ar
   143    11     9   ar
   144    10     8   ar
   145     9     7   ar
   146     8     6   ar
   147    21    19   ar
   148    21    23   ar
   149    24    23    1
   150    19    18   ar
   151    23    22   ar
   152     7     6   ar
   153     6     5    1
   154    18    20   ar
   155    18    17    1
   156    22    20   ar
   157     5     2    1
   158    17    14    1
   159    14    13    1
   160    14    15    1
   161    13     3   am
   162     2     3    1
   163     2     1    1
   164     3     4    2
   165    15    16    2
