@<TRIPOS>MOLECULE
tmp/5a06A02.pdb
 87 83 0 0 0
SMALL
GASTEIGER

@<TRIPOS>ATOM
      1  N        151.3110   40.6250   49.1210 N.3   114  ILE114     -0.1245
      2  CA       152.7240   40.2930   49.2890 C.3   114  ILE114      0.1561
      3  C        153.3600   41.1600   50.3830 C.2   114  ILE114      0.2260
      4  O        154.1140   40.6500   51.2240 O.2   114  ILE114     -0.2867
      5  CB       153.4790   40.4460   47.9480 C.3   114  ILE114      0.0252
      6  CG1      153.0440   39.3200   46.9980 C.3   114  ILE114      0.0019
      7  CG2      154.9900   40.4040   48.1530 C.3   114  ILE114      0.0019
      8  CD1      153.4680   39.5200   45.5520 C.3   114  ILE114      0.0001
      9  N        152.1910   40.0960   54.0000 N.3   117  CYS117     -0.1221
     10  CA       152.8160   38.8590   54.4740 C.3   117  CYS117      0.1808
     11  C        154.3000   39.0570   54.7890 C.2   117  CYS117      0.2601
     12  O        154.8430   38.4420   55.7240 O.2   117  CYS117     -0.2717
     13  CB       152.6360   37.7430   53.4500 C.3   117  CYS117      0.0970
     14  SG       150.9020   37.1720   53.3210 S.3   117  CYS117     -0.0800
     15  N        154.9520   39.9110   54.0080 N.am  118  LYS118     -0.1979
     16  CA       156.3540   40.2560   54.2540 C.3   118  LYS118      0.1596
     17  C        156.4850   41.0000   55.5900 C.2   118  LYS118      0.2287
     18  O        157.3820   40.7140   56.3900 O.2   118  LYS118     -0.2864
     19  CB       156.9060   41.1020   53.1030 C.3   118  LYS118      0.0298
     20  CG       158.3950   41.4570   53.2100 C.3   118  LYS118      0.0038
     21  CD       158.8490   42.2320   51.9770 C.3   118  LYS118      0.0206
     22  CE       160.3410   42.5540   52.0170 C.3   118  LYS118      0.1093
     23  NZ       160.6400   43.6820   52.9410 N.3   118  LYS118     -0.1314
     24  N        156.2690   38.7180   58.3950 N.3   121  GLY121     -0.1210
     25  CA       157.2900   37.6840   58.4200 C.3   121  GLY121      0.1956
     26  C        156.6940   36.2900   58.2890 C.2   121  GLY121      0.2612
     27  O        157.1440   35.3380   58.9270 O.2   121  GLY121     -0.2717
     28  N        155.6710   36.1720   57.4500 N.am  122  ARG122     -0.1965
     29  CA       154.9770   34.9060   57.2490 C.3   122  ARG122      0.1729
     30  C        154.9630   34.5400   55.7690 C.2   122  ARG122      0.2616
     31  O        154.9570   35.4190   54.9020 O.2   122  ARG122     -0.2715
     32  CB       153.5510   34.9880   57.7980 C.3   122  ARG122      0.0348
     33  CG       153.5020   35.2590   59.3060 C.3   122  ARG122      0.0492
     34  CD       153.9970   34.0280   60.0740 C.3   122  ARG122      0.2205
     35  NE       153.9350   34.2110   61.5190 N.pl3 122  ARG122     -0.0865
     36  CZ       154.9480   34.6300   62.2740 C.cat 122  ARG122      0.5346
     37  NH1      156.1220   34.9060   61.7280 N.pl3 122  ARG122      0.1354
     38  NH2      154.7840   34.7670   63.5870 N.pl3 122  ARG122      0.1354
     39  N        154.9580   33.2450   55.4860 N.am  123  LYS123     -0.1963
     40  CA       155.0280   32.7700   54.1030 C.3   123  LYS123      0.1728
     41  C        153.6670   32.8240   53.4010 C.2   123  LYS123      0.2616
     42  O        152.6140   32.7980   54.0430 O.2   123  LYS123     -0.2715
     43  CB       155.6140   31.3590   54.0650 C.3   123  LYS123      0.0311
     44  CG       157.1100   31.3780   54.3970 C.3   123  LYS123      0.0038
     45  CD       157.7340   30.0020   54.4180 C.3   123  LYS123      0.0206
     46  CE       159.1630   30.0900   54.9530 C.3   123  LYS123      0.1093
     47  NZ       159.8970   31.2120   54.3110 N.3   123  LYS123     -0.1314
     48  N        153.7140   32.9620   52.0780 N.am  124  LEU124     -0.1977
     49  CA       152.5200   33.0940   51.2520 C.3   124  LEU124      0.1596
     50  C        152.6610   32.1560   50.0600 C.2   124  LEU124      0.2287
     51  O        153.7070   32.1250   49.4170 O.2   124  LEU124     -0.2864
     52  CB       152.3410   34.5530   50.7910 C.3   124  LEU124      0.0297
     53  CG       151.2970   34.8380   49.7050 C.3   124  LEU124      0.0022
     54  CD1      149.8820   34.4830   50.1840 C.3   124  LEU124      0.0001
     55  CD2      151.3700   36.2900   49.2680 C.3   124  LEU124      0.0001
     56  N        161.3680   28.7780   50.6110 N.3   306  GLU306     -0.1231
     57  CA       160.2730   29.5050   49.9670 C.3   306  GLU306      0.1684
     58  C        159.4620   28.5810   49.0500 C.2   306  GLU306      0.2434
     59  O        160.0310   27.7420   48.3680 O.2   306  GLU306     -0.2733
     60  CB       160.8190   30.6970   49.1800 C.3   306  GLU306      0.0402
     61  CG       161.2020   31.8860   50.0680 C.3   306  GLU306      0.1161
     62  CD       159.9850   32.5530   50.7040 C.2   306  GLU306      0.3649
     63  OE1      158.8730   32.4290   50.1410 O.co2 306  GLU306     -0.2457
     64  OE2      160.1340   33.2000   51.7630 O.co2 306  GLU306     -0.2457
     65  N        158.1230   28.7260   49.0470 N.am  307  PRO307     -0.2729
     66  CA       157.2780   27.9150   48.1580 C.3   307  PRO307      0.1401
     67  C        157.6570   28.0730   46.6870 C.2   307  PRO307      0.2269
     68  O        158.0430   29.1740   46.2830 O.2   307  PRO307     -0.2865
     69  CB       155.8650   28.4680   48.4090 C.3   307  PRO307      0.0296
     70  CG       155.9330   29.0700   49.7900 C.3   307  PRO307      0.0237
     71  CD       157.3300   29.6290   49.9010 C.3   307  PRO307      0.0939
     72  N        155.0070   30.8750   45.0980 N.3   310  GLY310     -0.1210
     73  CA       154.7750   31.9170   46.0720 C.3   310  GLY310      0.1956
     74  C        153.9070   33.0430   45.5340 C.2   310  GLY310      0.2612
     75  O        153.4180   32.9840   44.4000 O.2   310  GLY310     -0.2717
     76  N        153.7360   34.0850   46.3400 N.am  311  GLY311     -0.1942
     77  CA       152.9400   35.2360   45.9320 C.3   311  GLY311      0.2014
     78  C        153.4340   35.8780   44.6450 C.2   311  GLY311      0.2638
     79  O        152.6560   36.4310   43.8690 O.2   311  GLY311     -0.2714
     80  N        154.7380   35.7920   44.4000 N.am  312  ASP312     -0.1971
     81  CA       155.3020   36.3420   43.1780 C.3   312  ASP312      0.1709
     82  C        154.7900   35.6170   41.9340 C.2   312  ASP312      0.2293
     83  O        154.6620   36.2270   40.8720 O.2   312  ASP312     -0.2864
     84  CB       156.8280   36.2720   43.2250 C.3   312  ASP312      0.1436
     85  CG       157.3330   34.8600   43.4580 C.2   312  ASP312      0.3671
     86  OD1      157.0540   34.2800   44.5460 O.co2 312  ASP312     -0.2456
     87  OD2      158.0110   34.3290   42.5480 O.co2 312  ASP312     -0.2456
@<TRIPOS>BOND
     1    83    82    2
     2    82    81    1
     3    87    85   ar
     4    81    84    1
     5    81    80    1
     6    84    85    1
     7    85    86   ar
     8    79    78    2
     9    75    74    2
    10    80    78   am
    11    78    77    1
    12    72    73    1
    13    74    73    1
    14    74    76   am
    15     8     6    1
    16    77    76    1
    17    68    67    2
    18    67    66    1
    19     6     5    1
    20     5     7    1
    21     5     2    1
    22    66    69    1
    23    66    65    1
    24    59    58    2
    25    69    70    1
    26    65    58   am
    27    65    71    1
    28    58    57    1
    29     1     2    1
    30    60    57    1
    31    60    61    1
    32    55    53    1
    33     2     3    1
    34    51    50    2
    35    53    54    1
    36    53    52    1
    37    70    71    1
    38    57    56    1
    39    50    49    1
    40    61    62    1
    41    63    62   ar
    42     3     4    2
    43    62    64   ar
    44    52    49    1
    45    49    48    1
    46    21    22    1
    47    21    20    1
    48    22    23    1
    49    48    41   am
    50    19    20    1
    51    19    16    1
    52    14    13    1
    53    41    42    2
    54    41    40    1
    55    13    10    1
    56     9    10    1
    57    15    16    1
    58    15    11   am
    59    43    40    1
    60    43    44    1
    61    40    39    1
    62    16    17    1
    63    47    46    1
    64    44    45    1
    65    45    46    1
    66    10    11    1
    67    11    12    2
    68    31    30    2
    69    39    30   am
    70    17    18    2
    71    30    29    1
    72    29    28    1
    73    29    32    1
    74    28    26   am
    75    32    33    1
    76    26    25    1
    77    26    27    2
    78    24    25    1
    79    33    34    1
    80    34    35    1
    81    35    36    2
    82    37    36    1
    83    36    38    1
