@<TRIPOS>MOLECULE
tmp/5a06A01.pdb
 115 110 0 0 0
SMALL
GASTEIGER

@<TRIPOS>ATOM
      1  N        135.0430   23.9400   46.7840 N.3    14  TYR14      -0.1241
      2  CA       136.4270   23.4860   46.6940 C.3    14  TYR14       0.1605
      3  C        136.9740   23.1130   48.0620 C.2    14  TYR14       0.2264
      4  O        137.6460   22.0900   48.2070 O.2    14  TYR14      -0.2867
      5  CB       137.3240   24.5380   46.0490 C.3    14  TYR14       0.0534
      6  CG       138.6860   23.9860   45.6430 C.ar   14  TYR14      -0.0201
      7  CD1      138.7950   22.9320   44.7350 C.ar   14  TYR14      -0.0009
      8  CD2      139.8530   24.5360   46.1490 C.ar   14  TYR14      -0.0009
      9  CE1      140.0340   22.4470   44.3510 C.ar   14  TYR14       0.0417
     10  CE2      141.1010   24.0600   45.7680 C.ar   14  TYR14       0.0417
     11  CZ       141.1820   23.0080   44.8720 C.ar   14  TYR14       0.1957
     12  OH       142.4230   22.5330   44.5000 O.3    14  TYR14      -0.2866
     13  N        143.8640   30.4810   43.6730 N.3   101  LYS101     -0.1245
     14  CA       143.9170   31.2600   42.4390 C.3   101  LYS101      0.1561
     15  C        142.5170   31.7110   42.0310 C.2   101  LYS101      0.2260
     16  O        141.5250   31.1420   42.4890 O.2   101  LYS101     -0.2867
     17  CB       144.5570   30.4520   41.2910 C.3   101  LYS101      0.0271
     18  CG       144.2170   28.9480   41.2290 C.3   101  LYS101      0.0035
     19  CD       142.7130   28.6270   41.0560 C.3   101  LYS101      0.0206
     20  CE       142.1510   29.0900   39.7080 C.3   101  LYS101      0.1093
     21  NZ       140.6460   28.8510   39.6150 N.3   101  LYS101     -0.1314
     22  N        147.9590   23.8330   42.2320 N.3   129  ARG129     -0.1245
     23  CA       148.1260   22.4050   42.5260 C.3   129  ARG129      0.1563
     24  C        148.7610   21.6060   41.3820 C.2   129  ARG129      0.2260
     25  O        149.4120   20.5850   41.6130 O.2   129  ARG129     -0.2867
     26  CB       146.7650   21.7820   42.8920 C.3   129  ARG129      0.0307
     27  CG       145.6700   22.0930   41.8730 C.3   129  ARG129      0.0489
     28  CD       144.4010   21.2810   42.1100 C.3   129  ARG129      0.2205
     29  NE       143.3520   21.7570   41.2150 N.pl3 129  ARG129     -0.0865
     30  CZ       143.1960   21.3300   39.9660 C.cat 129  ARG129      0.5346
     31  NH1      143.9970   20.3830   39.4850 N.pl3 129  ARG129      0.1354
     32  NH2      142.2370   21.8460   39.2030 N.pl3 129  ARG129      0.1354
     33  N        135.1090   25.6690   30.6210 N.3   160  PHE160     -0.1241
     34  CA       133.9990   24.7740   30.9020 C.3   160  PHE160      0.1605
     35  C        132.7040   25.5220   30.6380 C.2   160  PHE160      0.2264
     36  O        132.6920   26.7530   30.5910 O.2   160  PHE160     -0.2867
     37  CB       134.0570   24.2330   32.3370 C.3   160  PHE160      0.0534
     38  CG       133.7480   25.2520   33.3970 C.ar  160  PHE160     -0.0203
     39  CD1      134.7110   26.1630   33.8070 C.ar  160  PHE160     -0.0042
     40  CD2      132.5040   25.2740   34.0120 C.ar  160  PHE160     -0.0042
     41  CE1      134.4370   27.0950   34.7900 C.ar  160  PHE160     -0.0003
     42  CE2      132.2170   26.2050   35.0090 C.ar  160  PHE160     -0.0003
     43  CZ       133.1920   27.1130   35.4010 C.ar  160  PHE160     -0.0000
     44  N        130.9230   33.7660   40.2090 N.3   169  ARG169     -0.1245
     45  CA       131.8650   33.7980   39.0790 C.3   169  ARG169      0.1563
     46  C        131.3740   34.7000   37.9380 C.2   169  ARG169      0.2260
     47  O        132.1790   35.2000   37.1530 O.2   169  ARG169     -0.2867
     48  CB       132.1350   32.3820   38.5460 C.3   169  ARG169      0.0307
     49  CG       133.1850   31.6130   39.3630 C.3   169  ARG169      0.0489
     50  CD       133.3480   30.1570   38.8680 C.3   169  ARG169      0.2205
     51  NE       134.3500   29.4180   39.6450 N.pl3 169  ARG169     -0.0865
     52  CZ       134.1130   28.8080   40.8070 C.cat 169  ARG169      0.5346
     53  NH1      132.8980   28.8430   41.3520 N.pl3 169  ARG169      0.1354
     54  NH2      135.0890   28.1410   41.4230 N.pl3 169  ARG169      0.1354
     55  N        139.1410   32.7050   36.1080 N.3   182  ASP182     -0.1225
     56  CA       138.7970   31.4320   36.7310 C.3   182  ASP182      0.1805
     57  C        139.4610   30.1880   36.1280 C.2   182  ASP182      0.2597
     58  O        139.9260   29.3180   36.8610 O.2   182  ASP182     -0.2718
     59  CB       137.2750   31.2500   36.6790 C.3   182  ASP182      0.1424
     60  CG       136.8200   29.9660   37.3320 C.2   182  ASP182      0.3668
     61  OD1      136.8320   29.8860   38.5820 O.co2 182  ASP182     -0.2456
     62  OD2      136.4390   29.0380   36.5920 O.co2 182  ASP182     -0.2456
     63  N        139.4640   30.0790   34.8000 N.am  183  ILE183     -0.1980
     64  CA       139.9150   28.8510   34.1580 C.3   183  ILE183      0.1595
     65  C        140.9900   29.1290   33.1000 C.2   183  ILE183      0.2287
     66  O        141.9080   28.3330   32.9250 O.2   183  ILE183     -0.2864
     67  CB       138.7030   28.0710   33.5520 C.3   183  ILE183      0.0276
     68  CG1      139.1480   26.7440   32.9550 C.3   183  ILE183      0.0022
     69  CG2      137.9280   28.9210   32.5460 C.3   183  ILE183      0.0022
     70  CD1      139.6770   25.7550   33.9970 C.3   183  ILE183      0.0001
     71  N        144.6850   28.8190   34.0000 N.3   186  TYR186     -0.1241
     72  CA       145.4460   27.5570   33.8760 C.3   186  TYR186      0.1605
     73  C        146.2790   27.5320   32.6030 C.2   186  TYR186      0.2264
     74  O        147.4040   27.0250   32.6040 O.2   186  TYR186     -0.2867
     75  CB       144.5230   26.3220   33.9120 C.3   186  TYR186      0.0534
     76  CG       143.9650   26.0720   35.2950 C.ar  186  TYR186     -0.0201
     77  CD1      144.6500   25.2840   36.2150 C.ar  186  TYR186     -0.0009
     78  CD2      142.7680   26.6500   35.6880 C.ar  186  TYR186     -0.0009
     79  CE1      144.1390   25.0720   37.4820 C.ar  186  TYR186      0.0417
     80  CE2      142.2630   26.4540   36.9450 C.ar  186  TYR186      0.0417
     81  CZ       142.9430   25.6640   37.8360 C.ar  186  TYR186      0.1957
     82  OH       142.4130   25.4780   39.0880 O.3   186  TYR186     -0.2866
     83  N        140.4170   21.0580   28.3240 N.3   245  ASN245     -0.1240
     84  CA       141.4100   21.0420   29.3800 C.3   245  ASN245      0.1653
     85  C        142.6060   20.2730   28.8720 C.2   245  ASN245      0.2266
     86  O        142.6300   19.0490   28.9400 O.2   245  ASN245     -0.2867
     87  CB       140.8440   20.4060   30.6580 C.3   245  ASN245      0.1155
     88  CG       141.7250   20.6490   31.8710 C.2   245  ASN245      0.2627
     89  OD1      142.9330   20.4150   31.8320 O.2   245  ASN245     -0.2716
     90  ND2      141.1310   21.1600   32.9410 N.am  245  ASN245     -0.0877
     91  N        144.8030   19.5210   33.7160 N.3   262  THR262     -0.1203
     92  CA       144.8490   20.1530   35.0340 C.3   262  THR262      0.1994
     93  C        143.5620   19.8830   35.8210 C.2   262  THR262      0.2619
     94  O        143.1960   20.6380   36.7220 O.2   262  THR262     -0.2717
     95  CB       145.0900   21.6960   34.9270 C.3   262  THR262      0.1784
     96  OG1      144.0130   22.3170   34.2190 O.3   262  THR262     -0.2211
     97  CG2      146.4190   22.0130   34.1980 C.3   262  THR262      0.0376
     98  N        142.8890   18.7960   35.4650 N.am  263  SER263     -0.1937
     99  CA       141.6890   18.3410   36.1610 C.3   263  SER263      0.2055
    100  C        142.0090   17.7540   37.5380 C.2   263  SER263      0.2643
    101  O        143.1690   17.5400   37.8690 O.2   263  SER263     -0.2714
    102  CB       140.9620   17.3020   35.3120 C.3   263  SER263      0.2130
    103  OG       141.8610   16.3050   34.8390 O.3   263  SER263     -0.2179
    104  N        140.9790   17.4850   38.3390 N.am  264  TYR264     -0.1973
    105  CA       141.2040   16.9220   39.6750 C.3   264  TYR264      0.1639
    106  C        141.7930   15.5070   39.5810 C.2   264  TYR264      0.2290
    107  O        142.5710   15.0780   40.4380 O.2   264  TYR264     -0.2864
    108  CB       139.8960   16.9080   40.4820 C.3   264  TYR264      0.0560
    109  CG       139.2630   18.2640   40.7080 C.ar  264  TYR264     -0.0198
    110  CD1      140.0330   19.4260   40.7920 C.ar  264  TYR264     -0.0009
    111  CD2      137.8830   18.3800   40.8670 C.ar  264  TYR264     -0.0009
    112  CE1      139.4420   20.6630   41.0060 C.ar  264  TYR264      0.0417
    113  CE2      137.2900   19.6020   41.0900 C.ar  264  TYR264      0.0417
    114  CZ       138.0700   20.7410   41.1580 C.ar  264  TYR264      0.1957
    115  OH       137.4720   21.9540   41.3760 O.3   264  TYR264     -0.2866
@<TRIPOS>BOND
     1    83    84    1
     2    85    86    2
     3    85    84    1
     4    84    87    1
     5    36    35    2
     6    33    34    1
     7    35    34    1
     8    87    88    1
     9    34    37    1
    10    89    88    2
    11    88    90   am
    12    37    38    1
    13    69    67    1
    14    73    74    2
    15    73    72    1
    16    66    65    2
    17    68    67    1
    18    68    70    1
    19    65    64    1
    20    38    39   ar
    21    38    40   ar
    22    67    64    1
    23    91    92    1
    24    39    41   ar
    25    72    75    1
    26    72    71    1
    27    75    76    1
    28    40    42   ar
    29    64    63    1
    30    97    95    1
    31    96    95    1
    32    41    43   ar
    33    63    57   am
    34   103   102    1
    35    95    92    1
    36    42    43   ar
    37    92    93    1
    38    76    78   ar
    39    76    77   ar
    40   102    99    1
    41    98    93   am
    42    98    99    1
    43    78    80   ar
    44    93    94    2
    45    55    56    1
    46    57    56    1
    47    57    58    2
    48    99   100    1
    49    77    79   ar
    50    62    60   ar
    51    59    56    1
    52    59    60    1
    53    80    81   ar
    54    47    46    2
    55    60    61   ar
    56    79    81   ar
    57   100   101    2
    58   100   104   am
    59    81    82    1
    60    46    45    1
    61   104   105    1
    62    48    45    1
    63    48    49    1
    64    50    49    1
    65    50    51    1
    66    45    44    1
    67    32    30    1
    68    31    30    1
    69   106   105    1
    70   106   107    2
    71    21    20    1
    72    51    52    2
    73   105   108    1
    74    20    19    1
    75    30    29    2
    76   108   109    1
    77   109   110   ar
    78   109   111   ar
    79   110   112   ar
    80    52    53    1
    81    52    54    1
    82   111   113   ar
    83   112   114   ar
    84    19    18    1
    85   113   114   ar
    86   114   115    1
    87    29    28    1
    88    18    17    1
    89    17    14    1
    90    24    25    2
    91    24    23    1
    92    27    28    1
    93    27    26    1
    94    15    14    1
    95    15    16    2
    96    22    23    1
    97    14    13    1
    98    23    26    1
    99     9     7   ar
   100     9    11   ar
   101    12    11    1
   102     7     6   ar
   103    11    10   ar
   104     6     5    1
   105     6     8   ar
   106    10     8   ar
   107     5     2    1
   108     2     1    1
   109     2     3    1
   110     3     4    2
