@<TRIPOS>MOLECULE
tmp/5a06A00.pdb
 231 227 0 0 0
SMALL
GASTEIGER

@<TRIPOS>ATOM
      1  N        136.2440   29.8350   54.2740 N.3    10  GLY10      -0.1210
      2  CA       135.3700   29.8350   53.1110 C.3    10  GLY10       0.1956
      3  C        134.9640   28.4100   52.7700 C.2    10  GLY10       0.2612
      4  O        135.5830   27.7650   51.9190 O.2    10  GLY10      -0.2717
      5  N        133.9320   27.9030   53.4460 N.am   11  LEU11      -0.1965
      6  CA       133.6060   26.4810   53.3610 C.3    11  LEU11       0.1728
      7  C        132.6610   26.2340   52.2030 C.2    11  LEU11       0.2617
      8  O        131.5040   25.8320   52.3900 O.2    11  LEU11      -0.2715
      9  CB       133.0080   25.9710   54.6900 C.3    11  LEU11       0.0311
     10  CG       133.9000   26.2370   55.9210 C.3    11  LEU11       0.0022
     11  CD1      133.3640   25.5840   57.2030 C.3    11  LEU11       0.0001
     12  CD2      135.3350   25.7680   55.6710 C.3    11  LEU11       0.0001
     13  N        133.1600   26.4870   50.9980 N.am   12  GLY12      -0.1940
     14  CA       132.3900   26.2680   49.7920 C.3    12  GLY12       0.2014
     15  C        132.7330   24.9430   49.1280 C.2    12  GLY12       0.2639
     16  O        133.2310   24.0310   49.7810 O.2    12  GLY12      -0.2714
     17  N        132.4760   24.8390   47.8250 N.am   13  TYR13      -0.1959
     18  CA       132.6610   23.5770   47.1290 C.3    13  TYR13       0.1771
     19  C        134.1020   23.0850   47.1760 C.2    13  TYR13       0.2619
     20  O        134.3640   21.9350   47.5590 O.2    13  TYR13      -0.2715
     21  CB       132.2160   23.6870   45.6630 C.3    13  TYR13       0.0574
     22  CG       132.3270   22.3610   44.9460 C.ar   13  TYR13      -0.0198
     23  CD1      131.3160   21.4140   45.0590 C.ar   13  TYR13      -0.0009
     24  CD2      133.4540   22.0370   44.1870 C.ar   13  TYR13      -0.0009
     25  CE1      131.4090   20.1800   44.4250 C.ar   13  TYR13       0.0417
     26  CE2      133.5540   20.7980   43.5470 C.ar   13  TYR13       0.0417
     27  CZ       132.5240   19.8820   43.6750 C.ar   13  TYR13       0.1957
     28  OH       132.5990   18.6550   43.0510 O.3    13  TYR13      -0.2866
     29  N        135.0430   23.9400   46.7840 N.am   14  TYR14      -0.1974
     30  CA       136.4270   23.4860   46.6940 C.3    14  TYR14       0.1639
     31  C        136.9740   23.1130   48.0620 C.2    14  TYR14       0.2290
     32  O        137.6460   22.0900   48.2070 O.2    14  TYR14      -0.2864
     33  CB       137.3240   24.5380   46.0490 C.3    14  TYR14       0.0560
     34  CG       138.6860   23.9860   45.6430 C.ar   14  TYR14      -0.0198
     35  CD1      138.7950   22.9320   44.7350 C.ar   14  TYR14      -0.0009
     36  CD2      139.8530   24.5360   46.1490 C.ar   14  TYR14      -0.0009
     37  CE1      140.0340   22.4470   44.3510 C.ar   14  TYR14       0.0417
     38  CE2      141.1010   24.0600   45.7680 C.ar   14  TYR14       0.0417
     39  CZ       141.1820   23.0080   44.8720 C.ar   14  TYR14       0.1957
     40  OH       142.4230   22.5330   44.5000 O.3    14  TYR14      -0.2866
     41  N        134.0400   30.4150   58.7920 N.3    36  SER36      -0.1202
     42  CA       132.8870   30.4290   57.8930 C.3    36  SER36       0.2020
     43  C        131.8900   31.5430   58.2160 C.2    36  SER36       0.2619
     44  O        131.7150   31.9110   59.3800 O.2    36  SER36      -0.2717
     45  CB       132.1630   29.0780   57.9440 C.3    36  SER36       0.2103
     46  OG       131.0250   29.0910   57.0970 O.3    36  SER36      -0.2182
     47  N        131.2240   32.0550   57.1810 N.am   37  GLY37      -0.1942
     48  CA       130.1410   33.0050   57.3610 C.3    37  GLY37       0.2014
     49  C        128.7930   32.3170   57.5150 C.2    37  GLY37       0.2639
     50  O        127.7660   32.9830   57.6240 O.2    37  GLY37      -0.2714
     51  N        128.7920   30.9850   57.5290 N.am   38  THR38      -0.1950
     52  CA       127.5550   30.2190   57.7100 C.3    38  THR38       0.1897
     53  C        127.6180   29.3470   58.9680 C.2    38  THR38       0.2313
     54  O        128.3210   28.3240   58.9920 O.2    38  THR38      -0.2863
     55  CB       127.2700   29.3310   56.4830 C.3    38  THR38       0.1794
     56  OG1      127.3340   30.1310   55.2950 O.3    38  THR38      -0.2208
     57  CG2      125.8830   28.6700   56.5860 C.3    38  THR38       0.0378
     58  N        127.3730   25.5510   58.6870 N.3    41  LYS41      -0.1245
     59  CA       128.5680   24.8650   58.1950 C.3    41  LYS41       0.1561
     60  C        129.6030   24.6010   59.2870 C.2    41  LYS41       0.2260
     61  O        130.2650   23.5630   59.2860 O.2    41  LYS41      -0.2867
     62  CB       129.2140   25.6670   57.0630 C.3    41  LYS41       0.0271
     63  CG       128.4200   25.6340   55.7530 C.3    41  LYS41       0.0035
     64  CD       129.1180   26.4860   54.6900 C.3    41  LYS41       0.0206
     65  CE       128.2700   26.6540   53.4370 C.3    41  LYS41       0.1093
     66  NZ       129.0080   27.5010   52.4390 N.3    41  LYS41      -0.1314
     67  N        133.4100   35.1540   60.2010 N.3    59  TYR59      -0.1241
     68  CA       134.2240   36.2270   59.6400 C.3    59  TYR59       0.1605
     69  C        134.3020   37.4040   60.6160 C.2    59  TYR59       0.2264
     70  O        135.2430   38.1830   60.5640 O.2    59  TYR59      -0.2867
     71  CB       133.6820   36.6940   58.2860 C.3    59  TYR59       0.0534
     72  CG       133.6730   35.6050   57.2230 C.ar   59  TYR59      -0.0201
     73  CD1      134.6840   34.6500   57.1560 C.ar   59  TYR59      -0.0009
     74  CD2      132.6450   35.5340   56.2970 C.ar   59  TYR59      -0.0009
     75  CE1      134.6640   33.6490   56.1810 C.ar   59  TYR59       0.0417
     76  CE2      132.6190   34.5540   55.3200 C.ar   59  TYR59       0.0417
     77  CZ       133.6290   33.6130   55.2650 C.ar   59  TYR59       0.1957
     78  OH       133.5760   32.6350   54.2940 O.3    59  TYR59      -0.2866
     79  N        139.7360   30.3800   50.6810 N.3    77  ILE77      -0.1231
     80  CA       139.0780   29.6890   49.5740 C.3    77  ILE77       0.1692
     81  C        137.7070   30.3440   49.3200 C.2    77  ILE77       0.2593
     82  O        136.6760   29.6800   49.2560 O.2    77  ILE77      -0.2718
     83  CB       138.9350   28.1540   49.8500 C.3    77  ILE77       0.0266
     84  CG1      140.2130   27.5920   50.4840 C.3    77  ILE77       0.0019
     85  CG2      138.6280   27.3860   48.5370 C.3    77  ILE77       0.0020
     86  CD1      140.1990   26.0490   50.7630 C.3    77  ILE77       0.0001
     87  N        137.7390   31.6650   49.1760 N.am   78  THR78      -0.1940
     88  CA       136.5590   32.5020   48.9680 C.3    78  THR78       0.2013
     89  C        136.4430   32.9450   47.5040 C.2    78  THR78       0.2484
     90  O        137.3420   32.6780   46.7220 O.2    78  THR78      -0.2729
     91  CB       136.6410   33.7460   49.8640 C.3    78  THR78       0.1807
     92  OG1      137.7820   34.5350   49.4830 O.3    78  THR78      -0.2208
     93  CG2      136.7780   33.3430   51.3140 C.3    78  THR78       0.0379
     94  N        135.3590   33.6800   47.1450 N.am   79  PRO79      -0.2715
     95  CA       135.3700   34.3560   45.8400 C.3    79  PRO79       0.1536
     96  C        136.5870   35.2740   45.6800 C.2    79  PRO79       0.2598
     97  O        137.1490   35.7510   46.6740 O.2    79  PRO79      -0.2715
     98  CB       134.0680   35.1600   45.8500 C.3    79  PRO79       0.0310
     99  CG       133.1280   34.2890   46.6800 C.3    79  PRO79       0.0237
    100  CD       134.0270   33.7480   47.7890 C.3    79  PRO79       0.0939
    101  N        136.9850   35.5100   44.4380 N.am   80  ASN80      -0.1973
    102  CA       138.2690   36.1560   44.1530 C.3    80  ASN80       0.1688
    103  C        138.4640   37.5200   44.7940 C.2    80  ASN80       0.2292
    104  O        139.5470   37.8140   45.3060 O.2    80  ASN80      -0.2864
    105  CB       138.4510   36.2750   42.6380 C.3    80  ASN80       0.1181
    106  CG       138.3420   34.9410   41.9430 C.2    80  ASN80       0.2629
    107  OD1      138.5620   33.8850   42.5560 O.2    80  ASN80      -0.2716
    108  ND2      138.0000   34.9710   40.6550 N.am   80  ASN80      -0.0877
    109  N        137.5310   38.5770   47.5010 N.3    82  LEU82      -0.1231
    110  CA       137.7430   38.5290   48.9540 C.3    82  LEU82       0.1693
    111  C        139.1110   37.9660   49.3380 C.2    82  LEU82       0.2592
    112  O        139.4670   37.9510   50.5210 O.2    82  LEU82      -0.2718
    113  CB       136.6430   37.7210   49.6450 C.3    82  LEU82       0.0284
    114  CG       135.2030   38.1670   49.3840 C.3    82  LEU82       0.0019
    115  CD1      134.2630   37.5110   50.3730 C.3    82  LEU82       0.0001
    116  CD2      135.0660   39.6480   49.4290 C.3    82  LEU82       0.0001
    117  N        139.8880   37.5270   48.3550 N.am   83  HIS83      -0.1976
    118  CA       141.2220   36.9980   48.6460 C.3    83  HIS83       0.1656
    119  C        142.1030   38.0270   49.3520 C.2    83  HIS83       0.2291
    120  O        142.7690   37.7060   50.3510 O.2    83  HIS83      -0.2864
    121  CB       141.9260   36.5350   47.3660 C.3    83  HIS83       0.0771
    122  CG       141.3110   35.3250   46.7330 C.ar   83  HIS83       0.0820
    123  ND1      141.7900   34.7800   45.5610 N.ar   83  HIS83      -0.2267
    124  CD2      140.2620   34.5490   47.1070 C.ar   83  HIS83       0.1154
    125  CE1      141.0630   33.7200   45.2380 C.ar   83  HIS83       0.1986
    126  NE2      140.1260   33.5600   46.1570 N.ar   83  HIS83      -0.2212
    127  N        143.8910   30.7440   47.3060 N.3   100  GLU100     -0.1231
    128  CA       143.5220   30.1260   46.0460 C.3   100  GLU100      0.1699
    129  C        143.7900   31.0560   44.8710 C.2   100  GLU100      0.2592
    130  O        143.9410   32.2570   45.0530 O.2   100  GLU100     -0.2718
    131  CB       142.0520   29.7110   46.0540 C.3   100  GLU100      0.0402
    132  CG       141.8880   28.2190   46.3300 C.3   100  GLU100      0.1161
    133  CD       142.8190   27.3880   45.4450 C.2   100  GLU100      0.3649
    134  OE1      142.8600   27.6510   44.2220 O.co2 100  GLU100     -0.2457
    135  OE2      143.5170   26.4900   45.9760 O.co2 100  GLU100     -0.2457
    136  N        143.8640   30.4810   43.6730 N.am  101  LYS101     -0.1966
    137  CA       143.9170   31.2600   42.4390 C.3   101  LYS101      0.1713
    138  C        142.5170   31.7110   42.0310 C.2   101  LYS101      0.2458
    139  O        141.5250   31.1420   42.4890 O.2   101  LYS101     -0.2730
    140  CB       144.5570   30.4520   41.2910 C.3   101  LYS101      0.0311
    141  CG       144.2170   28.9480   41.2290 C.3   101  LYS101      0.0038
    142  CD       142.7130   28.6270   41.0560 C.3   101  LYS101      0.0206
    143  CE       142.1510   29.0900   39.7080 C.3   101  LYS101      0.1093
    144  NZ       140.6460   28.8510   39.6150 N.3   101  LYS101     -0.1314
    145  N        142.4220   32.7680   41.2170 N.am  102  PRO102     -0.2727
    146  CA       143.4930   33.7280   40.9240 C.3   102  PRO102      0.1402
    147  C        143.8390   34.4650   42.2180 C.2   102  PRO102      0.2269
    148  O        142.9660   34.5820   43.0690 O.2   102  PRO102     -0.2865
    149  CB       142.8570   34.6590   39.8910 C.3   102  PRO102      0.0296
    150  CG       141.3820   34.6020   40.2280 C.3   102  PRO102      0.0237
    151  CD       141.1370   33.1710   40.6160 C.3   102  PRO102      0.0939
    152  N        147.5200   28.5860   45.3630 N.3   127  GLY127     -0.1225
    153  CA       147.1280   27.2030   45.1530 C.3   127  GLY127      0.1811
    154  C        147.2490   26.6980   43.7210 C.2   127  GLY127      0.2280
    155  O        146.2540   26.2810   43.1320 O.2   127  GLY127     -0.2866
    156  N        147.9590   23.8330   42.2320 N.3   129  ARG129     -0.1245
    157  CA       148.1260   22.4050   42.5260 C.3   129  ARG129      0.1563
    158  C        148.7610   21.6060   41.3820 C.2   129  ARG129      0.2260
    159  O        149.4120   20.5850   41.6130 O.2   129  ARG129     -0.2867
    160  CB       146.7650   21.7820   42.8920 C.3   129  ARG129      0.0307
    161  CG       145.6700   22.0930   41.8730 C.3   129  ARG129      0.0489
    162  CD       144.4010   21.2810   42.1100 C.3   129  ARG129      0.2205
    163  NE       143.3520   21.7570   41.2150 N.pl3 129  ARG129     -0.0865
    164  CZ       143.1960   21.3300   39.9660 C.cat 129  ARG129      0.5346
    165  NH1      143.9970   20.3830   39.4850 N.pl3 129  ARG129      0.1354
    166  NH2      142.2370   21.8460   39.2030 N.pl3 129  ARG129      0.1354
    167  N        128.6210   33.6780   41.8070 N.3   168  TRP168     -0.1227
    168  CA       129.5730   34.7770   41.9840 C.3   168  TRP168      0.1737
    169  C        130.5870   34.8870   40.8520 C.2   168  TRP168      0.2595
    170  O        131.0550   35.9880   40.5620 O.2   168  TRP168     -0.2718
    171  CB       130.3080   34.6670   43.3370 C.3   168  TRP168      0.0564
    172  CG       131.2800   33.5010   43.5040 C.ar  168  TRP168      0.0003
    173  CD1      131.0510   32.3440   44.1980 C.ar  168  TRP168      0.0946
    174  CD2      132.6300   33.4120   43.0210 C.ar  168  TRP168      0.0152
    175  NE1      132.1550   31.5320   44.1510 N.ar  168  TRP168     -0.2442
    176  CE2      133.1390   32.1560   43.4320 C.ar  168  TRP168      0.0810
    177  CE3      133.4470   34.2520   42.2570 C.ar  168  TRP168      0.0012
    178  CZ2      134.4270   31.7260   43.1130 C.ar  168  TRP168      0.0191
    179  CZ3      134.7400   33.8200   41.9350 C.ar  168  TRP168      0.0001
    180  CH2      135.2150   32.5730   42.3660 C.ar  168  TRP168      0.0015
    181  N        130.9230   33.7660   40.2090 N.am  169  ARG169     -0.1980
    182  CA       131.8650   33.7980   39.0790 C.3   169  ARG169      0.1597
    183  C        131.3740   34.7000   37.9380 C.2   169  ARG169      0.2287
    184  O        132.1790   35.2000   37.1530 O.2   169  ARG169     -0.2864
    185  CB       132.1350   32.3820   38.5460 C.3   169  ARG169      0.0334
    186  CG       133.1850   31.6130   39.3630 C.3   169  ARG169      0.0492
    187  CD       133.3480   30.1570   38.8680 C.3   169  ARG169      0.2205
    188  NE       134.3500   29.4180   39.6450 N.pl3 169  ARG169     -0.0865
    189  CZ       134.1130   28.8080   40.8070 C.cat 169  ARG169      0.5346
    190  NH1      132.8980   28.8430   41.3520 N.pl3 169  ARG169      0.1354
    191  NH2      135.0890   28.1410   41.4230 N.pl3 169  ARG169      0.1354
    192  N        132.4420   40.3590   42.5940 N.3   174  LEU174     -0.1245
    193  CA       133.0010   39.2500   43.3730 C.3   174  LEU174      0.1561
    194  C        134.0940   38.4440   42.6310 C.2   174  LEU174      0.2260
    195  O        134.9640   37.8520   43.2730 O.2   174  LEU174     -0.2867
    196  CB       131.8830   38.2910   43.8100 C.3   174  LEU174      0.0270
    197  CG       130.9220   38.8230   44.8840 C.3   174  LEU174      0.0019
    198  CD1      129.7840   37.8300   45.1580 C.3   174  LEU174      0.0001
    199  CD2      131.6910   39.1430   46.1710 C.3   174  LEU174      0.0001
    200  N        139.1410   32.7050   36.1080 N.3   182  ASP182     -0.1239
    201  CA       138.7970   31.4320   36.7310 C.3   182  ASP182      0.1674
    202  C        139.4610   30.1880   36.1280 C.2   182  ASP182      0.2266
    203  O        139.9260   29.3180   36.8610 O.2   182  ASP182     -0.2867
    204  CB       137.2750   31.2500   36.6790 C.3   182  ASP182      0.1410
    205  CG       136.8200   29.9660   37.3320 C.2   182  ASP182      0.3668
    206  OD1      136.8320   29.8860   38.5820 O.co2 182  ASP182     -0.2456
    207  OD2      136.4390   29.0380   36.5920 O.co2 182  ASP182     -0.2456
    208  N        144.6850   28.8190   34.0000 N.3   186  TYR186     -0.1241
    209  CA       145.4460   27.5570   33.8760 C.3   186  TYR186      0.1605
    210  C        146.2790   27.5320   32.6030 C.2   186  TYR186      0.2264
    211  O        147.4040   27.0250   32.6040 O.2   186  TYR186     -0.2867
    212  CB       144.5230   26.3220   33.9120 C.3   186  TYR186      0.0534
    213  CG       143.9650   26.0720   35.2950 C.ar  186  TYR186     -0.0201
    214  CD1      144.6500   25.2840   36.2150 C.ar  186  TYR186     -0.0009
    215  CD2      142.7680   26.6500   35.6880 C.ar  186  TYR186     -0.0009
    216  CE1      144.1390   25.0720   37.4820 C.ar  186  TYR186      0.0417
    217  CE2      142.2630   26.4540   36.9450 C.ar  186  TYR186      0.0417
    218  CZ       142.9430   25.6640   37.8360 C.ar  186  TYR186      0.1957
    219  OH       142.4130   25.4780   39.0880 O.3   186  TYR186     -0.2866
    220  N        140.9790   17.4850   38.3390 N.3   264  TYR264     -0.1241
    221  CA       141.2040   16.9220   39.6750 C.3   264  TYR264      0.1605
    222  C        141.7930   15.5070   39.5810 C.2   264  TYR264      0.2264
    223  O        142.5710   15.0780   40.4380 O.2   264  TYR264     -0.2867
    224  CB       139.8960   16.9080   40.4820 C.3   264  TYR264      0.0534
    225  CG       139.2630   18.2640   40.7080 C.ar  264  TYR264     -0.0201
    226  CD1      140.0330   19.4260   40.7920 C.ar  264  TYR264     -0.0009
    227  CD2      137.8830   18.3800   40.8670 C.ar  264  TYR264     -0.0009
    228  CE1      139.4420   20.6630   41.0060 C.ar  264  TYR264      0.0417
    229  CE2      137.2900   19.6020   41.0900 C.ar  264  TYR264      0.0417
    230  CZ       138.0700   20.7410   41.1580 C.ar  264  TYR264      0.1957
    231  OH       137.4720   21.9540   41.3760 O.3   264  TYR264     -0.2866
@<TRIPOS>BOND
     1   210   211    2
     2   210   209    1
     3   209   212    1
     4   209   208    1
     5   212   213    1
     6   213   215   ar
     7   213   214   ar
     8   215   217   ar
     9   200   201    1
    10   202   201    1
    11   202   203    2
    12   214   216   ar
    13   207   205   ar
    14   204   201    1
    15   204   205    1
    16   217   218   ar
    17   184   183    2
    18   205   206   ar
    19   216   218   ar
    20   218   219    1
    21   183   182    1
    22   220   221    1
    23   185   182    1
    24   185   186    1
    25   187   186    1
    26   187   188    1
    27   182   181    1
    28   166   164    1
    29   165   164    1
    30   222   221    1
    31   222   223    2
    32   144   143    1
    33   188   189    2
    34   221   224    1
    35   143   142    1
    36   149   150    1
    37   149   146    1
    38   164   163    2
    39   181   169   am
    40   150   151    1
    41   224   225    1
    42   170   169    2
    43   151   145    1
    44   108   106   am
    45   225   226   ar
    46   225   227   ar
    47   226   228   ar
    48   189   190    1
    49   189   191    1
    50   169   168    1
    51   227   229   ar
    52   146   145    1
    53   146   147    1
    54   228   230   ar
    55   142   141    1
    56   229   230   ar
    57   230   231    1
    58   163   162    1
    59   145   138   am
    60   141   140    1
    61   140   137    1
    62   158   159    2
    63   158   157    1
    64   167   168    1
    65   161   162    1
    66   161   160    1
    67   179   177   ar
    68   179   180   ar
    69   106   107    2
    70   106   105    1
    71   168   171    1
    72   138   137    1
    73   138   139    2
    74   147   148    2
    75   156   157    1
    76   177   174   ar
    77   180   178   ar
    78   137   136    1
    79   157   160    1
    80   192   193    1
    81   194   195    2
    82   194   193    1
    83   105   102    1
    84   174   176   ar
    85   174   172   ar
    86    28    27    1
    87   178   176   ar
    88   155   154    2
    89   171   172    1
    90   193   196    1
    91   176   175   ar
    92   172   173   ar
    93    26    27   ar
    94    26    24   ar
    95   136   129   am
    96    27    25   ar
    97   154   153    1
    98   196   197    1
    99   175   173   ar
   100   102   101    1
   101   102   103    1
   102    24    22   ar
   103   134   133   ar
   104    37    35   ar
   105    37    39   ar
   106    25    23   ar
   107   101    96   am
   108    40    39    1
   109    35    34   ar
   110   103   104    2
   111   129   130    2
   112   129   128    1
   113    39    38   ar
   114   197   198    1
   115   197   199    1
   116    22    23   ar
   117    22    21    1
   118   153   152    1
   119   125   123   ar
   120   125   126   ar
   121   133   135   ar
   122   133   132    1
   123   123   122   ar
   124    34    33    1
   125    34    36   ar
   126    21    18    1
   127    96    95    1
   128    96    97    2
   129    38    36   ar
   130    95    98    1
   131    95    94    1
   132    98    99    1
   133   128   131    1
   134   128   127    1
   135    33    30    1
   136   131   132    1
   137   126   124   ar
   138    99   100    1
   139    30    29    1
   140    30    31    1
   141    90    89    2
   142   122   124   ar
   143   122   121    1
   144    29    19   am
   145    18    19    1
   146    18    17    1
   147    94    89   am
   148    94   100    1
   149    19    20    2
   150   121   118    1
   151   109   110    1
   152    89    88    1
   153    17    15   am
   154    31    32    2
   155   117   118    1
   156   117   111   am
   157    85    83    1
   158   118   119    1
   159   110   111    1
   160   110   113    1
   161    88    87    1
   162    88    91    1
   163    15    16    2
   164    15    14    1
   165    87    81   am
   166    82    81    2
   167    81    80    1
   168   111   112    2
   169   119   120    2
   170   114   116    1
   171   114   113    1
   172   114   115    1
   173    92    91    1
   174    80    83    1
   175    80    79    1
   176    14    13    1
   177    83    84    1
   178    91    93    1
   179    84    86    1
   180    13     7   am
   181     4     3    2
   182     7     8    2
   183     7     6    1
   184    66    65    1
   185     3     2    1
   186     3     5   am
   187     2     1    1
   188     6     5    1
   189     6     9    1
   190    65    64    1
   191    78    77    1
   192    64    63    1
   193     9    10    1
   194    77    76   ar
   195    77    75   ar
   196    56    55    1
   197    76    74   ar
   198    12    10    1
   199    63    62    1
   200    10    11    1
   201    75    73   ar
   202    74    72   ar
   203    55    57    1
   204    55    52    1
   205    62    59    1
   206    46    45    1
   207    73    72   ar
   208    47    48    1
   209    47    43   am
   210    72    71    1
   211    48    49    1
   212    49    51   am
   213    49    50    2
   214    51    52    1
   215    52    53    1
   216    42    45    1
   217    42    43    1
   218    42    41    1
   219    59    58    1
   220    59    60    1
   221    43    44    2
   222    71    68    1
   223    53    54    2
   224    61    60    2
   225    68    67    1
   226    68    69    1
   227    70    69    2
