@<TRIPOS>MOLECULE
tmp/5a06A03.pdb
 91 86 0 0 0
SMALL
GASTEIGER

@<TRIPOS>ATOM
      1  N        156.1560   16.1670   62.4790 N.3     2  ARG2       -0.1245
      2  CA       155.4350   17.3290   62.9750 C.3     2  ARG2        0.1563
      3  C        154.4420   17.7980   61.9120 C.2     2  ARG2        0.2260
      4  O        154.7630   17.8100   60.7160 O.2     2  ARG2       -0.2867
      5  CB       156.3930   18.4630   63.3520 C.3     2  ARG2        0.0307
      6  CG       155.6960   19.5760   64.1390 C.3     2  ARG2        0.0489
      7  CD       156.5470   20.8330   64.2970 C.3     2  ARG2        0.2205
      8  NE       155.7290   21.9640   64.7360 N.pl3   2  ARG2       -0.0865
      9  CZ       156.1190   23.2370   64.7110 C.cat   2  ARG2        0.5346
     10  NH1      157.3270   23.5640   64.2630 N.pl3   2  ARG2        0.1354
     11  NH2      155.2940   24.1880   65.1300 N.pl3   2  ARG2        0.1354
     12  N        151.8210   20.9550   60.8120 N.3     4  LEU4       -0.1245
     13  CA       151.3230   22.3110   61.0180 C.3     4  LEU4        0.1561
     14  C        149.8150   22.3680   60.8240 C.2     4  LEU4        0.2260
     15  O        149.2530   21.6390   59.9900 O.2     4  LEU4       -0.2867
     16  CB       152.0130   23.2920   60.0680 C.3     4  LEU4        0.0270
     17  CG       153.5250   23.4220   60.2770 C.3     4  LEU4        0.0019
     18  CD1      154.0590   24.5870   59.4490 C.3     4  LEU4        0.0001
     19  CD2      153.8540   23.6110   61.7640 C.3     4  LEU4        0.0001
     20  N        147.2560   29.0840   69.0370 N.3    69  PRO69      -0.2116
     21  CA       148.5500   28.5350   68.6400 C.3    69  PRO69       0.1372
     22  C        148.4520   27.2160   67.8570 C.2    69  PRO69       0.2244
     23  O        149.4720   26.7830   67.3410 O.2    69  PRO69      -0.2868
     24  CB       149.2630   28.3310   69.9810 C.3    69  PRO69       0.0268
     25  CG       148.1780   28.1480   70.9580 C.3    69  PRO69       0.0207
     26  CD       147.0420   29.0140   70.4930 C.3    69  PRO69       0.0892
     27  N        146.8280   26.9650   65.1230 N.3    71  VAL71      -0.1231
     28  CA       146.6960   27.4200   63.7380 C.3    71  VAL71       0.1692
     29  C        147.9920   28.0580   63.2610 C.2    71  VAL71       0.2592
     30  O        148.4110   29.1010   63.7890 O.2    71  VAL71      -0.2718
     31  CB       145.5510   28.4410   63.5820 C.3    71  VAL71       0.0266
     32  CG1      145.4950   28.9890   62.1450 C.3    71  VAL71       0.0020
     33  CG2      144.2180   27.8080   63.9620 C.3    71  VAL71       0.0020
     34  N        148.6230   27.4300   62.2720 N.am   72  ASP72      -0.1974
     35  CA       149.8510   27.9510   61.6700 C.3    72  ASP72       0.1709
     36  C        149.5600   28.6680   60.3550 C.2    72  ASP72       0.2293
     37  O        150.1750   29.6770   60.0350 O.2    72  ASP72      -0.2864
     38  CB       150.8450   26.8150   61.4290 C.3    72  ASP72       0.1436
     39  CG       151.2760   26.1630   62.7130 C.2    72  ASP72       0.3671
     40  OD1      152.0560   26.8180   63.4380 O.co2  72  ASP72      -0.2456
     41  OD2      150.8240   25.0250   63.0050 O.co2  72  ASP72      -0.2456
     42  N        149.1990   37.0370   62.3920 N.3    94  GLY94      -0.1210
     43  CA       150.4260   36.2690   62.5200 C.3    94  GLY94       0.1956
     44  C        150.4440   34.8910   61.8690 C.2    94  GLY94       0.2612
     45  O        151.2240   34.0240   62.2650 O.2    94  GLY94      -0.2717
     46  N        149.6090   34.6800   60.8570 N.am   95  LYS95      -0.1965
     47  CA       149.5510   33.3690   60.2150 C.3    95  LYS95       0.1728
     48  C        150.1660   33.3750   58.8220 C.2    95  LYS95       0.2616
     49  O        150.0900   34.3690   58.0890 O.2    95  LYS95      -0.2715
     50  CB       148.1040   32.8580   60.1140 C.3    95  LYS95       0.0311
     51  CG       147.2740   32.9010   61.4140 C.3    95  LYS95       0.0038
     52  CD       147.9500   32.1700   62.5760 C.3    95  LYS95       0.0206
     53  CE       147.0500   32.1810   63.8140 C.3    95  LYS95       0.1093
     54  NZ       147.7160   31.6050   65.0170 N.3    95  LYS95      -0.1314
     55  N        150.7670   32.2460   58.4660 N.am   96  HIS96      -0.1973
     56  CA       151.1800   31.9900   57.0870 C.3    96  HIS96       0.1656
     57  C        149.9190   31.8150   56.2520 C.2    96  HIS96       0.2291
     58  O        148.8640   31.4990   56.8000 O.2    96  HIS96      -0.2864
     59  CB       152.0490   30.7360   56.9980 C.3    96  HIS96       0.0771
     60  CG       153.2220   30.7470   57.9240 C.ar   96  HIS96       0.0820
     61  ND1      154.4240   31.3300   57.5910 N.ar   96  HIS96      -0.2267
     62  CD2      153.3840   30.2340   59.1690 C.ar   96  HIS96       0.1154
     63  CE1      155.2770   31.1820   58.5910 C.ar   96  HIS96       0.1986
     64  NE2      154.6700   30.5220   59.5620 N.ar   96  HIS96      -0.2212
     65  N        155.6710   36.1720   57.4500 N.3   122  ARG122     -0.1245
     66  CA       154.9770   34.9060   57.2490 C.3   122  ARG122      0.1563
     67  C        154.9630   34.5400   55.7690 C.2   122  ARG122      0.2260
     68  O        154.9570   35.4190   54.9020 O.2   122  ARG122     -0.2867
     69  CB       153.5510   34.9880   57.7980 C.3   122  ARG122      0.0307
     70  CG       153.5020   35.2590   59.3060 C.3   122  ARG122      0.0489
     71  CD       153.9970   34.0280   60.0740 C.3   122  ARG122      0.2205
     72  NE       153.9350   34.2110   61.5190 N.pl3 122  ARG122     -0.0865
     73  CZ       154.9480   34.6300   62.2740 C.cat 122  ARG122      0.5346
     74  NH1      156.1220   34.9060   61.7280 N.pl3 122  ARG122      0.1354
     75  NH2      154.7840   34.7670   63.5870 N.pl3 122  ARG122      0.1354
     76  N        157.6960   26.0330   55.6180 N.3   301  ILE301     -0.1231
     77  CA       157.7060   26.7030   56.9130 C.3   301  ILE301      0.1692
     78  C        158.6210   25.9700   57.9040 C.2   301  ILE301      0.2591
     79  O        159.3690   26.6060   58.6530 O.2   301  ILE301     -0.2718
     80  CB       156.2760   26.8160   57.4890 C.3   301  ILE301      0.0266
     81  CG1      155.4190   27.7330   56.6020 C.3   301  ILE301      0.0019
     82  CG2      156.2960   27.3670   58.9030 C.3   301  ILE301      0.0020
     83  CD1      153.9330   27.5620   56.8410 C.3   301  ILE301      0.0001
     84  N        158.5750   24.6400   57.8980 N.am  302  LEU302     -0.1980
     85  CA       159.3870   23.8490   58.8270 C.3   302  LEU302      0.1596
     86  C        160.8770   23.9230   58.5040 C.2   302  LEU302      0.2287
     87  O        161.7060   23.8280   59.4020 O.2   302  LEU302     -0.2864
     88  CB       158.9350   22.3840   58.8330 C.3   302  LEU302      0.0297
     89  CG       157.5620   22.1260   59.4610 C.3   302  LEU302      0.0022
     90  CD1      157.1130   20.7010   59.2140 C.3   302  LEU302      0.0001
     91  CD2      157.5990   22.4260   60.9490 C.3   302  LEU302      0.0001
@<TRIPOS>BOND
     1    68    67    2
     2    76    77    1
     3    67    66    1
     4    57    58    2
     5    57    56    1
     6    81    83    1
     7    81    80    1
     8    77    80    1
     9    77    78    1
    10    59    56    1
    11    59    60    1
    12    56    55    1
    13    66    65    1
    14    66    69    1
    15    80    82    1
    16    61    60   ar
    17    61    63   ar
    18    69    70    1
    19    84    78   am
    20    84    85    1
    21    78    79    2
    22    60    62   ar
    23    49    48    2
    24    55    48   am
    25    86    85    1
    26    86    87    2
    27    63    64   ar
    28    48    47    1
    29    85    88    1
    30    88    89    1
    31    62    64   ar
    32    90    89    1
    33    70    71    1
    34    18    17    1
    35    89    91    1
    36    15    14    2
    37    37    36    2
    38    16    17    1
    39    16    13    1
    40    71    72    1
    41    50    47    1
    42    50    51    1
    43    47    46    1
    44    17    19    1
    45    36    35    1
    46     4     3    2
    47    12    13    1
    48    14    13    1
    49    46    44   am
    50    51    52    1
    51    38    35    1
    52    38    39    1
    53    72    73    2
    54    35    34    1
    55    74    73    1
    56    44    45    2
    57    44    43    1
    58     3     2    1
    59    32    31    1
    60    34    29   am
    61    73    75    1
    62    42    43    1
    63     1     2    1
    64    52    53    1
    65    39    41   ar
    66    39    40   ar
    67     2     5    1
    68    29    28    1
    69    29    30    2
    70     5     6    1
    71    31    28    1
    72    31    33    1
    73    28    27    1
    74    53    54    1
    75     6     7    1
    76    10     9    1
    77     7     8    1
    78     9     8    2
    79     9    11    1
    80    23    22    2
    81    22    21    1
    82    21    20    1
    83    21    24    1
    84    20    26    1
    85    24    25    1
    86    26    25    1
