@<TRIPOS>MOLECULE
tmp/5a07A00.pdb
 176 172 0 0 0
SMALL
GASTEIGER

@<TRIPOS>ATOM
      1  N         28.8730  -51.9660  -27.3790 N.3    71  LEU71      -0.1231
      2  CA        27.6090  -52.3910  -27.9630 C.3    71  LEU71       0.1693
      3  C         26.6950  -51.1610  -27.8330 C.2    71  LEU71       0.2592
      4  O         26.4040  -50.7590  -26.7210 O.2    71  LEU71      -0.2718
      5  CB        27.0190  -53.5730  -27.1720 C.3    71  LEU71       0.0284
      6  CG        25.6010  -53.9700  -27.5640 C.3    71  LEU71       0.0019
      7  CD1       25.6130  -54.7100  -28.9020 C.3    71  LEU71       0.0001
      8  CD2       24.9330  -54.8240  -26.5480 C.3    71  LEU71       0.0001
      9  N         26.2820  -50.5630  -28.9670 N.am   72  VAL72      -0.1966
     10  CA        25.5330  -49.3230  -28.9280 C.3    72  VAL72       0.1727
     11  C         24.5940  -49.2520  -30.1180 C.2    72  VAL72       0.2616
     12  O         24.7550  -49.9950  -31.1050 O.2    72  VAL72      -0.2715
     13  CB        26.4330  -48.0600  -29.0130 C.3    72  VAL72       0.0290
     14  CG1       27.0940  -47.7880  -27.6990 C.3    72  VAL72       0.0023
     15  CG2       27.4740  -48.1470  -30.1000 C.3    72  VAL72       0.0023
     16  N         23.5750  -48.4130  -29.9640 N.am   73  ARG73      -0.1977
     17  CA        22.5820  -48.1500  -31.0120 C.3    73  ARG73       0.1597
     18  C         23.0410  -46.9350  -31.7970 C.2    73  ARG73       0.2287
     19  O         23.8280  -46.1160  -31.2850 O.2    73  ARG73      -0.2864
     20  CB        21.2160  -47.9020  -30.4100 C.3    73  ARG73       0.0334
     21  CG        20.5470  -49.1060  -29.7950 C.3    73  ARG73       0.0492
     22  CD        19.4090  -48.7570  -28.8220 C.3    73  ARG73       0.2205
     23  NE        20.1490  -48.2880  -27.6410 N.pl3  73  ARG73      -0.0865
     24  CZ        19.8430  -48.5120  -26.3810 C.cat  73  ARG73       0.5346
     25  NH1       18.7420  -49.1690  -26.0840 N.pl3  73  ARG73       0.1354
     26  NH2       20.6650  -48.0660  -25.4170 N.pl3  73  ARG73       0.1354
     27  N         22.6560  -43.8070  -29.8900 N.3    76  ASP76      -0.1239
     28  CA        23.5760  -43.5750  -28.7820 C.3    76  ASP76       0.1674
     29  C         24.7840  -42.7860  -29.1890 C.2    76  ASP76       0.2266
     30  O         25.6850  -42.5780  -28.3680 O.2    76  ASP76      -0.2867
     31  CB        24.0670  -44.8920  -28.1520 C.3    76  ASP76       0.1410
     32  CG        22.9840  -45.6330  -27.4330 C.2    76  ASP76       0.3668
     33  OD1       22.2450  -44.9770  -26.6590 O.co2  76  ASP76      -0.2456
     34  OD2       22.8380  -46.8730  -27.6660 O.co2  76  ASP76      -0.2456
     35  N         26.3310  -53.6370  -33.0640 N.3   103  ASN103     -0.1225
     36  CA        24.9460  -53.2410  -33.0030 C.3   103  ASN103      0.1785
     37  C         24.1070  -54.3490  -33.6290 C.2   103  ASN103      0.2597
     38  O         24.5380  -55.0240  -34.5570 O.2   103  ASN103     -0.2718
     39  CB        24.8240  -51.9340  -33.7780 C.3   103  ASN103      0.1169
     40  CG        23.4210  -51.2590  -33.7180 C.2   103  ASN103      0.2627
     41  OD1       22.4550  -51.7090  -33.1070 O.2   103  ASN103     -0.2716
     42  ND2       23.3730  -50.0970  -34.3200 N.am  103  ASN103     -0.0877
     43  N         22.9290  -54.5280  -33.1230 N.am  104  ASP104     -0.1974
     44  CA        21.9730  -55.4640  -33.7010 C.3   104  ASP104      0.1709
     45  C         21.3580  -54.9640  -35.0080 C.2   104  ASP104      0.2293
     46  O         20.8420  -55.7540  -35.7800 O.2   104  ASP104     -0.2864
     47  CB        20.8590  -55.8080  -32.6740 C.3   104  ASP104      0.1436
     48  CG        20.0470  -54.6080  -32.2410 C.2   104  ASP104      0.3671
     49  OD1       20.6000  -53.5770  -31.7590 O.co2 104  ASP104     -0.2456
     50  OD2       18.8090  -54.7140  -32.3790 O.co2 104  ASP104     -0.2456
     51  N         21.3120  -62.6430  -31.7980 N.3   135  TRP135     -0.1241
     52  CA        20.7400  -61.5870  -30.9840 C.3   135  TRP135      0.1605
     53  C         19.3230  -61.8890  -30.5420 C.2   135  TRP135      0.2264
     54  O         19.0160  -61.8100  -29.3560 O.2   135  TRP135     -0.2867
     55  CB        20.7680  -60.2710  -31.7820 C.3   135  TRP135      0.0550
     56  CG        20.1550  -59.1280  -31.0700 C.ar  135  TRP135      0.0003
     57  CD1       18.8740  -58.6900  -31.1750 C.ar  135  TRP135      0.0946
     58  CD2       20.7770  -58.3040  -30.0970 C.ar  135  TRP135      0.0152
     59  NE1       18.6440  -57.6640  -30.3090 N.ar  135  TRP135     -0.2442
     60  CE2       19.7970  -57.4130  -29.6160 C.ar  135  TRP135      0.0810
     61  CE3       22.0610  -58.2590  -29.5410 C.ar  135  TRP135      0.0012
     62  CZ2       20.0930  -56.4170  -28.6920 C.ar  135  TRP135      0.0191
     63  CZ3       22.3300  -57.2930  -28.5370 C.ar  135  TRP135      0.0001
     64  CH2       21.3700  -56.3640  -28.1850 C.ar  135  TRP135      0.0015
     65  N         12.7890  -52.9140  -13.5250 N.3   159  GLN159     -0.1231
     66  CA        13.2650  -52.2070  -14.6610 C.3   159  GLN159      0.1698
     67  C         13.5280  -53.1230  -15.8800 C.2   159  GLN159      0.2592
     68  O         14.1720  -54.1670  -15.7720 O.2   159  GLN159     -0.2718
     69  CB        14.5220  -51.4530  -14.3050 C.3   159  GLN159      0.0381
     70  CG        14.8220  -50.3540  -15.3150 C.3   159  GLN159      0.0905
     71  CD        16.1350  -49.6260  -15.0240 C.2   159  GLN159      0.2608
     72  OE1       17.0980  -50.2040  -14.5050 O.2   159  GLN159     -0.2717
     73  NE2       16.1750  -48.3610  -15.3730 N.am  159  GLN159     -0.0878
     74  N         13.0270  -52.6640  -17.0150 N.am  160  TYR160     -0.1976
     75  CA        13.1690  -53.3090  -18.3090 C.3   160  TYR160      0.1639
     76  C         12.5100  -54.6670  -18.4710 C.2   160  TYR160      0.2290
     77  O         12.8320  -55.4170  -19.4240 O.2   160  TYR160     -0.2864
     78  CB        14.6560  -53.4900  -18.6600 C.3   160  TYR160      0.0560
     79  CG        15.5850  -52.2940  -18.5730 C.ar  160  TYR160     -0.0198
     80  CD1       15.4310  -51.1420  -19.3750 C.ar  160  TYR160     -0.0009
     81  CD2       16.6780  -52.3480  -17.7210 C.ar  160  TYR160     -0.0009
     82  CE1       16.3350  -50.0820  -19.3020 C.ar  160  TYR160      0.0417
     83  CE2       17.5870  -51.2870  -17.6320 C.ar  160  TYR160      0.0417
     84  CZ        17.4360  -50.1720  -18.4220 C.ar  160  TYR160      0.1957
     85  OH        18.4330  -49.2130  -18.2600 O.3   160  TYR160     -0.2866
     86  N         14.4260  -56.1160  -26.0430 N.3   165  SER165     -0.1202
     87  CA        15.7870  -55.7610  -26.4770 C.3   165  SER165      0.2020
     88  C         16.8060  -55.8750  -25.2960 C.2   165  SER165      0.2618
     89  O         17.9420  -56.2360  -25.5140 O.2   165  SER165     -0.2717
     90  CB        15.8470  -54.3720  -27.0800 C.3   165  SER165      0.2103
     91  OG        15.5620  -53.4180  -26.1200 O.3   165  SER165     -0.2182
     92  N         16.3530  -55.6000  -24.0830 N.am  166  TYR166     -0.1975
     93  CA        17.1910  -55.6050  -22.9070 C.3   166  TYR166      0.1639
     94  C         17.5350  -57.0060  -22.4960 C.2   166  TYR166      0.2290
     95  O         18.6790  -57.3180  -22.1460 O.2   166  TYR166     -0.2864
     96  CB        16.5320  -54.8690  -21.7340 C.3   166  TYR166      0.0560
     97  CG        17.5180  -54.5740  -20.6260 C.ar  166  TYR166     -0.0198
     98  CD1       18.3520  -53.4420  -20.7100 C.ar  166  TYR166     -0.0009
     99  CD2       17.6710  -55.4530  -19.5440 C.ar  166  TYR166     -0.0009
    100  CE1       19.2670  -53.1850  -19.6990 C.ar  166  TYR166      0.0417
    101  CE2       18.5990  -55.2160  -18.5340 C.ar  166  TYR166      0.0417
    102  CZ        19.4010  -54.0650  -18.6560 C.ar  166  TYR166      0.1957
    103  OH        20.3140  -53.7910  -17.6890 O.3   166  TYR166     -0.2866
    104  N         20.0610  -58.0610  -25.0370 N.3   169  MET169     -0.1245
    105  CA        21.3760  -57.4980  -24.6540 C.3   169  MET169      0.1570
    106  C         22.0580  -58.2770  -23.5440 C.2   169  MET169      0.2261
    107  O         23.2460  -58.6150  -23.6420 O.2   169  MET169     -0.2867
    108  CB        21.2140  -56.0030  -24.3030 C.3   169  MET169      0.0387
    109  CG        22.5590  -55.3040  -23.8850 C.3   169  MET169      0.0595
    110  SD        22.9740  -55.6200  -22.1590 S.3   169  MET169     -0.1393
    111  CE        21.7110  -54.8070  -21.1930 C.3   169  MET169      0.0692
    112  N         25.5540  -60.0710  -24.0860 N.3   173  TYR173     -0.1298
    113  CA        26.7600  -59.6870  -23.3070 C.3   173  TYR173      0.1290
    114  C         27.2460  -60.8370  -22.3890 C.3   173  TYR173      0.2013
    115  O         28.4920  -60.9280  -22.0370 O.3   173  TYR173     -0.2188
    116  CB        26.5880  -58.3480  -22.5240 C.3   173  TYR173      0.0480
    117  CG        27.3330  -57.1710  -23.1190 C.ar  173  TYR173     -0.0204
    118  CD1       28.6740  -57.3070  -23.5170 C.ar  173  TYR173     -0.0009
    119  CD2       26.7830  -55.9250  -23.2080 C.ar  173  TYR173     -0.0009
    120  CE1       29.4040  -56.2630  -24.0380 C.ar  173  TYR173      0.0417
    121  CE2       27.5540  -54.8200  -23.7170 C.ar  173  TYR173      0.0417
    122  CZ        28.8550  -55.0150  -24.1530 C.ar  173  TYR173      0.1957
    123  OH        29.6260  -53.9820  -24.6260 O.3   173  TYR173     -0.2866
    124  N         35.2710  -52.9450  -22.0270 N.3   191  ARG191     -0.1231
    125  CA        33.8950  -52.5940  -22.3100 C.3   191  ARG191      0.1694
    126  C         33.5890  -51.1910  -21.9180 C.2   191  ARG191      0.2592
    127  O         33.8920  -50.7660  -20.7820 O.2   191  ARG191     -0.2718
    128  CB        32.9600  -53.5220  -21.5780 C.3   191  ARG191      0.0321
    129  CG        31.4480  -53.1550  -21.7130 C.3   191  ARG191      0.0489
    130  CD        30.6830  -54.3160  -21.1190 C.3   191  ARG191      0.2205
    131  NE        29.3100  -53.9870  -20.8490 N.pl3 191  ARG191     -0.0865
    132  CZ        28.4760  -54.8790  -20.3390 C.cat 191  ARG191      0.5346
    133  NH1       28.8740  -56.1330  -20.0830 N.pl3 191  ARG191      0.1354
    134  NH2       27.2530  -54.5300  -20.0820 N.pl3 191  ARG191      0.1354
    135  N         33.0360  -50.4580  -22.8720 N.am  192  LEU192     -0.1966
    136  CA        32.6960  -49.0500  -22.7080 C.3   192  LEU192      0.1728
    137  C         31.2010  -48.8820  -22.9980 C.2   192  LEU192      0.2616
    138  O         30.6920  -49.3720  -24.0010 O.2   192  LEU192     -0.2715
    139  CB        33.5300  -48.1780  -23.6810 C.3   192  LEU192      0.0311
    140  CG        33.3550  -46.6730  -23.5540 C.3   192  LEU192      0.0022
    141  CD1       33.9470  -46.1630  -22.2690 C.3   192  LEU192      0.0001
    142  CD2       34.0550  -46.0200  -24.7340 C.3   192  LEU192      0.0001
    143  N         30.4910  -48.1570  -22.1390 N.am  193  GLU193     -0.1964
    144  CA        29.1130  -47.8580  -22.3720 C.3   193  GLU193      0.1718
    145  C         28.9070  -46.3510  -22.6020 C.2   193  GLU193      0.2458
    146  O         29.7250  -45.5460  -22.1840 O.2   193  GLU193     -0.2730
    147  CB        28.2470  -48.3160  -21.2100 C.3   193  GLU193      0.0428
    148  CG        28.1950  -49.8550  -21.0670 C.3   193  GLU193      0.1163
    149  CD        26.9930  -50.3780  -20.2930 C.2   193  GLU193      0.3649
    150  OE1       26.1510  -49.5930  -19.7540 O.co2 193  GLU193     -0.2457
    151  OE2       26.9320  -51.6270  -20.1480 O.co2 193  GLU193     -0.2457
    152  N         27.7560  -45.9810  -23.1350 N.am  194  PRO194     -0.2727
    153  CA        27.4250  -44.5470  -23.2560 C.3   194  PRO194      0.1402
    154  C         27.2470  -43.8410  -21.9040 C.2   194  PRO194      0.2269
    155  O         26.8510  -44.4380  -20.9440 O.2   194  PRO194     -0.2865
    156  CB        26.0860  -44.5360  -24.0060 C.3   194  PRO194      0.0296
    157  CG        26.0190  -45.8720  -24.6890 C.3   194  PRO194      0.0237
    158  CD        26.6850  -46.8150  -23.7450 C.3   194  PRO194      0.0939
    159  N         29.1430  -52.6340  -16.6520 N.3   281  ASN281     -0.1240
    160  CA        29.1950  -51.5580  -17.5860 C.3   281  ASN281      0.1653
    161  C         30.6180  -51.0950  -17.8690 C.2   281  ASN281      0.2266
    162  O         30.9090  -50.6190  -18.9580 O.2   281  ASN281     -0.2867
    163  CB        28.2620  -50.4000  -17.2490 C.3   281  ASN281      0.1155
    164  CG        28.4900  -49.7910  -15.8490 C.2   281  ASN281      0.2627
    165  OD1       29.5530  -49.2500  -15.5230 O.2   281  ASN281     -0.2716
    166  ND2       27.4770  -49.8880  -15.0220 N.am  281  ASN281     -0.0877
    167  N         29.2690  -44.2810  -13.6670 N.3   342  HIS342     -0.1241
    168  CA        28.1060  -44.5990  -14.4530 C.3   342  HIS342      0.1621
    169  C         26.9910  -44.3950  -13.4680 C.2   342  HIS342      0.2264
    170  O         27.0070  -44.9580  -12.3550 O.2   342  HIS342     -0.2867
    171  CB        28.1430  -46.0230  -14.9960 C.3   342  HIS342      0.0745
    172  CG        26.9170  -46.4820  -15.7870 C.ar  342  HIS342      0.0817
    173  ND1       25.6670  -46.6370  -15.2290 N.ar  342  HIS342     -0.2268
    174  CD2       26.8170  -46.9720  -17.0590 C.ar  342  HIS342      0.1154
    175  CE1       24.8310  -47.1170  -16.1390 C.ar  342  HIS342      0.1986
    176  NE2       25.5140  -47.3240  -17.2520 N.ar  342  HIS342     -0.2212
@<TRIPOS>BOND
     1    46    45    2
     2    45    44    1
     3    38    37    2
     4    42    40   am
     5    39    40    1
     6    39    36    1
     7    40    41    2
     8    44    43    1
     9    44    47    1
    10    37    43   am
    11    37    36    1
    12    35    36    1
    13    47    48    1
    14    50    48   ar
    15    48    49   ar
    16    51    52    1
    17    18    19    2
    18    18    17    1
    19    55    56    1
    20    55    52    1
    21    57    56   ar
    22    57    59   ar
    23    12    11    2
    24    56    58   ar
    25    17    20    1
    26    17    16    1
    27    52    53    1
    28    53    54    2
    29    20    21    1
    30    59    60   ar
    31    11    16   am
    32    11    10    1
    33    15    13    1
    34    58    60   ar
    35    58    61   ar
    36    27    28    1
    37    21    22    1
    38    60    62   ar
    39    61    63   ar
    40    29    28    1
    41    29    30    2
    42    13    10    1
    43    13    14    1
    44     9    10    1
    45     9     3   am
    46     7     6    1
    47    22    23    1
    48    28    31    1
    49    62    64   ar
    50    63    64   ar
    51    31    32    1
    52     2     3    1
    53     2     1    1
    54     2     5    1
    55     3     4    2
    56    34    32   ar
    57    23    24    2
    58     6     5    1
    59     6     8    1
    60    32    33   ar
    61    90    87    1
    62    90    91    1
    63    87    86    1
    64    87    88    1
    65    24    25    1
    66    24    26    1
    67    89    88    2
    68    88    92   am
    69   104   105    1
    70   142   140    1
    71   157   156    1
    72   157   158    1
    73   105   108    1
    74   105   106    1
    75   123   122    1
    76   108   109    1
    77   122   120   ar
    78   122   121   ar
    79   112   113    1
    80    92    93    1
    81   120   118   ar
    82   156   153    1
    83   138   137    2
    84   109   110    1
    85   158   152    1
    86   121   119   ar
    87   139   140    1
    88   139   136    1
    89   107   106    2
    90   140   141    1
    91   118   117   ar
    92   113   116    1
    93   113   114    1
    94   153   152    1
    95   153   154    1
    96   119   117   ar
    97   152   145   am
    98   117   116    1
    99   137   136    1
   100   137   143   am
   101    93    94    1
   102    93    96    1
   103   135   136    1
   104   135   126   am
   105   145   144    1
   106   145   146    2
   107    94    95    2
   108   114   115    1
   109   144   143    1
   110   144   147    1
   111   125   124    1
   112   125   126    1
   113   125   128    1
   114   110   111    1
   115   126   127    2
   116   154   155    2
   117    96    97    1
   118   129   128    1
   119   129   130    1
   120   147   148    1
   121   130   131    1
   122   148   149    1
   123   131   132    2
   124    98    97   ar
   125    98   100   ar
   126    97    99   ar
   127   132   133    1
   128   132   134    1
   129   149   151   ar
   130   149   150   ar
   131   100   102   ar
   132    99   101   ar
   133    77    76    2
   134    80    82   ar
   135    80    79   ar
   136    82    84   ar
   137   162   161    2
   138    78    79    1
   139    78    75    1
   140   102   101   ar
   141   102   103    1
   142    79    81   ar
   143    76    75    1
   144    84    85    1
   145    84    83   ar
   146    75    74    1
   147   161   160    1
   148    81    83   ar
   149   160   163    1
   150   160   159    1
   151   176   174   ar
   152   176   175   ar
   153   163   164    1
   154   174   172   ar
   155    74    67   am
   156   175   173   ar
   157    67    68    2
   158    67    66    1
   159   164   165    2
   160   164   166   am
   161   172   173   ar
   162   172   171    1
   163    73    71   am
   164    70    71    1
   165    70    69    1
   166    71    72    2
   167   171   168    1
   168    66    69    1
   169    66    65    1
   170   168   167    1
   171   168   169    1
   172   169   170    2
