@<TRIPOS>MOLECULE
tmp/5a09A02.pdb
 146 144 0 0 0
SMALL
GASTEIGER

@<TRIPOS>ATOM
      1  N         -8.1400   29.5420   -8.2850 N.3    41  HIS41      -0.1241
      2  CA        -6.8250   29.9460   -7.8080 C.3    41  HIS41       0.1621
      3  C         -6.1630   28.9300   -6.8480 C.2    41  HIS41       0.2264
      4  O         -4.9510   28.8880   -6.7710 O.2    41  HIS41      -0.2867
      5  CB        -6.8210   31.3980   -7.2560 C.3    41  HIS41       0.0745
      6  CG        -7.3170   31.5360   -5.8450 C.ar   41  HIS41       0.0817
      7  ND1       -8.6260   31.8540   -5.5440 N.ar   41  HIS41      -0.2268
      8  CD2       -6.6720   31.4310   -4.6530 C.ar   41  HIS41       0.1154
      9  CE1       -8.7780   31.8960   -4.2310 C.ar   41  HIS41       0.1986
     10  NE2       -7.6030   31.6580   -3.6690 N.ar   41  HIS41      -0.2212
     11  N        -11.3570   30.7990  -15.8930 N.3    80  TYR80      -0.1241
     12  CA       -10.6070   31.4900  -14.8350 C.3    80  TYR80       0.1605
     13  C         -9.7130   32.5900  -15.4030 C.2    80  TYR80       0.2264
     14  O         -8.9300   32.3420  -16.3040 O.2    80  TYR80      -0.2867
     15  CB        -9.7450   30.4880  -14.0810 C.3    80  TYR80       0.0534
     16  CG        -8.8750   31.0830  -13.0090 C.ar   80  TYR80      -0.0201
     17  CD1       -9.3570   32.0750  -12.1570 C.ar   80  TYR80      -0.0009
     18  CD2       -7.5630   30.6360  -12.8360 C.ar   80  TYR80      -0.0009
     19  CE1       -8.5640   32.6180  -11.1680 C.ar   80  TYR80       0.0417
     20  CE2       -6.7490   31.1840  -11.8440 C.ar   80  TYR80       0.0417
     21  CZ        -7.2570   32.1540  -11.0210 C.ar   80  TYR80       0.1957
     22  OH        -6.4690   32.6950  -10.0300 O.3    80  TYR80      -0.2866
     23  N         -7.2960   35.2340  -13.7930 N.3    82  PRO82      -0.2116
     24  CA        -6.6290   35.7840  -12.5950 C.3    82  PRO82       0.1372
     25  C         -6.2710   37.2740  -12.6710 C.2    82  PRO82       0.2244
     26  O         -6.3500   37.9550  -11.6260 O.2    82  PRO82      -0.2868
     27  CB        -5.3840   34.8930  -12.4100 C.3    82  PRO82       0.0268
     28  CG        -5.2120   34.1200  -13.7270 C.3    82  PRO82       0.0207
     29  CD        -6.5280   34.1520  -14.4410 C.3    82  PRO82       0.0892
     30  N         -9.4530   38.8530  -11.9300 N.3    85  LEU85      -0.1231
     31  CA       -10.0650   38.2020  -10.7590 C.3    85  LEU85       0.1693
     32  C        -11.4890   37.7000  -11.0460 C.2    85  LEU85       0.2591
     33  O        -12.4270   37.9350  -10.2840 O.2    85  LEU85      -0.2718
     34  CB       -10.0040   39.1060   -9.5190 C.3    85  LEU85       0.0284
     35  CG        -8.5570   39.4900   -9.1590 C.3    85  LEU85       0.0019
     36  CD1       -8.3120   40.9250   -9.5580 C.3    85  LEU85       0.0001
     37  CD2       -8.2360   39.2960   -7.7000 C.3    85  LEU85       0.0001
     38  N        -11.6190   36.9940  -12.1620 N.am   86  LEU86      -0.1980
     39  CA       -12.9180   36.5720  -12.6630 C.3    86  LEU86       0.1596
     40  C        -13.0110   35.0620  -12.8370 C.2    86  LEU86       0.2287
     41  O        -12.0030   34.4180  -13.1350 O.2    86  LEU86      -0.2864
     42  CB       -13.2070   37.2610  -14.0020 C.3    86  LEU86       0.0297
     43  CG       -13.5560   38.7570  -13.8470 C.3    86  LEU86       0.0022
     44  CD1      -13.7950   39.3430  -15.2020 C.3    86  LEU86       0.0001
     45  CD2      -14.7720   38.9620  -12.9810 C.3    86  LEU86       0.0001
     46  N        -13.6040   32.5490  -10.7850 N.3    88  ASP88      -0.1239
     47  CA       -12.7270   31.8650   -9.8490 C.3    88  ASP88       0.1674
     48  C        -13.4070   30.6260   -9.2530 C.2    88  ASP88       0.2266
     49  O        -13.5870   30.5150   -8.0350 O.2    88  ASP88      -0.2867
     50  CB       -12.2540   32.8210   -8.7590 C.3    88  ASP88       0.1410
     51  CG       -11.1450   32.2360   -7.9320 C.2    88  ASP88       0.3668
     52  OD1      -10.6070   31.1920   -8.3280 O.co2  88  ASP88      -0.2456
     53  OD2      -10.7490   32.7430   -6.8630 O.co2  88  ASP88      -0.2456
     54  N        -12.4060   36.4140    6.0520 N.3   168  VAL168     -0.1231
     55  CA       -11.6920   35.2450    5.5750 C.3   168  VAL168      0.1692
     56  C        -10.2010   35.5580    5.4600 C.2   168  VAL168      0.2592
     57  O         -9.8000   36.7220    5.4460 O.2   168  VAL168     -0.2718
     58  CB       -12.2310   34.7460    4.2010 C.3   168  VAL168      0.0266
     59  CG1      -13.7460   34.5160    4.2680 C.3   168  VAL168      0.0020
     60  CG2      -11.9080   35.7450    3.0650 C.3   168  VAL168      0.0020
     61  N         -9.3910   34.5050    5.3790 N.am  169  CYS169     -0.1956
     62  CA        -7.9620   34.6590    5.3610 C.3   169  CYS169      0.1843
     63  C         -7.3170   33.5390    4.5670 C.2   169  CYS169      0.2625
     64  O         -7.9990   32.6650    4.0140 O.2   169  CYS169     -0.2714
     65  CB        -7.4040   34.7840    6.7910 C.3   169  CYS169      0.0997
     66  SG        -5.8340   35.7610    6.8030 S.3   169  CYS169     -0.0797
     67  N         -5.9950   33.5850    4.4710 N.am  170  PHE170     -0.1960
     68  CA        -5.2650   32.6420    3.6590 C.3   170  PHE170      0.1771
     69  C         -5.5550   31.2320    4.1090 C.2   170  PHE170      0.2620
     70  O         -5.4960   30.9300    5.2980 O.2   170  PHE170     -0.2715
     71  CB        -3.7730   32.9620    3.7740 C.3   170  PHE170      0.0574
     72  CG        -3.4350   34.3260    3.2410 C.ar  170  PHE170     -0.0200
     73  CD1       -3.3040   34.5190    1.8700 C.ar  170  PHE170     -0.0042
     74  CD2       -3.2830   35.4140    4.1030 C.ar  170  PHE170     -0.0042
     75  CE1       -2.9930   35.7740    1.3470 C.ar  170  PHE170     -0.0003
     76  CE2       -2.9940   36.7010    3.5910 C.ar  170  PHE170     -0.0003
     77  CZ        -2.8450   36.8740    2.2130 C.ar  170  PHE170     -0.0000
     78  N         -5.8710   30.3640    3.1650 N.am  171  GLY171     -0.1940
     79  CA        -6.2570   29.0060    3.5130 C.3   171  GLY171      0.2014
     80  C         -7.7660   28.8340    3.4850 C.2   171  GLY171      0.2639
     81  O         -8.2650   27.6960    3.3840 O.2   171  GLY171     -0.2714
     82  N         -8.4990   29.9580    3.5700 N.am  172  ASP172     -0.1957
     83  CA        -9.9520   29.9150    3.3880 C.3   172  ASP172      0.1840
     84  C        -10.3380   29.9120    1.9260 C.2   172  ASP172      0.2622
     85  O        -11.5080   29.6830    1.6000 O.2   172  ASP172     -0.2715
     86  CB       -10.6330   31.0790    4.0690 C.3   172  ASP172      0.1450
     87  CG       -10.4940   31.0330    5.5540 C.2   172  ASP172      0.3671
     88  OD1      -10.6570   29.9370    6.1240 O.co2 172  ASP172     -0.2456
     89  OD2      -10.2000   32.0380    6.2340 O.co2 172  ASP172     -0.2456
     90  N         -9.3780   30.2100    1.0550 N.am  173  SER173     -0.1950
     91  CA        -9.5610   30.0630   -0.3910 C.3   173  SER173      0.1924
     92  C        -10.3500   28.8060   -0.7780 C.2   173  SER173      0.2314
     93  O        -10.0280   27.6910   -0.3490 O.2   173  SER173     -0.2863
     94  CB        -8.1990   30.0140   -1.0680 C.3   173  SER173      0.2116
     95  OG        -7.5330   31.2460   -0.9450 O.3   173  SER173     -0.2180
     96  N        -14.8850   31.3620   -1.5880 N.3   187  ALA187     -0.1231
     97  CA       -13.9250   32.4130   -1.1780 C.3   187  ALA187      0.1694
     98  C        -12.8830   32.6160   -2.2660 C.2   187  ALA187      0.2593
     99  O        -12.2240   31.6460   -2.6740 O.2   187  ALA187     -0.2718
    100  CB       -13.2800   32.0430    0.1330 C.3   187  ALA187      0.0304
    101  N        -12.7960   33.8540   -2.7720 N.am  188  SER188     -0.1938
    102  CA       -11.9450   34.1670   -3.9130 C.3   188  SER188      0.2055
    103  C        -10.7840   35.1050   -3.5580 C.2   188  SER188      0.2643
    104  O         -9.6190   34.7490   -3.7790 O.2   188  SER188     -0.2714
    105  CB       -12.7790   34.7080   -5.0970 C.3   188  SER188      0.2130
    106  OG       -11.9390   35.0250   -6.2140 O.3   188  SER188     -0.2179
    107  N        -11.0750   36.2790   -3.0020 N.am  189  PHE189     -0.1959
    108  CA        -9.9770   37.2100   -2.6840 C.3   189  PHE189      0.1771
    109  C        -10.2950   38.2660   -1.6610 C.2   189  PHE189      0.2619
    110  O        -11.4720   38.6340   -1.4330 O.2   189  PHE189     -0.2715
    111  CB        -9.3670   37.8450   -3.9600 C.3   189  PHE189      0.0574
    112  CG       -10.2970   38.7810   -4.6890 C.ar  189  PHE189     -0.0200
    113  CD1      -11.1400   38.2950   -5.6980 C.ar  189  PHE189     -0.0042
    114  CD2      -10.2940   40.1580   -4.4070 C.ar  189  PHE189     -0.0042
    115  CE1      -11.9880   39.1530   -6.4200 C.ar  189  PHE189     -0.0003
    116  CE2      -11.1480   41.0330   -5.0950 C.ar  189  PHE189     -0.0003
    117  CZ       -12.0190   40.5210   -6.1070 C.ar  189  PHE189     -0.0000
    118  N         -9.2330   38.7340   -1.0070 N.am  190  VAL190     -0.1977
    119  CA        -9.3330   39.8420   -0.0810 C.3   190  VAL190      0.1596
    120  C         -8.5360   41.0260   -0.5940 C.2   190  VAL190      0.2287
    121  O         -7.6990   40.8970   -1.4880 O.2   190  VAL190     -0.2864
    122  CB        -8.8710   39.4690    1.3520 C.3   190  VAL190      0.0276
    123  CG1       -9.7380   38.2960    1.8590 C.3   190  VAL190      0.0022
    124  CG2       -7.3970   39.1370    1.3600 C.3   190  VAL190      0.0022
    125  N         -6.1210   40.4420    5.2190 N.3   194  CYS194     -0.1235
    126  CA        -7.2610   39.8450    5.9000 C.3   194  CYS194      0.1677
    127  C         -7.8340   40.7550    6.9480 C.2   194  CYS194      0.2270
    128  O         -7.0790   41.3490    7.7290 O.2   194  CYS194     -0.2867
    129  CB        -6.8560   38.5560    6.6120 C.3   194  CYS194      0.0956
    130  SG        -5.9690   37.4080    5.5710 S.3   194  CYS194     -0.0801
    131  N        -14.2450   39.0150   -1.2030 N.3   202  ALA202     -0.1231
    132  CA       -14.8910   38.7220   -2.4650 C.3   202  ALA202      0.1694
    133  C        -14.9960   37.2100   -2.6840 C.2   202  ALA202      0.2592
    134  O        -14.0480   36.4420   -2.4200 O.2   202  ALA202     -0.2718
    135  CB       -14.1430   39.3840   -3.6060 C.3   202  ALA202      0.0304
    136  N        -16.1490   36.7860   -3.1940 N.am  203  PHE203     -0.1976
    137  CA       -16.4070   35.3620   -3.3930 C.3   203  PHE203      0.1639
    138  C        -16.8610   35.1790   -4.8310 C.2   203  PHE203      0.2290
    139  O        -17.4950   36.0690   -5.4250 O.2   203  PHE203     -0.2864
    140  CB       -17.5430   34.8550   -2.4710 C.3   203  PHE203      0.0560
    141  CG       -17.2070   34.8700   -0.9960 C.ar  203  PHE203     -0.0200
    142  CD1      -17.2720   36.0620   -0.2550 C.ar  203  PHE203     -0.0042
    143  CD2      -16.8830   33.6800   -0.3310 C.ar  203  PHE203     -0.0042
    144  CE1      -16.9750   36.0650    1.1030 C.ar  203  PHE203     -0.0003
    145  CE2      -16.5860   33.6630    1.0450 C.ar  203  PHE203     -0.0003
    146  CZ       -16.6290   34.8500    1.7590 C.ar  203  PHE203     -0.0000
@<TRIPOS>BOND
     1    14    13    2
     2    11    12    1
     3    13    12    1
     4    44    43    1
     5    12    15    1
     6    29    23    1
     7    29    28    1
     8    15    16    1
     9    42    43    1
    10    42    39    1
    11    43    45    1
    12    23    24    1
    13    28    27    1
    14    41    40    2
    15    16    18   ar
    16    16    17   ar
    17    40    39    1
    18    18    20   ar
    19    25    24    1
    20    25    26    2
    21    39    38    1
    22    24    27    1
    23    38    32   am
    24    17    19   ar
    25    30    31    1
    26    20    21   ar
    27    19    21   ar
    28    32    31    1
    29    32    33    2
    30    21    22    1
    31    46    47    1
    32    31    34    1
    33    47    48    1
    34    47    50    1
    35    36    35    1
    36    34    35    1
    37    48    49    2
    38    35    37    1
    39    50    51    1
    40    52    51   ar
    41     1     2    1
    42    51    53   ar
    43     2     5    1
    44     2     3    1
    45     5     6    1
    46     3     4    2
    47   115   117   ar
    48   115   113   ar
    49   106   105    1
    50   117   116   ar
    51     6     7   ar
    52     6     8   ar
    53   113   112   ar
    54     7     9   ar
    55   139   138    2
    56   105   102    1
    57   116   114   ar
    58   138   137    1
    59   112   114   ar
    60   112   111    1
    61     8    10   ar
    62     9    10   ar
    63   111   108    1
    64   102   103    1
    65   102   101    1
    66   104   103    2
    67   135   132    1
    68   103   107   am
    69   137   136    1
    70   137   140    1
    71   136   133   am
    72   107   108    1
    73   101    98   am
    74   133   132    1
    75   133   134    2
    76   108   109    1
    77    99    98    2
    78   140   141    1
    79   132   131    1
    80    98    97    1
    81   109   110    2
    82   109   118   am
    83    96    97    1
    84   121   120    2
    85    97   100    1
    86    94    95    1
    87    94    91    1
    88   118   119    1
    89   141   143   ar
    90   141   142   ar
    91    92    91    1
    92    92    93    2
    93   120   119    1
    94    91    90    1
    95   143   145   ar
    96   142   144   ar
    97   119   122    1
    98   145   146   ar
    99    90    84   am
   100   144   146   ar
   101    75    73   ar
   102    75    77   ar
   103   122   124    1
   104   122   123    1
   105    85    84    2
   106    73    72   ar
   107    84    83    1
   108    77    76   ar
   109    60    58    1
   110    78    79    1
   111    78    69   am
   112    72    71    1
   113    72    74   ar
   114    81    80    2
   115    83    82    1
   116    83    86    1
   117    80    79    1
   118    80    82   am
   119    76    74   ar
   120    68    71    1
   121    68    69    1
   122    68    67    1
   123    64    63    2
   124    86    87    1
   125    69    70    2
   126    58    59    1
   127    58    55    1
   128    67    63   am
   129    63    62    1
   130   125   126    1
   131    62    61    1
   132    62    65    1
   133    61    56   am
   134    57    56    2
   135    56    55    1
   136    87    88   ar
   137    87    89   ar
   138   130   129    1
   139   130    66    1
   140    55    54    1
   141   126   129    1
   142   126   127    1
   143    65    66    1
   144   127   128    2
