@<TRIPOS>MOLECULE
tmp/5a0aA00.pdb
 127 124 0 0 0
SMALL
GASTEIGER

@<TRIPOS>ATOM
      1  N         -8.3160   29.5540   -8.3420 N.3    41  HIS41      -0.1241
      2  CA        -6.9760   29.9730   -7.9070 C.3    41  HIS41       0.1621
      3  C         -6.3090   28.9750   -6.9530 C.2    41  HIS41       0.2264
      4  O         -5.1020   28.9830   -6.8180 O.2    41  HIS41      -0.2867
      5  CB        -6.9770   31.3980   -7.3390 C.3    41  HIS41       0.0745
      6  CG        -7.3880   31.5090   -5.8960 C.ar   41  HIS41       0.0817
      7  ND1       -8.6750   31.8110   -5.5180 N.ar   41  HIS41      -0.2268
      8  CD2       -6.6730   31.4130   -4.7460 C.ar   41  HIS41       0.1154
      9  CE1       -8.7490   31.8770   -4.2030 C.ar   41  HIS41       0.1986
     10  NE2       -7.5400   31.6570   -3.7100 N.ar   41  HIS41      -0.2212
     11  N        -11.5040   30.9160  -15.8080 N.3    80  TYR80      -0.1241
     12  CA       -10.8430   31.6460  -14.7400 C.3    80  TYR80       0.1605
     13  C         -9.9220   32.6980  -15.3500 C.2    80  TYR80       0.2264
     14  O         -9.0480   32.3850  -16.1810 O.2    80  TYR80      -0.2867
     15  CB       -10.0480   30.7160  -13.8180 C.3    80  TYR80       0.0534
     16  CG        -9.1900   31.4230  -12.7910 C.ar   80  TYR80      -0.0201
     17  CD1       -9.7070   32.4650  -12.0240 C.ar   80  TYR80      -0.0009
     18  CD2       -7.8430   31.0520  -12.5870 C.ar   80  TYR80      -0.0009
     19  CE1       -8.9230   33.1310  -11.0820 C.ar   80  TYR80       0.0417
     20  CE2       -7.0490   31.7150  -11.6260 C.ar   80  TYR80       0.0417
     21  CZ        -7.6050   32.7390  -10.8770 C.ar   80  TYR80       0.1957
     22  OH        -6.8800   33.4390   -9.9210 O.3    80  TYR80      -0.2866
     23  N         -7.4580   35.4220  -13.9830 N.3    82  PRO82      -0.2116
     24  CA        -6.7740   36.0240  -12.8260 C.3    82  PRO82       0.1372
     25  C         -6.4400   37.5110  -13.0180 C.2    82  PRO82       0.2244
     26  O         -6.2680   38.2160  -12.0290 O.2    82  PRO82      -0.2868
     27  CB        -5.4930   35.1770  -12.6570 C.3    82  PRO82       0.0268
     28  CG        -5.2740   34.4390  -14.0120 C.3    82  PRO82       0.0207
     29  CD        -6.6270   34.4150  -14.6810 C.3    82  PRO82       0.0892
     30  N         -9.7580   39.0290  -12.0300 N.3    85  LEU85      -0.1245
     31  CA       -10.3440   38.3640  -10.8520 C.3    85  LEU85       0.1561
     32  C        -11.7650   37.8180  -11.0860 C.2    85  LEU85       0.2260
     33  O        -12.6790   38.0110  -10.2560 O.2    85  LEU85      -0.2867
     34  CB       -10.2800   39.2780   -9.6110 C.3    85  LEU85       0.0270
     35  CG        -8.9000   39.9060   -9.3910 C.3    85  LEU85       0.0019
     36  CD1       -9.0910   41.3900   -9.4420 C.3    85  LEU85       0.0001
     37  CD2       -8.2840   39.4550   -8.0660 C.3    85  LEU85       0.0001
     38  N        -13.7510   32.6450  -10.6560 N.3    88  ASP88      -0.1239
     39  CA       -12.8410   31.9620   -9.7530 C.3    88  ASP88       0.1674
     40  C        -13.4990   30.6760   -9.2050 C.2    88  ASP88       0.2266
     41  O        -13.7790   30.5660   -8.0100 O.2    88  ASP88      -0.2867
     42  CB       -12.3830   32.8750   -8.6120 C.3    88  ASP88       0.1410
     43  CG       -11.1830   32.3020   -7.8710 C.2    88  ASP88       0.3668
     44  OD1      -10.6300   31.2830   -8.3330 O.co2  88  ASP88      -0.2456
     45  OD2      -10.7480   32.7880   -6.8230 O.co2  88  ASP88      -0.2456
     46  N        -12.3640   36.3860    6.0690 N.3   166  VAL166     -0.1231
     47  CA       -11.6630   35.2080    5.5830 C.3   166  VAL166      0.1692
     48  C        -10.1650   35.5330    5.4550 C.2   166  VAL166      0.2592
     49  O         -9.7670   36.7080    5.4570 O.2   166  VAL166     -0.2718
     50  CB       -12.2390   34.6760    4.2380 C.3   166  VAL166      0.0266
     51  CG1      -13.7190   34.2250    4.4460 C.3   166  VAL166      0.0020
     52  CG2      -12.1150   35.7160    3.1100 C.3   166  VAL166      0.0020
     53  N         -9.3540   34.4910    5.3800 N.am  167  CYS167     -0.1956
     54  CA        -7.9010   34.6640    5.3020 C.3   167  CYS167      0.1843
     55  C         -7.2730   33.5390    4.4770 C.2   167  CYS167      0.2625
     56  O         -7.9770   32.6910    3.9360 O.2   167  CYS167     -0.2714
     57  CB        -7.2640   34.8190    6.7260 C.3   167  CYS167      0.0997
     58  SG        -5.6980   35.7660    6.7090 S.3   167  CYS167     -0.0797
     59  N         -5.9490   33.5590    4.3470 N.am  168  PHE168     -0.1960
     60  CA        -5.2340   32.5680    3.5320 C.3   168  PHE168      0.1771
     61  C         -5.5330   31.1470    4.0460 C.2   168  PHE168      0.2620
     62  O         -5.5120   30.8980    5.2650 O.2   168  PHE168     -0.2715
     63  CB        -3.7360   32.8790    3.6180 C.3   168  PHE168      0.0574
     64  CG        -3.3880   34.2130    3.0460 C.ar  168  PHE168     -0.0200
     65  CD1       -3.2510   34.3660    1.6690 C.ar  168  PHE168     -0.0042
     66  CD2       -3.2670   35.3390    3.8870 C.ar  168  PHE168     -0.0042
     67  CE1       -2.9370   35.6360    1.1120 C.ar  168  PHE168     -0.0003
     68  CE2       -2.9600   36.5870    3.3610 C.ar  168  PHE168     -0.0003
     69  CZ        -2.8040   36.7440    1.9680 C.ar  168  PHE168     -0.0000
     70  N         -5.8230   30.2330    3.1280 N.am  169  GLY169     -0.1940
     71  CA        -6.2460   28.8910    3.5120 C.3   169  GLY169      0.2014
     72  C         -7.7700   28.7430    3.4900 C.2   169  GLY169      0.2639
     73  O         -8.2730   27.6110    3.4360 O.2   169  GLY169     -0.2714
     74  N         -8.4880   29.8670    3.5480 N.am  170  ASP170     -0.1957
     75  CA        -9.9500   29.8420    3.3810 C.3   170  ASP170      0.1840
     76  C        -10.3810   29.8550    1.9180 C.2   170  ASP170      0.2622
     77  O        -11.5730   29.6010    1.6170 O.2   170  ASP170     -0.2715
     78  CB       -10.6300   31.0130    4.0780 C.3   170  ASP170      0.1450
     79  CG       -10.4370   30.9910    5.5620 C.2   170  ASP170      0.3671
     80  OD1      -10.5850   29.8880    6.1310 O.co2 170  ASP170     -0.2456
     81  OD2      -10.1500   32.0300    6.2380 O.co2 170  ASP170     -0.2456
     82  N         -9.4410   30.2060    1.0380 N.am  171  SER171     -0.1950
     83  CA        -9.5980   30.0460   -0.3970 C.3   171  SER171      0.1924
     84  C        -10.3850   28.7580   -0.7450 C.2   171  SER171      0.2314
     85  O        -10.0370   27.6530   -0.2890 O.2   171  SER171     -0.2863
     86  CB        -8.1860   29.9680   -1.0420 C.3   171  SER171      0.2116
     87  OG        -7.5270   31.2220   -1.0170 O.3   171  SER171     -0.2180
     88  N        -15.0030   31.3360   -1.5530 N.3   185  ALA185     -0.1231
     89  CA       -14.0240   32.3860   -1.1730 C.3   185  ALA185      0.1694
     90  C        -12.9180   32.6160   -2.2160 C.2   185  ALA185      0.2593
     91  O        -12.1610   31.6810   -2.6210 O.2   185  ALA185     -0.2718
     92  CB       -13.4190   32.1290    0.2380 C.3   185  ALA185      0.0304
     93  N        -12.8200   33.8770   -2.6330 N.am  186  SER186     -0.1938
     94  CA       -12.0220   34.1960   -3.7960 C.3   186  SER186      0.2055
     95  C        -10.8970   35.1360   -3.4690 C.2   186  SER186      0.2643
     96  O         -9.7590   34.7730   -3.6810 O.2   186  SER186     -0.2714
     97  CB       -12.8750   34.7550   -4.9300 C.3   186  SER186      0.2130
     98  OG       -12.0240   35.0830   -6.0310 O.3   186  SER186     -0.2179
     99  N        -11.1830   36.3450   -2.9700 N.am  187  PHE187     -0.1959
    100  CA       -10.0260   37.2040   -2.6400 C.3   187  PHE187      0.1771
    101  C        -10.3180   38.2560   -1.5920 C.2   187  PHE187      0.2619
    102  O        -11.4620   38.6570   -1.3930 O.2   187  PHE187     -0.2715
    103  CB        -9.3950   37.8410   -3.8960 C.3   187  PHE187      0.0574
    104  CG       -10.3280   38.7760   -4.6450 C.ar  187  PHE187     -0.0200
    105  CD1      -11.1660   38.2930   -5.6760 C.ar  187  PHE187     -0.0042
    106  CD2      -10.3620   40.1420   -4.3260 C.ar  187  PHE187     -0.0042
    107  CE1      -12.0540   39.1570   -6.3660 C.ar  187  PHE187     -0.0003
    108  CE2      -11.2560   41.0300   -4.9910 C.ar  187  PHE187     -0.0003
    109  CZ       -12.0800   40.5580   -6.0270 C.ar  187  PHE187     -0.0000
    110  N         -9.2470   38.6780   -0.9180 N.am  188  VAL188     -0.1977
    111  CA        -9.2990   39.7880    0.0160 C.3   188  VAL188      0.1596
    112  C         -8.5700   41.0050   -0.5740 C.2   188  VAL188      0.2287
    113  O         -7.8570   40.8880   -1.5690 O.2   188  VAL188     -0.2864
    114  CB        -8.7450   39.4030    1.4160 C.3   188  VAL188      0.0276
    115  CG1       -9.5080   38.1750    1.9440 C.3   188  VAL188      0.0022
    116  CG2       -7.2130   39.1740    1.4030 C.3   188  VAL188      0.0022
    117  N         -5.9750   40.3930    5.3020 N.3   192  CYS192     -0.1235
    118  CA        -7.1520   39.8100    5.9210 C.3   192  CYS192      0.1677
    119  C         -7.7200   40.7260    6.9890 C.2   192  CYS192      0.2270
    120  O         -6.9570   41.3440    7.7690 O.2   192  CYS192     -0.2867
    121  CB        -6.8170   38.4650    6.5610 C.3   192  CYS192      0.0956
    122  SG        -5.9110   37.3800    5.4840 S.3   192  CYS192     -0.0801
    123  N        -14.2860   39.0760   -1.1370 N.3   200  ALA200     -0.1245
    124  CA       -14.9450   38.7390   -2.3970 C.3   200  ALA200      0.1562
    125  C        -15.0370   37.2290   -2.5840 C.2   200  ALA200      0.2260
    126  O        -14.0740   36.5100   -2.3480 O.2   200  ALA200     -0.2867
    127  CB       -14.1900   39.3520   -3.5720 C.3   200  ALA200      0.0290
@<TRIPOS>BOND
     1    14    13    2
     2    11    12    1
     3    13    12    1
     4    12    15    1
     5    29    28    1
     6    29    23    1
     7    28    27    1
     8    23    24    1
     9    15    16    1
    10    25    24    1
    11    25    26    2
    12    24    27    1
    13    16    18   ar
    14    16    17   ar
    15    18    20   ar
    16    30    31    1
    17    17    19   ar
    18    20    21   ar
    19    32    31    1
    20    32    33    2
    21    19    21   ar
    22    21    22    1
    23    31    34    1
    24    38    39    1
    25    39    40    1
    26    39    42    1
    27    34    35    1
    28    36    35    1
    29    35    37    1
    30    40    41    2
    31    42    43    1
    32     1     2    1
    33    44    43   ar
    34     2     5    1
    35     2     3    1
    36    43    45   ar
    37     5     6    1
    38     3     4    2
    39   107   109   ar
    40   107   105   ar
    41    98    97    1
    42   109   108   ar
    43     6     7   ar
    44     6     8   ar
    45   105   104   ar
    46     7     9   ar
    47   108   106   ar
    48    97    94    1
    49     8    10   ar
    50   104   106   ar
    51   104   103    1
    52     9    10   ar
    53   103   100    1
    54    94    95    1
    55    94    93    1
    56    96    95    2
    57   127   124    1
    58    95    99   am
    59    99   100    1
    60   100   101    1
    61    93    90   am
    62    91    90    2
    63   125   124    1
    64   125   126    2
    65   124   123    1
    66    90    89    1
    67   101   102    2
    68   101   110   am
    69   113   112    2
    70    88    89    1
    71    89    92    1
    72    86    87    1
    73    86    83    1
    74   110   111    1
    75    84    83    1
    76    84    85    2
    77   112   111    1
    78    83    82    1
    79   111   114    1
    80    82    76   am
    81    67    65   ar
    82    67    69   ar
    83   116   114    1
    84   114   115    1
    85    77    76    2
    86    65    64   ar
    87    76    75    1
    88    69    68   ar
    89    64    63    1
    90    64    66   ar
    91    52    50    1
    92    70    71    1
    93    70    61   am
    94    68    66   ar
    95    75    74    1
    96    75    78    1
    97    73    72    2
    98    72    71    1
    99    72    74   am
   100    60    63    1
   101    60    61    1
   102    60    59    1
   103    56    55    2
   104    61    62    2
   105    78    79    1
   106    50    51    1
   107    50    47    1
   108    59    55   am
   109    55    54    1
   110   117   118    1
   111    54    53    1
   112    54    57    1
   113    53    48   am
   114    48    49    2
   115    48    47    1
   116   122   121    1
   117   122    58    1
   118    79    80   ar
   119    79    81   ar
   120    47    46    1
   121   118   121    1
   122   118   119    1
   123    58    57    1
   124   119   120    2
