@<TRIPOS>MOLECULE
tmp/5a0bA02.pdb
 157 154 0 0 0
SMALL
GASTEIGER

@<TRIPOS>ATOM
      1  N        -17.7340   -3.7970   24.5950 N.3    41  HIS41      -0.1241
      2  CA       -16.9220   -2.7530   23.9930 C.3    41  HIS41       0.1621
      3  C        -17.3290   -2.4610   22.5600 C.2    41  HIS41       0.2264
      4  O        -17.0580   -1.3560   22.0810 O.2    41  HIS41      -0.2867
      5  CB       -15.3740   -3.0150   24.1190 C.3    41  HIS41       0.0745
      6  CG       -14.7820   -3.8330   23.0010 C.ar   41  HIS41       0.0817
      7  ND1      -14.3600   -5.1400   23.1630 N.ar   41  HIS41      -0.2268
      8  CD2      -14.5040   -3.5060   21.7110 C.ar   41  HIS41       0.1154
      9  CE1      -13.8480   -5.5850   22.0230 C.ar   41  HIS41       0.1986
     10  NE2      -13.9040   -4.6020   21.1320 N.ar   41  HIS41      -0.2212
     11  N        -19.6470   -4.2360   32.9570 N.3    80  TYR80      -0.1227
     12  CA       -18.7150   -3.8220   31.9460 C.3    80  TYR80       0.1736
     13  C        -17.7950   -2.6810   32.4330 C.2    80  TYR80       0.2595
     14  O        -18.2650   -1.6280   32.8650 O.2    80  TYR80      -0.2718
     15  CB       -19.4980   -3.3300   30.7260 C.3    80  TYR80       0.0548
     16  CG       -18.6290   -2.6650   29.6410 C.ar   80  TYR80      -0.0200
     17  CD1      -17.4940   -3.2890   29.1570 C.ar   80  TYR80      -0.0009
     18  CD2      -18.9910   -1.4080   29.0970 C.ar   80  TYR80      -0.0009
     19  CE1      -16.6980   -2.6900   28.1660 C.ar   80  TYR80       0.0417
     20  CE2      -18.2240   -0.8200   28.1330 C.ar   80  TYR80       0.0417
     21  CZ       -17.0820   -1.4670   27.6630 C.ar   80  TYR80       0.1957
     22  OH       -16.3470   -0.8730   26.6980 O.3    80  TYR80      -0.2866
     23  N        -16.4900   -2.9160   32.3490 N.am   81  ASP81      -0.1960
     24  CA       -15.4760   -2.0050   32.8860 C.3    81  ASP81       0.1825
     25  C        -14.3650   -1.8920   31.8420 C.2    81  ASP81       0.2469
     26  O        -13.4320   -2.7170   31.8130 O.2    81  ASP81      -0.2730
     27  CB       -14.9420   -2.5780   34.1890 C.3    81  ASP81       0.1450
     28  CG       -14.0300   -1.6000   34.9520 C.2    81  ASP81       0.3671
     29  OD1      -14.1370   -0.3470   34.7900 O.co2  81  ASP81      -0.2456
     30  OD2      -13.1980   -2.1200   35.7350 O.co2  81  ASP81      -0.2456
     31  N        -14.4870   -0.9200   30.9350 N.am   82  PRO82      -0.2641
     32  CA       -13.4780   -0.7920   29.8620 C.3    82  PRO82       0.1762
     33  C        -12.0930   -0.4480   30.3770 C.2    82  PRO82       0.2641
     34  O        -11.0990   -0.7640   29.7200 O.2    82  PRO82      -0.2712
     35  CB       -13.9940    0.3460   28.9960 C.2    82  PRO82      -0.0003
     36  CG       -15.2060    0.8400   29.6250 C.2    82  PRO82      -0.0071
     37  CD       -15.5950    0.0310   30.7980 C.3    82  PRO82       0.1204
     38  N        -12.0390    0.1880   31.5450 N.am   83  VAL83      -0.1975
     39  CA       -10.7850    0.7240   32.1170 C.3    83  VAL83       0.1596
     40  C         -9.9020   -0.4460   32.5830 C.2    83  VAL83       0.2287
     41  O         -8.7150   -0.4400   32.3840 O.2    83  VAL83      -0.2864
     42  CB       -11.1210    1.8670   33.1850 C.3    83  VAL83       0.0276
     43  CG1      -10.8330    1.4920   34.6740 C.3    83  VAL83       0.0022
     44  CG2      -10.5100    3.1960   32.7920 C.3    83  VAL83       0.0022
     45  N        -10.6200   -3.6360   31.3740 N.3    85  LEU85      -0.1231
     46  CA       -10.9130   -4.6790   30.3570 C.3    85  LEU85       0.1693
     47  C        -11.6860   -5.8580   30.9740 C.2    85  LEU85       0.2591
     48  O        -11.4070   -7.0410   30.6990 O.2    85  LEU85      -0.2718
     49  CB        -9.6260   -5.1100   29.6200 C.3    85  LEU85       0.0284
     50  CG        -8.6820   -3.9700   29.1640 C.3    85  LEU85       0.0019
     51  CD1       -7.2960   -4.4520   28.7470 C.3    85  LEU85       0.0001
     52  CD2       -9.3220   -3.3200   27.9880 C.3    85  LEU85       0.0001
     53  N        -12.6650   -5.5440   31.8180 N.am   86  LEU86      -0.1980
     54  CA       -13.4060   -6.6230   32.5250 C.3    86  LEU86       0.1596
     55  C        -14.8690   -6.6840   32.1090 C.2    86  LEU86       0.2287
     56  O        -15.4250   -5.6560   31.7130 O.2    86  LEU86      -0.2864
     57  CB       -13.4010   -6.3570   34.0190 C.3    86  LEU86       0.0297
     58  CG       -12.0580   -6.3380   34.7340 C.3    86  LEU86       0.0022
     59  CD1      -12.2560   -5.6240   36.0940 C.3    86  LEU86       0.0001
     60  CD2      -11.5010   -7.7410   34.8710 C.3    86  LEU86       0.0001
     61  N        -16.5560   -7.9240   29.5790 N.3    88  ASP88      -0.1239
     62  CA       -16.7070   -7.3730   28.2210 C.3    88  ASP88       0.1674
     63  C        -17.7160   -8.2300   27.5070 C.2    88  ASP88       0.2266
     64  O        -17.3500   -9.0040   26.6200 O.2    88  ASP88      -0.2867
     65  CB       -15.3970   -7.4230   27.4600 C.3    88  ASP88       0.1410
     66  CG       -15.4180   -6.5590   26.2140 C.2    88  ASP88       0.3668
     67  OD1      -16.4080   -5.7950   25.9690 O.co2  88  ASP88      -0.2456
     68  OD2      -14.4080   -6.6300   25.4730 O.co2  88  ASP88      -0.2456
     69  N         -6.8250  -13.5510   16.7160 N.3   165  VAL165     -0.1231
     70  CA        -7.9640  -12.7160   16.3940 C.3   165  VAL165      0.1692
     71  C         -7.4820  -11.2840   16.1530 C.2   165  VAL165      0.2592
     72  O         -6.4030  -10.8840   16.6100 O.2   165  VAL165     -0.2718
     73  CB        -9.0860  -12.7240   17.5200 C.3   165  VAL165      0.0266
     74  CG1       -9.4960  -14.1320   17.9090 C.3   165  VAL165      0.0020
     75  CG2       -8.6540  -11.9340   18.7870 C.3   165  VAL165      0.0020
     76  N         -8.2740  -10.5030   15.4390 N.am  166  CYS166     -0.1956
     77  CA        -7.8410   -9.1710   15.1040 C.3   166  CYS166      0.1843
     78  C         -9.0330   -8.2090   15.1200 C.2   166  CYS166      0.2625
     79  O        -10.1040   -8.6070   15.5290 O.2   166  CYS166     -0.2714
     80  CB        -7.0690   -9.1920   13.7720 C.3   166  CYS166      0.0997
     81  SG        -5.9870   -7.7290   13.5640 S.3   166  CYS166     -0.0797
     82  N         -8.8500   -6.9500   14.6730 N.am  167  PHE167     -0.1974
     83  CA        -9.9190   -5.9400   14.6720 C.3   167  PHE167      0.1639
     84  C        -11.0670   -6.4870   13.8350 C.2   167  PHE167      0.2290
     85  O        -10.8300   -7.0240   12.7430 O.2   167  PHE167     -0.2864
     86  CB        -9.4020   -4.5860   14.1080 C.3   167  PHE167      0.0560
     87  CG        -8.3160   -3.9320   14.9560 C.ar  167  PHE167     -0.0200
     88  CD1       -6.9570   -4.2340   14.7440 C.ar  167  PHE167     -0.0042
     89  CD2       -8.6410   -2.9810   15.9200 C.ar  167  PHE167     -0.0042
     90  CE1       -5.9610   -3.6380   15.4970 C.ar  167  PHE167     -0.0003
     91  CE2       -7.6670   -2.3750   16.6560 C.ar  167  PHE167     -0.0003
     92  CZ        -6.3070   -2.7120   16.4660 C.ar  167  PHE167     -0.0000
     93  N        -12.9050   -8.9560   14.8900 N.3   169  ASP169     -0.1225
     94  CA       -13.2050  -10.2400   15.5070 C.3   169  ASP169      0.1805
     95  C        -13.8240  -10.0630   16.9060 C.2   169  ASP169      0.2598
     96  O        -14.2900  -11.0260   17.4580 O.2   169  ASP169     -0.2718
     97  CB       -11.9420  -11.1010   15.6110 C.3   169  ASP169      0.1424
     98  CG       -11.4740  -11.6170   14.2580 C.2   169  ASP169      0.3668
     99  OD1      -12.3450  -11.9750   13.4310 O.co2 169  ASP169     -0.2456
    100  OD2      -10.2340  -11.7000   14.0200 O.co2 169  ASP169     -0.2456
    101  N        -13.7480   -8.8590   17.4890 N.am  170  SER170     -0.1952
    102  CA       -14.3040   -8.5730   18.8210 C.3   170  SER170      0.1924
    103  C        -15.7790   -9.0480   18.8710 C.2   170  SER170      0.2314
    104  O        -16.5440   -8.8860   17.8750 O.2   170  SER170     -0.2863
    105  CB       -14.2410   -7.0600   19.0670 C.3   170  SER170      0.2116
    106  OG       -12.8800   -6.6140   19.2450 O.3   170  SER170     -0.2180
    107  N        -14.5940  -12.7890   22.0590 N.3   184  ALA184     -0.1231
    108  CA       -13.3250  -12.1190   21.8190 C.3   184  ALA184      0.1694
    109  C        -13.3030  -10.6890   22.3800 C.2   184  ALA184      0.2593
    110  O        -14.1660   -9.8570   22.0460 O.2   184  ALA184     -0.2718
    111  CB       -12.9580  -12.1770   20.3250 C.3   184  ALA184      0.0304
    112  N        -12.3210  -10.4040   23.2360 N.am  185  SER185     -0.1938
    113  CA       -12.2800   -9.1330   23.9790 C.3   185  SER185      0.2055
    114  C        -11.1120   -8.2380   23.6560 C.2   185  SER185      0.2643
    115  O        -11.3170   -7.0770   23.3160 O.2   185  SER185     -0.2714
    116  CB       -12.3580   -9.3620   25.5130 C.3   185  SER185      0.2130
    117  OG       -12.3000   -8.1160   26.2070 O.3   185  SER185     -0.2179
    118  N         -9.8790   -8.7250   23.7910 N.am  186  PHE186     -0.1959
    119  CA        -8.6850   -7.8690   23.5210 C.3   186  PHE186      0.1771
    120  C         -7.4230   -8.6250   23.1930 C.2   186  PHE186      0.2619
    121  O         -7.2510   -9.7770   23.6110 O.2   186  PHE186     -0.2715
    122  CB        -8.4220   -6.8420   24.6490 C.3   186  PHE186      0.0574
    123  CG        -7.9630   -7.4580   25.9700 C.ar  186  PHE186     -0.0200
    124  CD1       -8.8890   -7.8300   26.9350 C.ar  186  PHE186     -0.0042
    125  CD2       -6.6060   -7.6400   26.2390 C.ar  186  PHE186     -0.0042
    126  CE1       -8.4840   -8.3560   28.1750 C.ar  186  PHE186     -0.0003
    127  CE2       -6.1760   -8.1560   27.4800 C.ar  186  PHE186     -0.0003
    128  CZ        -7.1200   -8.5270   28.4480 C.ar  186  PHE186     -0.0000
    129  N         -6.5330   -7.9700   22.4300 N.am  187  VAL187     -0.1963
    130  CA        -5.2150   -8.5100   22.1040 C.3   187  VAL187      0.1727
    131  C         -4.1240   -7.6490   22.7720 C.2   187  VAL187      0.2616
    132  O         -4.4110   -6.5640   23.2500 O.2   187  VAL187     -0.2715
    133  CB        -4.9500   -8.5470   20.5680 C.3   187  VAL187      0.0290
    134  CG1       -5.9430   -9.4240   19.8210 C.3   187  VAL187      0.0023
    135  CG2       -4.8250   -7.1320   19.9570 C.3   187  VAL187      0.0023
    136  N         -2.8730   -8.1270   22.8300 N.am  188  ARG188     -0.1977
    137  CA        -1.7650   -7.2920   23.3620 C.3   188  ARG188      0.1597
    138  C         -0.5880   -7.4140   22.4420 C.2   188  ARG188      0.2287
    139  O         -0.3770   -8.5010   21.8990 O.2   188  ARG188     -0.2864
    140  CB        -1.3230   -7.7350   24.7640 C.3   188  ARG188      0.0334
    141  CG        -2.2770   -7.2740   25.8550 C.3   188  ARG188      0.0492
    142  CD        -2.0580   -8.0930   27.0920 C.3   188  ARG188      0.2205
    143  NE        -2.5610   -9.4500   26.8880 N.pl3 188  ARG188     -0.0865
    144  CZ        -2.2440  -10.4900   27.6550 C.cat 188  ARG188      0.5346
    145  NH1       -1.3990  -10.3330   28.6710 N.pl3 188  ARG188      0.1354
    146  NH2       -2.7510  -11.6980   27.4000 N.pl3 188  ARG188      0.1354
    147  N         -2.2690   -7.5370   16.9340 N.3   191  CYS191     -0.1235
    148  CA        -2.8000   -8.8490   16.5710 C.3   191  CYS191      0.1677
    149  C         -1.6630   -9.8110   16.1980 C.2   191  CYS191      0.2270
    150  O         -0.7080   -9.4220   15.5310 O.2   191  CYS191     -0.2867
    151  CB        -3.7000   -8.7000   15.3530 C.3   191  CYS191      0.0956
    152  SG        -4.9870   -7.3540   15.4120 S.3   191  CYS191     -0.0801
    153  N         -7.3680  -12.5840   24.5540 N.3   199  ALA199     -0.1245
    154  CA        -8.1430  -12.6010   25.7740 C.3   199  ALA199      0.1562
    155  C         -9.6070  -12.5960   25.3880 C.2   199  ALA199      0.2260
    156  O         -9.9950  -11.8100   24.5810 O.2   199  ALA199     -0.2867
    157  CB        -7.7820  -11.3560   26.7100 C.3   199  ALA199      0.0290
@<TRIPOS>BOND
     1    85    84    2
     2    99    98   ar
     3    81    80    1
     4    81   152    1
     5    80    77    1
     6    84    83    1
     7   100    98   ar
     8    86    83    1
     9    86    87    1
    10    98    97    1
    11    83    82    1
    12    82    78   am
    13    88    87   ar
    14    88    90   ar
    15    93    94    1
    16    87    89   ar
    17    77    78    1
    18    77    76    1
    19    78    79    2
    20   151   152    1
    21   151   148    1
    22    76    71   am
    23    90    92   ar
    24    94    97    1
    25    94    95    1
    26   150   149    2
    27    89    91   ar
    28    71    70    1
    29    71    72    2
    30   149   148    1
    31    70    69    1
    32    70    73    1
    33    92    91   ar
    34   148   147    1
    35    95    96    2
    36    95   101   am
    37   101   102    1
    38    73    74    1
    39    73    75    1
    40   104   103    2
    41   102   103    1
    42   102   105    1
    43   105   106    1
    44   134   133    1
    45   135   133    1
    46   111   108    1
    47   133   130    1
    48    10     8   ar
    49    10     9   ar
    50     8     6   ar
    51   108   107    1
    52   108   109    1
    53   139   138    2
    54     9     7   ar
    55   110   109    2
    56     4     3    2
    57   130   129    1
    58   130   131    1
    59   109   112   am
    60   129   120   am
    61   138   137    1
    62     3     2    1
    63   131   136   am
    64   131   132    2
    65   136   137    1
    66     6     7   ar
    67     6     5    1
    68   120   119    1
    69   120   121    2
    70   112   113    1
    71   115   114    2
    72   137   140    1
    73   119   118    1
    74   119   122    1
    75   114   118   am
    76   114   113    1
    77   113   116    1
    78     2     5    1
    79     2     1    1
    80   153   154    1
    81   156   155    2
    82   122   123    1
    83   140   141    1
    84   155   154    1
    85    68    66   ar
    86   116   117    1
    87   154   157    1
    88   141   142    1
    89    67    66   ar
    90   123   125   ar
    91   123   124   ar
    92    66    65    1
    93   125   127   ar
    94    64    63    2
    95    22    21    1
    96   143   142    1
    97   143   144    2
    98   124   126   ar
    99   146   144    1
   100    65    62    1
   101   127   128   ar
   102    63    62    1
   103   144   145    1
   104    21    20   ar
   105    21    19   ar
   106    52    50    1
   107    20    18   ar
   108    19    17   ar
   109   126   128   ar
   110    62    61    1
   111    51    50    1
   112    35    36    2
   113    35    32    1
   114    18    16   ar
   115    17    16   ar
   116    50    49    1
   117    49    46    1
   118    36    37    1
   119    16    15    1
   120    34    33    2
   121    32    33    1
   122    32    31    1
   123    46    47    1
   124    46    45    1
   125    33    38   am
   126    48    47    2
   127    15    12    1
   128    37    31    1
   129    31    25   am
   130    47    53   am
   131    38    39    1
   132    56    55    2
   133    26    25    2
   134    53    54    1
   135    25    24    1
   136    12    13    1
   137    12    11    1
   138    55    54    1
   139    39    40    1
   140    39    42    1
   141    23    13   am
   142    23    24    1
   143    41    40    2
   144    13    14    2
   145    54    57    1
   146    44    42    1
   147    24    27    1
   148    42    43    1
   149    57    58    1
   150    27    28    1
   151    58    60    1
   152    58    59    1
   153    29    28   ar
   154    28    30   ar
