@<TRIPOS>MOLECULE
tmp/5a0cB01.pdb
 114 112 0 0 0
SMALL
GASTEIGER

@<TRIPOS>ATOM
      1  N         32.4880    7.0950   21.0750 N.3    24  HIS24      -0.1226
      2  CA        31.3060    7.2540   21.8800 C.3    24  HIS24       0.1752
      3  C         30.0320    7.1590   21.0450 C.2    24  HIS24       0.2596
      4  O         29.9480    7.8500   20.0630 O.2    24  HIS24      -0.2718
      5  CB        31.3060    8.6130   22.5670 C.3    24  HIS24       0.0759
      6  CG        30.0630    8.9110   23.3400 C.ar   24  HIS24       0.0818
      7  ND1       29.8680    8.4640   24.6190 N.ar   24  HIS24      -0.2268
      8  CD2       28.9590    9.6270   23.0270 C.ar   24  HIS24       0.1154
      9  CE1       28.6940    8.8880   25.0690 C.ar   24  HIS24       0.1986
     10  NE2       28.0990    9.5440   24.0860 N.ar   24  HIS24      -0.2212
     11  N         29.0540    6.3510   21.4320 N.am   25  PHE25      -0.1962
     12  CA        27.7150    6.3860   20.7250 C.3    25  PHE25       0.1771
     13  C         26.5260    6.5870   21.6710 C.2    25  PHE25       0.2619
     14  O         25.4770    6.9790   21.2340 O.2    25  PHE25      -0.2715
     15  CB        27.4900    5.2090   19.8080 C.3    25  PHE25       0.0574
     16  CG        27.3370    3.9060   20.5230 C.ar   25  PHE25      -0.0200
     17  CD1       28.4380    3.1720   20.8690 C.ar   25  PHE25      -0.0042
     18  CD2       26.0920    3.4800   20.9540 C.ar   25  PHE25      -0.0042
     19  CE1       28.3130    2.0150   21.6140 C.ar   25  PHE25      -0.0003
     20  CE2       25.9250    2.3240   21.6970 C.ar   25  PHE25      -0.0003
     21  CZ        27.0390    1.5990   22.0350 C.ar   25  PHE25      -0.0000
     22  N         26.7510    6.5160   23.0030 N.am   26  CYS26      -0.1968
     23  CA        25.6690    6.6650   23.9440 C.3    26  CYS26       0.1712
     24  C         26.2400    6.7680   25.3630 C.2    26  CYS26       0.2296
     25  O         27.3480    6.2550   25.6830 O.2    26  CYS26      -0.2864
     26  CB        24.7620    5.4350   23.9150 C.3    26  CYS26       0.0983
     27  SG        23.3000    5.5840   22.8640 S.3    26  CYS26      -0.0798
     28  N         17.2180    2.0970   22.9620 N.3    41  HIS41      -0.1226
     29  CA        17.4830    2.5400   21.5660 C.3    41  HIS41       0.1752
     30  C         18.9880    2.6160   21.2960 C.2    41  HIS41       0.2596
     31  O         19.4000    2.6250   20.1390 O.2    41  HIS41      -0.2718
     32  CB        16.7240    3.8040   21.1980 C.3    41  HIS41       0.0759
     33  CG        17.3040    5.0640   21.7100 C.ar   41  HIS41       0.0818
     34  ND1       16.9030    5.6680   22.8890 N.ar   41  HIS41      -0.2268
     35  CD2       18.2800    5.8570   21.1880 C.ar   41  HIS41       0.1154
     36  CE1       17.5280    6.8220   22.9980 C.ar   41  HIS41       0.1986
     37  NE2       18.3680    6.9500   21.9880 N.ar   41  HIS41      -0.2212
     38  N         19.7660    2.6440   22.3550 N.am   42  CYS42      -0.1970
     39  CA        21.2530    2.7020   22.2700 C.3    42  CYS42       0.1712
     40  C         21.7760    1.3810   21.7660 C.2    42  CYS42       0.2296
     41  O         22.7290    1.3870   21.0400 O.2    42  CYS42      -0.2864
     42  CB        21.9080    3.0300   23.6380 C.3    42  CYS42       0.0983
     43  SG        21.7650    4.7400   23.9600 S.3    42  CYS42      -0.0798
     44  N         19.6870   -1.5150   20.4920 N.3    44  ALA44      -0.1231
     45  CA        18.9510   -2.0740   19.3230 C.3    44  ALA44       0.1694
     46  C         19.8760   -1.8590   18.1450 C.2    44  ALA44       0.2592
     47  O         20.5040   -0.7070   17.9540 O.2    44  ALA44      -0.2718
     48  CB        17.7020   -1.3120   19.0710 C.3    44  ALA44       0.0304
     49  N         20.1440   -2.9660   17.5200 N.am   45  ASN45      -0.1960
     50  CA        20.9910   -2.9390   16.3190 C.3    45  ASN45       0.1819
     51  C         22.4620   -2.7570   16.4340 C.2    45  ASN45       0.2621
     52  O         23.1470   -2.7260   15.3920 O.2    45  ASN45      -0.2715
     53  CB        20.4810   -1.8550   15.3810 C.3    45  ASN45       0.1195
     54  CG        19.0180   -2.0430   15.0990 C.2    45  ASN45       0.2630
     55  OD1       18.5410   -3.1790   14.9620 O.2    45  ASN45      -0.2716
     56  ND2       18.3020   -0.9560   15.0760 N.am   45  ASN45      -0.0877
     57  N         22.9610   -2.6170   17.6590 N.am   46  VAL46      -0.1977
     58  CA        24.4190   -2.5340   17.8660 C.3    46  VAL46       0.1596
     59  C         24.9980   -3.9480   17.9120 C.2    46  VAL46       0.2287
     60  O         24.2810   -4.9180   18.2730 O.2    46  VAL46      -0.2864
     61  CB        24.6110   -1.7080   19.1600 C.3    46  VAL46       0.0276
     62  CG1       24.9120   -2.5700   20.3820 C.3    46  VAL46       0.0022
     63  CG2       25.5910   -0.6540   19.0180 C.3    46  VAL46       0.0022
     64  N          9.5930    0.7540   20.5450 N.3    82  PRO82      -0.2102
     65  CA        10.0100    2.0910   20.0650 C.3    82  PRO82       0.1504
     66  C          8.8890    2.9040   19.4160 C.2    82  PRO82       0.2575
     67  O          8.8270    4.1600   19.5820 O.2    82  PRO82      -0.2718
     68  CB        11.0940    1.8030   19.0530 C.3    82  PRO82       0.0282
     69  CG        11.0240    0.3160   18.7620 C.3    82  PRO82       0.0208
     70  CD        10.4610   -0.3230   20.0160 C.3    82  PRO82       0.0893
     71  N          8.0310    2.2070   18.7040 N.am   83  VAL83      -0.1980
     72  CA         6.9660    2.9790   17.9590 C.3    83  VAL83       0.1595
     73  C          6.0900    3.6180   19.0060 C.2    83  VAL83       0.2287
     74  O          5.6090    4.7680   18.8240 O.2    83  VAL83      -0.2864
     75  CB         6.1820    2.0460   17.0450 C.3    83  VAL83       0.0276
     76  CG1        5.0210    2.7300   16.4030 C.3    83  VAL83       0.0022
     77  CG2        7.0750    1.4360   15.9890 C.3    83  VAL83       0.0022
     78  N         26.0930   15.9320   20.8980 N.3   129  LEU129     -0.1245
     79  CA        26.2370   17.0540   20.1000 C.3   129  LEU129      0.1561
     80  C         25.8090   18.3210   20.8310 C.2   129  LEU129      0.2260
     81  O         24.9160   18.3230   21.7530 O.2   129  LEU129     -0.2867
     82  CB        25.4570   16.9290   18.8080 C.3   129  LEU129      0.0270
     83  CG        25.7480   15.8180   17.7990 C.3   129  LEU129      0.0019
     84  CD1       24.6310   15.8520   16.7660 C.3   129  LEU129      0.0001
     85  CD2       27.1360   15.9420   17.1480 C.3   129  LEU129      0.0001
     86  N         30.7650   19.0110   18.7180 N.3   136  ILE136     -0.1245
     87  CA        30.5290   17.9370   19.6690 C.3   136  ILE136      0.1561
     88  C         31.3670   18.1450   20.9310 C.2   136  ILE136      0.2260
     89  O         32.4760   18.6670   20.8460 O.2   136  ILE136     -0.2867
     90  CB        30.7870   16.5700   19.0260 C.3   136  ILE136      0.0252
     91  CG1       30.3140   15.4390   19.9510 C.3   136  ILE136      0.0019
     92  CG2       32.3060   16.4150   18.7400 C.3   136  ILE136      0.0019
     93  CD1       30.1700   14.1180   19.2420 C.3   136  ILE136      0.0001
     94  N         21.9010   14.2170   20.0600 N.3   170  PHE170     -0.1227
     95  CA        22.3220   12.9270   19.6410 C.3   170  PHE170      0.1736
     96  C         23.5780   12.6340   20.3750 C.2   170  PHE170      0.2596
     97  O         24.4160   13.5560   20.5790 O.2   170  PHE170     -0.2718
     98  CB        22.4880   12.8920   18.0870 C.3   170  PHE170      0.0547
     99  CG        21.2420   12.7280   17.3620 C.ar  170  PHE170     -0.0202
    100  CD1       20.7780   11.4200   17.0500 C.ar  170  PHE170     -0.0042
    101  CD2       20.5070   13.7770   16.8990 C.ar  170  PHE170     -0.0042
    102  CE1       19.6430   11.2450   16.2780 C.ar  170  PHE170     -0.0003
    103  CE2       19.3150   13.5490   16.2020 C.ar  170  PHE170     -0.0003
    104  CZ        18.9050   12.3130   15.9010 C.ar  170  PHE170     -0.0000
    105  N         23.7630   11.3960   20.7830 N.am  171  GLY171     -0.1957
    106  CA        24.9800   11.0640   21.6190 C.3   171  GLY171      0.1869
    107  C         24.7170   11.2040   23.1510 C.2   171  GLY171      0.2309
    108  O         25.4410   10.6710   23.9640 O.2   171  GLY171     -0.2863
    109  N         21.8290   10.2450   24.1990 N.3   173  SER173     -0.1217
    110  CA        20.9960    9.0330   24.4000 C.3   173  SER173      0.1889
    111  C         21.6060    8.1080   25.4710 C.2   173  SER173      0.2288
    112  O         22.8100    7.8160   25.4780 O.2   173  SER173     -0.2866
    113  CB        20.9090    8.2590   23.1250 C.3   173  SER173      0.2089
    114  OG        20.2030    8.9000   22.1310 O.3   173  SER173     -0.2183
@<TRIPOS>BOND
     1    55    54    2
     2    56    54   am
     3    54    53    1
     4    53    50    1
     5    52    51    2
     6   104   103   ar
     7   104   102   ar
     8    77    75    1
     9   103   101   ar
    10   102   100   ar
    11    50    51    1
    12    50    49    1
    13    76    75    1
    14    51    57   am
    15    84    83    1
    16   101    99   ar
    17    75    72    1
    18   100    99   ar
    19    85    83    1
    20    99    98    1
    21    49    46   am
    22    57    58    1
    23    83    82    1
    24    58    59    1
    25    58    61    1
    26    59    60    2
    27    47    46    2
    28    72    71    1
    29    72    73    1
    30    98    95    1
    31    46    45    1
    32    71    66   am
    33    86    87    1
    34    92    90    1
    35    69    68    1
    36    69    70    1
    37    82    79    1
    38    74    73    2
    39    63    61    1
    40    90    87    1
    41    90    91    1
    42    68    65    1
    43    48    45    1
    44    61    62    1
    45    93    91    1
    46    45    44    1
    47    66    67    2
    48    66    65    1
    49    95    94    1
    50    95    96    1
    51    87    88    1
    52    15    16    1
    53    15    12    1
    54    70    64    1
    55     4     3    2
    56    65    64    1
    57    79    80    1
    58    79    78    1
    59    31    30    2
    60    96    97    2
    61    96   105   am
    62    16    17   ar
    63    16    18   ar
    64    12    11    1
    65    12    13    1
    66   105   106    1
    67    80    81    2
    68    89    88    2
    69    17    19   ar
    70    18    20   ar
    71    41    40    2
    72     3    11   am
    73     3     2    1
    74     1     2    1
    75    35    33   ar
    76    35    37   ar
    77    32    29    1
    78    32    33    1
    79    14    13    2
    80    30    29    1
    81    30    38   am
    82    29    28    1
    83    19    21   ar
    84   106   107    1
    85    13    22   am
    86    20    21   ar
    87    33    34   ar
    88    40    39    1
    89     2     5    1
    90    37    36   ar
    91   114   113    1
    92    39    38    1
    93    39    42    1
    94     5     6    1
    95    27    26    1
    96    27    43    1
    97    34    36   ar
    98    22    23    1
    99     8     6   ar
   100     8    10   ar
   101   113   110    1
   102   107   108    2
   103     6     7   ar
   104    42    43    1
   105    26    23    1
   106    23    24    1
   107    10     9   ar
   108   109   110    1
   109   110   111    1
   110     7     9   ar
   111    24    25    2
   112   111   112    2
