@<TRIPOS>MOLECULE
tmp/5a0cB04.pdb
 142 139 0 0 0
SMALL
GASTEIGER

@<TRIPOS>ATOM
      1  N         17.2180    2.0970   22.9620 N.3    41  HIS41      -0.1241
      2  CA        17.4830    2.5400   21.5660 C.3    41  HIS41       0.1621
      3  C         18.9880    2.6160   21.2960 C.2    41  HIS41       0.2264
      4  O         19.4000    2.6250   20.1390 O.2    41  HIS41      -0.2867
      5  CB        16.7240    3.8040   21.1980 C.3    41  HIS41       0.0745
      6  CG        17.3040    5.0640   21.7100 C.ar   41  HIS41       0.0817
      7  ND1       16.9030    5.6680   22.8890 N.ar   41  HIS41      -0.2268
      8  CD2       18.2800    5.8570   21.1880 C.ar   41  HIS41       0.1154
      9  CE1       17.5280    6.8220   22.9980 C.ar   41  HIS41       0.1986
     10  NE2       18.3680    6.9500   21.9880 N.ar   41  HIS41      -0.2212
     11  N         10.9800   -3.0730   25.3980 N.3    80  TYR80      -0.1241
     12  CA        11.2520   -1.8710   24.5840 C.3    80  TYR80       0.1605
     13  C         10.2620   -1.8230   23.4260 C.2    80  TYR80       0.2264
     14  O         10.1490   -2.7520   22.7460 O.2    80  TYR80      -0.2867
     15  CB        12.6560   -1.9520   24.0530 C.3    80  TYR80       0.0534
     16  CG        13.0190   -0.8500   23.0790 C.ar   80  TYR80      -0.0201
     17  CD1       12.7130    0.4650   23.3480 C.ar   80  TYR80      -0.0009
     18  CD2       13.7120   -1.1350   21.9000 C.ar   80  TYR80      -0.0009
     19  CE1       13.0870    1.4980   22.4720 C.ar   80  TYR80       0.0417
     20  CE2       14.1800   -0.0820   21.0590 C.ar   80  TYR80       0.0417
     21  CZ        13.7890    1.2300   21.3340 C.ar   80  TYR80       0.1957
     22  OH        14.1230    2.3370   20.5210 O.3    80  TYR80      -0.2866
     23  N          9.5930    0.7540   20.5450 N.3    82  PRO82      -0.2102
     24  CA        10.0100    2.0910   20.0650 C.3    82  PRO82       0.1504
     25  C          8.8890    2.9040   19.4160 C.2    82  PRO82       0.2575
     26  O          8.8270    4.1600   19.5820 O.2    82  PRO82      -0.2718
     27  CB        11.0940    1.8030   19.0530 C.3    82  PRO82       0.0282
     28  CG        11.0240    0.3160   18.7620 C.3    82  PRO82       0.0208
     29  CD        10.4610   -0.3230   20.0160 C.3    82  PRO82       0.0893
     30  N          8.0310    2.2070   18.7040 N.am   83  VAL83      -0.1980
     31  CA         6.9660    2.9790   17.9590 C.3    83  VAL83       0.1595
     32  C          6.0900    3.6180   19.0060 C.2    83  VAL83       0.2287
     33  O          5.6090    4.7680   18.8240 O.2    83  VAL83      -0.2864
     34  CB         6.1820    2.0460   17.0450 C.3    83  VAL83       0.0276
     35  CG1        5.0210    2.7300   16.4030 C.3    83  VAL83       0.0022
     36  CG2        7.0750    1.4360   15.9890 C.3    83  VAL83       0.0022
     37  N          7.1940    4.3570   22.0060 N.3    85  LEU85      -0.1231
     38  CA         8.1000    5.1390   22.8710 C.3    85  LEU85       0.1693
     39  C          8.0590    4.6870   24.3500 C.2    85  LEU85       0.2591
     40  O          8.2040    5.4860   25.2310 O.2    85  LEU85      -0.2718
     41  CB         7.7990    6.6010   22.7500 C.3    85  LEU85       0.0284
     42  CG         7.8510    7.2420   21.3280 C.3    85  LEU85       0.0019
     43  CD1        7.2050    8.6080   21.2330 C.3    85  LEU85       0.0001
     44  CD2        9.2600    7.3450   20.8460 C.3    85  LEU85       0.0001
     45  N          7.8920    3.3770   24.5640 N.am   86  LEU86      -0.1980
     46  CA         7.7820    2.7540   25.8630 C.3    86  LEU86       0.1596
     47  C          9.0150    1.9170   26.1700 C.2    86  LEU86       0.2287
     48  O          9.5780    1.2730   25.2910 O.2    86  LEU86      -0.2864
     49  CB         6.5270    1.8150   25.8870 C.3    86  LEU86       0.0297
     50  CG         5.1740    2.4830   25.6890 C.3    86  LEU86       0.0022
     51  CD1        4.1000    1.3930   25.7170 C.3    86  LEU86       0.0001
     52  CD2        4.9800    3.4650   26.8070 C.3    86  LEU86       0.0001
     53  N         12.1720    2.2870   27.1580 N.3    88  ASP88      -0.1239
     54  CA        13.4900    2.5560   26.5550 C.3    88  ASP88       0.1674
     55  C         14.6270    2.5030   27.6210 C.2    88  ASP88       0.2266
     56  O         15.3030    3.4890   27.9390 O.2    88  ASP88      -0.2867
     57  CB        13.4210    3.9070   25.8320 C.3    88  ASP88       0.1410
     58  CG        14.6070    4.1810   24.9310 C.2    88  ASP88       0.3668
     59  OD1       15.3630    3.2720   24.7300 O.co2  88  ASP88      -0.2456
     60  OD2       14.7800    5.3790   24.5320 O.co2  88  ASP88      -0.2456
     61  N         18.9860   17.9120   25.5020 N.3   168  VAL168     -0.1231
     62  CA        19.8080   16.8180   25.1170 C.3   168  VAL168      0.1692
     63  C         19.7150   16.6900   23.5540 C.2   168  VAL168      0.2592
     64  O         18.8130   17.2680   22.8920 O.2   168  VAL168     -0.2718
     65  CB        19.3550   15.5170   25.8130 C.3   168  VAL168      0.0266
     66  CG1       19.3030   15.6750   27.3290 C.3   168  VAL168      0.0020
     67  CG2       17.9460   15.0740   25.2930 C.3   168  VAL168      0.0020
     68  N         20.7410   16.0150   22.9970 N.am  169  CYS169     -0.1956
     69  CA        20.8880   15.8200   21.5800 C.3   169  CYS169      0.1843
     70  C         21.5230   14.4710   21.3180 C.2   169  CYS169      0.2625
     71  O         21.7390   13.7100   22.2200 O.2   169  CYS169     -0.2714
     72  CB        21.7330   16.9690   20.9830 C.3   169  CYS169      0.0997
     73  SG        21.3730   17.2600   19.2280 S.3   169  CYS169     -0.0797
     74  N         21.9010   14.2170   20.0600 N.am  170  PHE170     -0.1960
     75  CA        22.3220   12.9270   19.6410 C.3   170  PHE170      0.1771
     76  C         23.5780   12.6340   20.3750 C.2   170  PHE170      0.2620
     77  O         24.4160   13.5560   20.5790 O.2   170  PHE170     -0.2715
     78  CB        22.4880   12.8920   18.0870 C.3   170  PHE170      0.0574
     79  CG        21.2420   12.7280   17.3620 C.ar  170  PHE170     -0.0200
     80  CD1       20.7780   11.4200   17.0500 C.ar  170  PHE170     -0.0042
     81  CD2       20.5070   13.7770   16.8990 C.ar  170  PHE170     -0.0042
     82  CE1       19.6430   11.2450   16.2780 C.ar  170  PHE170     -0.0003
     83  CE2       19.3150   13.5490   16.2020 C.ar  170  PHE170     -0.0003
     84  CZ        18.9050   12.3130   15.9010 C.ar  170  PHE170     -0.0000
     85  N         23.7630   11.3960   20.7830 N.am  171  GLY171     -0.1940
     86  CA        24.9800   11.0640   21.6190 C.3   171  GLY171      0.2014
     87  C         24.7170   11.2040   23.1510 C.2   171  GLY171      0.2639
     88  O         25.4410   10.6710   23.9640 O.2   171  GLY171     -0.2714
     89  N         23.6990   11.9740   23.5440 N.am  172  ASP172     -0.1957
     90  CA        23.3040   12.0670   24.9350 C.3   172  ASP172      0.1840
     91  C         22.3520   10.9170   25.2640 C.2   172  ASP172      0.2622
     92  O         22.0680   10.6430   26.4930 O.2   172  ASP172     -0.2715
     93  CB        22.5950   13.3470   25.1980 C.3   172  ASP172      0.1450
     94  CG        23.5310   14.5820   25.0730 C.2   172  ASP172      0.3671
     95  OD1       24.7200   14.3990   25.4110 O.co2 172  ASP172     -0.2456
     96  OD2       23.0070   15.6230   24.5940 O.co2 172  ASP172     -0.2456
     97  N         21.8290   10.2450   24.1990 N.am  173  SER173     -0.1950
     98  CA        20.9960    9.0330   24.4000 C.3   173  SER173      0.1924
     99  C         21.6060    8.1080   25.4710 C.2   173  SER173      0.2314
    100  O         22.8100    7.8160   25.4780 O.2   173  SER173     -0.2863
    101  CB        20.9090    8.2590   23.1250 C.3   173  SER173      0.2116
    102  OG        20.2030    8.9000   22.1310 O.3   173  SER173     -0.2180
    103  N         17.9990    9.3430   29.0970 N.3   187  ALA187     -0.1231
    104  CA        17.6870   10.1170   27.8940 C.3   187  ALA187      0.1694
    105  C         17.1630    9.2320   26.7500 C.2   187  ALA187      0.2593
    106  O         17.8230    8.2190   26.3540 O.2   187  ALA187     -0.2718
    107  CB        18.8620   11.0140   27.4840 C.3   187  ALA187      0.0304
    108  N         15.9180    9.5250   26.3270 N.am  188  SER188     -0.1938
    109  CA        15.2010    8.7230   25.3310 C.3   188  SER188      0.2055
    110  C         14.9310    9.4000   24.0030 C.2   188  SER188      0.2643
    111  O         15.2980    8.8530   22.9730 O.2   188  SER188     -0.2714
    112  CB        13.8350    8.2240   25.8900 C.3   188  SER188      0.2130
    113  OG        13.3020    7.1870   25.0240 O.3   188  SER188     -0.2179
    114  N         14.1810   10.4900   23.9880 N.am  189  PHE189     -0.1959
    115  CA        13.9230   11.1780   22.6660 C.3   189  PHE189      0.1771
    116  C         13.6590   12.6180   22.8320 C.2   189  PHE189      0.2619
    117  O         13.2450   13.0500   23.9420 O.2   189  PHE189     -0.2715
    118  CB        12.7630   10.5240   21.8810 C.3   189  PHE189      0.0574
    119  CG        11.4500   10.5250   22.5890 C.ar  189  PHE189     -0.0200
    120  CD1       11.1030    9.4960   23.4210 C.ar  189  PHE189     -0.0042
    121  CD2       10.5640   11.5250   22.3720 C.ar  189  PHE189     -0.0042
    122  CE1        9.8260    9.4650   24.0540 C.ar  189  PHE189     -0.0003
    123  CE2        9.3600   11.5930   23.0230 C.ar  189  PHE189     -0.0003
    124  CZ         8.9490   10.5490   23.8240 C.ar  189  PHE189     -0.0000
    125  N         13.7670   13.3190   21.6990 N.am  190  VAL190     -0.1977
    126  CA        13.4600   14.7650   21.6250 C.3   190  VAL190      0.1596
    127  C         12.3320   14.9530   20.6110 C.2   190  VAL190      0.2287
    128  O         12.0600   14.1080   19.8230 O.2   190  VAL190     -0.2864
    129  CB        14.6540   15.6350   21.2820 C.3   190  VAL190      0.0276
    130  CG1       15.7050   15.4870   22.3520 C.3   190  VAL190      0.0022
    131  CG2       15.2380   15.2390   19.8820 C.3   190  VAL190      0.0022
    132  N         16.6090   18.5880   18.5770 N.3   194  CYS194     -0.1235
    133  CA        17.3490   19.0350   19.7750 C.3   194  CYS194      0.1677
    134  C         17.1040   20.5140   20.0940 C.2   194  CYS194      0.2270
    135  O         17.0460   21.3540   19.1750 O.2   194  CYS194     -0.2867
    136  CB        18.8340   18.8370   19.5680 C.3   194  CYS194      0.0956
    137  SG        19.2890   17.1660   19.0890 S.3   194  CYS194     -0.0801
    138  N         12.4280   13.9960   26.7030 N.3   202  ALA202     -0.1245
    139  CA        11.7810   12.8320   27.2840 C.3   202  ALA202      0.1562
    140  C         12.7890   11.8130   27.6690 C.2   202  ALA202      0.2260
    141  O         13.6740   11.4400   26.8980 O.2   202  ALA202     -0.2867
    142  CB        10.8240   12.2360   26.2520 C.3   202  ALA202      0.0290
@<TRIPOS>BOND
     1    84    83   ar
     2    84    82   ar
     3    36    34    1
     4    83    81   ar
     5    82    80   ar
     6    35    34    1
     7    81    79   ar
     8    34    31    1
     9    80    79   ar
    10    79    78    1
    11    31    30    1
    12    31    32    1
    13    78    75    1
    14   132   133    1
    15    30    25   am
    16    28    27    1
    17    28    29    1
    18    33    32    2
    19    27    24    1
    20   137    73    1
    21   137   136    1
    22   135   134    2
    23    73    72    1
    24    25    26    2
    25    25    24    1
    26   136   133    1
    27    75    74    1
    28    75    76    1
    29   133   134    1
    30   128   127    2
    31   131   129    1
    32    29    23    1
    33    74    70   am
    34    24    23    1
    35     4     3    2
    36    76    77    2
    37    76    85   am
    38    22    21    1
    39   127   126    1
    40    85    86    1
    41    44    42    1
    42    72    69    1
    43    20    21   ar
    44    20    18   ar
    45     8     6   ar
    46     8    10   ar
    47     5     2    1
    48     5     6    1
    49    43    42    1
    50   129   126    1
    51   129   130    1
    52     3     2    1
    53    70    69    1
    54    70    71    2
    55    42    41    1
    56    21    19   ar
    57     2     1    1
    58    69    68    1
    59    86    87    1
    60   126   125    1
    61   125   116   am
    62     6     7   ar
    63   118   119    1
    64   118   115    1
    65    18    16   ar
    66    10     9   ar
    67    37    38    1
    68   102   101    1
    69   121   119   ar
    70   121   123   ar
    71    19    17   ar
    72   119   120   ar
    73   115   116    1
    74   115   114    1
    75    14    13    2
    76    41    38    1
    77   116   117    2
    78    38    39    1
    79     7     9   ar
    80    64    63    2
    81   111   110    2
    82    68    63   am
    83   123   124   ar
    84    16    17   ar
    85    16    15    1
    86   101    98    1
    87    87    89   am
    88    87    88    2
    89   120   122   ar
    90    13    12    1
    91    89    90    1
    92    63    62    1
    93   124   122   ar
    94   114   110   am
    95   110   109    1
    96    15    12    1
    97    97    98    1
    98    97    91   am
    99    39    45   am
   100    39    40    2
   101    98    99    1
   102    60    58   ar
   103    45    46    1
   104    12    11    1
   105    96    94   ar
   106    59    58   ar
   107    58    57    1
   108    90    93    1
   109    90    91    1
   110   113   112    1
   111    94    93    1
   112    94    95   ar
   113    62    61    1
   114    62    65    1
   115    91    92    2
   116    48    47    2
   117    67    65    1
   118   109   112    1
   119   109   108    1
   120    99   100    2
   121    50    51    1
   122    50    49    1
   123    50    52    1
   124    65    66    1
   125    57    54    1
   126    46    49    1
   127    46    47    1
   128   142   139    1
   129   108   105   am
   130   106   105    2
   131    54    53    1
   132    54    55    1
   133   138   139    1
   134   105   104    1
   135   141   140    2
   136   139   140    1
   137   107   104    1
   138    55    56    2
   139   104   103    1
