@<TRIPOS>MOLECULE
tmp/5a0eA00.pdb
 187 180 0 0 0
SMALL
GASTEIGER

@<TRIPOS>ATOM
      1  N        -11.8930  -13.6160   29.9370 N.3    55  ARG55      -0.1245
      2  CA       -11.9230  -12.2440   29.4450 C.3    55  ARG55       0.1563
      3  C        -11.9390  -12.3350   27.9490 C.2    55  ARG55       0.2260
      4  O        -10.9750  -12.7660   27.3190 O.2    55  ARG55      -0.2867
      5  CB       -10.7480  -11.4250   29.9830 C.3    55  ARG55       0.0307
      6  CG       -10.7240   -9.9830   29.5230 C.3    55  ARG55       0.0489
      7  CD        -9.7570   -9.1570   30.3680 C.3    55  ARG55       0.2205
      8  NE        -9.5750   -7.7800   29.8880 N.pl3  55  ARG55      -0.0865
      9  CZ        -8.6610   -7.4070   28.9960 C.cat  55  ARG55       0.5346
     10  NH1       -7.8690   -8.3150   28.4450 N.pl3  55  ARG55       0.1354
     11  NH2       -8.5580   -6.1670   28.6070 N.pl3  55  ARG55       0.1354
     12  N        -13.0720  -10.2500   24.5010 N.3    57  ILE57      -0.1245
     13  CA       -13.4040   -8.9300   23.9430 C.3    57  ILE57       0.1561
     14  C        -13.5810   -9.0630   22.4510 C.2    57  ILE57       0.2260
     15  O        -12.5930   -9.3050   21.7310 O.2    57  ILE57      -0.2867
     16  CB       -12.3720   -7.8670   24.3520 C.3    57  ILE57       0.0252
     17  CG1      -12.2980   -7.6920   25.8680 C.3    57  ILE57       0.0019
     18  CG2      -12.6750   -6.5430   23.6550 C.3    57  ILE57       0.0019
     19  CD1      -11.2060   -6.8020   26.3810 C.3    57  ILE57       0.0001
     20  N        -13.7510   -8.4760   18.6060 N.3    59  SER59      -0.1202
     21  CA       -12.8960   -7.5840   17.7950 C.3    59  SER59       0.2020
     22  C        -11.5370   -7.4310   18.3450 C.2    59  SER59       0.2619
     23  O        -10.8090   -6.5440   17.9170 O.2    59  SER59      -0.2717
     24  CB       -13.5490   -6.1920   17.4930 C.3    59  SER59       0.2103
     25  OG       -14.8650   -6.3590   16.9760 O.3    59  SER59      -0.2182
     26  N        -11.1470   -8.2560   19.3270 N.am   60  PHE60      -0.1961
     27  CA        -9.7990   -8.1080   19.8870 C.3    60  PHE60       0.1771
     28  C         -9.2350   -9.5280   20.1260 C.2    60  PHE60       0.2619
     29  O         -8.2980   -9.9350   19.3950 O.2    60  PHE60      -0.2715
     30  CB        -9.8570   -7.2370   21.1710 C.3    60  PHE60       0.0574
     31  CG        -8.5630   -7.0840   21.9490 C.ar   60  PHE60      -0.0200
     32  CD1       -7.3400   -7.2180   21.3800 C.ar   60  PHE60      -0.0042
     33  CD2       -8.5940   -6.8150   23.3470 C.ar   60  PHE60      -0.0042
     34  CE1       -6.1830   -7.0850   22.1260 C.ar   60  PHE60      -0.0003
     35  CE2       -7.4840   -6.7130   24.1020 C.ar   60  PHE60      -0.0003
     36  CZ        -6.2520   -6.8350   23.4860 C.ar   60  PHE60      -0.0000
     37  N         -9.5850  -10.1630   21.2440 N.am   61  MET61      -0.1977
     38  CA        -8.9340  -11.4150   21.6580 C.3    61  MET61       0.1605
     39  C         -9.7670  -12.1280   22.6630 C.2    61  MET61       0.2287
     40  O        -10.7000  -11.5480   23.2770 O.2    61  MET61      -0.2864
     41  CB        -7.5100  -11.1900   22.1300 C.3    61  MET61       0.0413
     42  CG        -7.3660  -10.3240   23.3880 C.3    61  MET61       0.0598
     43  SD        -7.7230  -11.1510   24.9280 S.3    61  MET61      -0.1393
     44  CE        -8.9790  -10.1150   25.6270 C.3    61  MET61       0.0692
     45  N         -9.0330  -14.3810   26.1690 N.3    63  GLN63      -0.1245
     46  CA        -7.9850  -14.6080   27.1700 C.3    63  GLN63       0.1566
     47  C         -8.4090  -15.6900   28.1650 C.2    63  GLN63       0.2260
     48  O         -9.5920  -15.7540   28.5570 O.2    63  GLN63      -0.2867
     49  CB        -7.7710  -13.2620   27.9260 C.3    63  GLN63       0.0367
     50  CG        -6.7520  -13.3220   29.0110 C.3    63  GLN63       0.0905
     51  CD        -6.5610  -12.0020   29.6970 C.2    63  GLN63       0.2608
     52  OE1       -7.1250  -10.9700   29.3020 O.2    63  GLN63      -0.2717
     53  NE2       -5.6990  -11.9750   30.7070 N.am   63  GLN63      -0.0878
     54  N        -10.2020  -15.8190   37.5810 N.3    71  ASN71      -0.1225
     55  CA       -10.6720  -14.4610   37.1230 C.3    71  ASN71       0.1785
     56  C         -9.7130  -13.5150   36.4460 C.2    71  ASN71       0.2598
     57  O        -10.0730  -12.3200   36.2260 O.2    71  ASN71      -0.2718
     58  CB       -11.3390  -13.6280   38.2060 C.3    71  ASN71       0.1169
     59  CG       -10.4390  -13.2970   39.3790 C.2    71  ASN71       0.2627
     60  OD1       -9.2610  -13.6440   39.3970 O.2    71  ASN71      -0.2716
     61  ND2      -10.9450  -12.4940   40.2640 N.am   71  ASN71      -0.0877
     62  N         -8.5430  -13.8980   36.1810 N.am   72  GLY72      -0.1942
     63  CA        -7.5250  -13.0110   35.5780 C.3    72  GLY72       0.2014
     64  C         -6.5540  -12.6530   36.4450 C.2    72  GLY72       0.2640
     65  O         -5.6080  -12.0050   35.9840 O.2    72  GLY72      -0.2714
     66  N         -6.7430  -12.9520   37.7520 N.am   73  THR73      -0.1936
     67  CA        -5.7550  -12.4400   38.6290 C.3    73  THR73       0.2028
     68  C         -4.6760  -13.4040   38.8700 C.2    73  THR73       0.2642
     69  O         -3.7680  -13.0730   39.6280 O.2    73  THR73      -0.2714
     70  CB        -6.4190  -11.9020   39.8430 C.3    73  THR73       0.1808
     71  OG1       -7.0430  -12.9380   40.5570 O.3    73  THR73      -0.2208
     72  CG2       -7.4760  -10.7640   39.4320 C.3    73  THR73       0.0379
     73  N         -4.8290  -14.6530   38.4970 N.am   74  GLY74      -0.1954
     74  CA        -3.8420  -15.6470   38.8870 C.3    74  GLY74       0.1869
     75  C         -3.1540  -16.3430   37.7890 C.2    74  GLY74       0.2309
     76  O         -2.9220  -15.8640   36.6780 O.2    74  GLY74      -0.2863
     77  N         -0.3290  -13.4220   28.1350 N.3   101  ALA101     -0.1231
     78  CA        -0.7190  -12.3180   28.9690 C.3   101  ALA101      0.1694
     79  C          0.3220  -12.0590   29.9920 C.2   101  ALA101      0.2592
     80  O          1.1630  -12.9570   30.3000 O.2   101  ALA101     -0.2718
     81  CB        -2.0580  -12.6430   29.6220 C.3   101  ALA101      0.0304
     82  N          0.4000  -10.8710   30.5810 N.am  102  ASN102     -0.1960
     83  CA         1.3840  -10.6500   31.6360 C.3   102  ASN102      0.1819
     84  C          0.9280   -9.5040   32.5140 C.2   102  ASN102      0.2621
     85  O         -0.1860   -8.9790   32.3340 O.2   102  ASN102     -0.2715
     86  CB         2.7950  -10.4760   31.0670 C.3   102  ASN102      0.1195
     87  CG         2.9070   -9.2640   30.1880 C.2   102  ASN102      0.2630
     88  OD1        2.4090   -8.1870   30.5300 O.2   102  ASN102     -0.2716
     89  ND2        3.5900   -9.4180   29.0720 N.am  102  ASN102     -0.0877
     90  N          1.7390   -9.1690   33.5080 N.am  103  ALA103     -0.1963
     91  CA         1.4980   -7.9980   34.3810 C.3   103  ALA103      0.1728
     92  C          2.7520   -7.1180   34.2470 C.2   103  ALA103      0.2617
     93  O          3.2450   -6.6050   35.2740 O.2   103  ALA103     -0.2715
     94  CB         1.2450   -8.4200   35.8390 C.3   103  ALA103      0.0334
     95  N          3.2250   -6.8930   33.0340 N.am  104  GLY104     -0.1941
     96  CA         4.4110   -6.0990   32.7880 C.3   104  GLY104      0.1998
     97  C          5.6140   -6.9880   32.5250 C.2   104  GLY104      0.2480
     98  O          5.4880   -8.1810   32.3080 O.2   104  GLY104     -0.2729
     99  N          6.7990   -6.3960   32.4510 N.am  105  PRO105     -0.2726
    100  CA         7.9960   -7.1390   32.0540 C.3   105  PRO105      0.1402
    101  C          8.2680   -8.3420   32.9240 C.2   105  PRO105      0.2269
    102  O          8.2100   -8.2680   34.1360 O.2   105  PRO105     -0.2865
    103  CB         9.1160   -6.0810   32.1060 C.3   105  PRO105      0.0296
    104  CG         8.4340   -4.8000   32.1170 C.3   105  PRO105      0.0237
    105  CD         7.0280   -4.9340   32.6180 C.3   105  PRO105      0.0939
    106  N          6.8440  -11.2600   33.6250 N.3   107  THR107     -0.1218
    107  CA         5.8080  -11.7530   34.5040 C.3   107  THR107      0.1862
    108  C          4.9080  -12.7770   33.8260 C.2   107  THR107      0.2287
    109  O          3.7110  -12.8690   34.0860 O.2   107  THR107     -0.2866
    110  CB         4.9830  -10.6210   35.1140 C.3   107  THR107      0.1770
    111  OG1        4.3550   -9.8940   34.0560 O.3   107  THR107     -0.2211
    112  CG2        5.7580   -9.6760   35.9980 C.3   107  THR107      0.0375
    113  N         -1.4530  -17.3750   32.0340 N.3   111  GLN111     -0.1245
    114  CA        -2.4790  -16.7950   31.2210 C.3   111  GLN111      0.1566
    115  C         -1.9980  -16.4440   29.8090 C.2   111  GLN111      0.2260
    116  O         -0.8340  -16.0490   29.6190 O.2   111  GLN111     -0.2867
    117  CB        -3.0610  -15.5460   31.8670 C.3   111  GLN111      0.0367
    118  CG        -3.9080  -15.8630   33.1140 C.3   111  GLN111      0.0905
    119  CD        -4.5880  -14.6230   33.6130 C.2   111  GLN111      0.2608
    120  OE1       -5.2300  -13.9070   32.8470 O.2   111  GLN111     -0.2717
    121  NE2       -4.4310  -14.2980   34.8860 N.am  111  GLN111     -0.0878
    122  N         -3.5610  -15.4540   25.4700 N.3   113  PHE113     -0.1241
    123  CA        -4.6400  -14.9870   24.6550 C.3   113  PHE113      0.1605
    124  C         -4.4960  -15.4850   23.2240 C.2   113  PHE113      0.2264
    125  O         -3.3750  -15.7440   22.7480 O.2   113  PHE113     -0.2867
    126  CB        -4.8270  -13.4620   24.6950 C.3   113  PHE113      0.0534
    127  CG        -3.6480  -12.6350   24.2150 C.ar  113  PHE113     -0.0203
    128  CD1       -2.5300  -12.4460   25.0180 C.ar  113  PHE113     -0.0042
    129  CD2       -3.6930  -11.9570   22.9950 C.ar  113  PHE113     -0.0042
    130  CE1       -1.4900  -11.6410   24.6380 C.ar  113  PHE113     -0.0003
    131  CE2       -2.6860  -11.0900   22.6220 C.ar  113  PHE113     -0.0003
    132  CZ        -1.5720  -10.9470   23.4190 C.ar  113  PHE113     -0.0000
    133  N         -7.8500  -10.3250   15.8400 N.3   117  ILE117     -0.1245
    134  CA        -7.3000   -9.3310   14.8860 C.3   117  ILE117      0.1561
    135  C         -5.8000   -9.2990   15.0460 C.2   117  ILE117      0.2260
    136  O         -5.1920   -9.9550   15.9440 O.2   117  ILE117     -0.2867
    137  CB        -7.9200   -7.9690   15.1710 C.3   117  ILE117      0.0252
    138  CG1       -7.6610   -7.4710   16.6180 C.3   117  ILE117      0.0019
    139  CG2       -9.4000   -7.9480   14.8140 C.3   117  ILE117      0.0019
    140  CD1       -7.8430   -5.9800   16.7640 C.3   117  ILE117      0.0001
    141  N          0.3720   -3.5400   18.4900 N.3   121  TRP121     -0.1227
    142  CA         0.7700   -2.6900   19.5780 C.3   121  TRP121      0.1737
    143  C          1.2760   -3.4740   20.7900 C.2   121  TRP121      0.2595
    144  O          1.8920   -2.8780   21.7150 O.2   121  TRP121     -0.2718
    145  CB        -0.3790   -1.7460   20.0240 C.3   121  TRP121      0.0564
    146  CG        -1.6530   -2.4330   20.4820 C.ar  121  TRP121      0.0003
    147  CD1       -2.0000   -2.7080   21.8020 C.ar  121  TRP121      0.0946
    148  CD2       -2.7120   -2.9810   19.6740 C.ar  121  TRP121      0.0152
    149  NE1       -3.1650   -3.3890   21.8270 N.ar  121  TRP121     -0.2442
    150  CE2       -3.6530   -3.5920   20.5680 C.ar  121  TRP121      0.0810
    151  CE3       -3.0110   -2.9420   18.3360 C.ar  121  TRP121      0.0012
    152  CZ2       -4.7810   -4.2240   20.1420 C.ar  121  TRP121      0.0191
    153  CZ3       -4.1670   -3.5710   17.8930 C.ar  121  TRP121      0.0001
    154  CH2       -5.0310   -4.2250   18.8010 C.ar  121  TRP121      0.0015
    155  N          1.0590   -4.7870   20.8050 N.am  122  LEU122     -0.1980
    156  CA         1.5950   -5.6630   21.8670 C.3   122  LEU122      0.1596
    157  C          2.9850   -6.2010   21.5760 C.2   122  LEU122      0.2287
    158  O          3.6130   -6.8650   22.4410 O.2   122  LEU122     -0.2864
    159  CB         0.5940   -6.7520   22.1680 C.3   122  LEU122      0.0297
    160  CG        -0.8100   -6.2200   22.5160 C.3   122  LEU122      0.0022
    161  CD1       -1.7650   -7.3270   22.7740 C.3   122  LEU122      0.0001
    162  CD2       -0.7430   -5.3340   23.7800 C.3   122  LEU122      0.0001
    163  N          6.1510   -6.4220   24.0290 N.3   125  LYS125     -0.1231
    164  CA         5.6450   -6.4500   25.4010 C.3   125  LYS125      0.1693
    165  C          5.0710   -7.7920   25.7950 C.2   125  LYS125      0.2592
    166  O          5.1160   -8.1630   26.9370 O.2   125  LYS125     -0.2718
    167  CB         4.5630   -5.3360   25.5900 C.3   125  LYS125      0.0285
    168  CG         5.0960   -3.9050   25.3290 C.3   125  LYS125      0.0035
    169  CD         3.9530   -2.9300   24.9190 C.3   125  LYS125      0.0206
    170  CE         4.4550   -1.6600   24.1510 C.3   125  LYS125      0.1093
    171  NZ         3.7170   -0.3470   24.3490 N.3   125  LYS125     -0.1314
    172  N          4.4830   -8.5170   24.8390 N.am  126  HIS126     -0.1976
    173  CA         3.8850   -9.8290   25.0830 C.3   126  HIS126      0.1656
    174  C          4.6490  -10.8220   24.1900 C.2   126  HIS126      0.2291
    175  O          4.8330  -10.5470   22.9660 O.2   126  HIS126     -0.2864
    176  CB         2.4100   -9.8430   24.7810 C.3   126  HIS126      0.0771
    177  CG         1.6690   -8.9610   25.7130 C.ar  126  HIS126      0.0820
    178  ND1        1.0710   -9.4250   26.8590 N.ar  126  HIS126     -0.2267
    179  CD2        1.5600   -7.6310   25.7630 C.ar  126  HIS126      0.1154
    180  CE1        0.6030   -8.3880   27.5500 C.ar  126  HIS126      0.1986
    181  NE2        0.9150   -7.2860   26.9230 N.ar  126  HIS126     -0.2212
    182  N        -16.4370   -5.0790   27.9750 N.3   149  SER149     -0.1217
    183  CA       -15.6980   -5.1040   29.2300 C.3   149  SER149      0.1889
    184  C        -14.8020   -6.3120   29.3310 C.2   149  SER149      0.2288
    185  O        -13.9630   -6.3610   30.2060 O.2   149  SER149     -0.2866
    186  CB       -16.6050   -5.1100   30.4250 C.3   149  SER149      0.2089
    187  OG       -17.3050   -6.3220   30.5350 O.3   149  SER149     -0.2183
@<TRIPOS>BOND
     1   139   137    1
     2   134   135    1
     3   134   137    1
     4   134   133    1
     5   135   136    2
     6   137   138    1
     7   138   140    1
     8    25    24    1
     9    24    21    1
    10    21    22    1
    11    21    20    1
    12   153   151   ar
    13   153   154   ar
    14    23    22    2
    15   151   148   ar
    16    22    26   am
    17   141   142    1
    18   154   152   ar
    19    26    27    1
    20    29    28    2
    21   142   145    1
    22   142   143    1
    23   148   146   ar
    24   148   150   ar
    25    27    28    1
    26    27    30    1
    27   145   146    1
    28    28    37   am
    29   152   150   ar
    30   146   147   ar
    31   150   149   ar
    32   143   155   am
    33   143   144    2
    34   155   156    1
    35    30    31    1
    36    37    38    1
    37    32    31   ar
    38    32    34   ar
    39   157   156    1
    40   157   158    2
    41    38    41    1
    42    38    39    1
    43    15    14    2
    44   147   149   ar
    45   156   159    1
    46    31    33   ar
    47    34    36   ar
    48    41    42    1
    49   159   160    1
    50    14    13    1
    51   160   161    1
    52   160   162    1
    53   131   129   ar
    54   131   132   ar
    55    39    40    2
    56   125   124    2
    57   175   174    2
    58   129   127   ar
    59   124   123    1
    60    33    35   ar
    61    42    43    1
    62   132   130   ar
    63    36    35   ar
    64    18    16    1
    65    13    16    1
    66    13    12    1
    67   163   164    1
    68   170   171    1
    69   170   169    1
    70   174   173    1
    71   127   126    1
    72   127   128   ar
    73    16    17    1
    74   130   128   ar
    75   123   126    1
    76   123   122    1
    77   176   173    1
    78   176   177    1
    79   172   173    1
    80   172   165   am
    81   169   168    1
    82    43    44    1
    83   168   167    1
    84   164   167    1
    85   164   165    1
    86   177   179   ar
    87   177   178   ar
    88   179   181   ar
    89   165   166    2
    90    17    19    1
    91    45    46    1
    92   178   180   ar
    93   181   180   ar
    94    46    49    1
    95    46    47    1
    96     4     3    2
    97    49    50    1
    98     3     2    1
    99   182   183    1
   100    77    78    1
   101    47    48    2
   102    10     9    1
   103    11     9    1
   104    78    81    1
   105    78    79    1
   106     9     8    2
   107    50    51    1
   108    89    87   am
   109   183   184    1
   110   183   186    1
   111    52    51    2
   112   184   185    2
   113     2     1    1
   114     2     5    1
   115     6     5    1
   116     6     7    1
   117   116   115    2
   118    51    53   am
   119   115   114    1
   120     8     7    1
   121    79    80    2
   122    79    82   am
   123    87    88    2
   124    87    86    1
   125   186   187    1
   126    82    83    1
   127    86    83    1
   128   114   117    1
   129   114   113    1
   130    83    84    1
   131   117   118    1
   132   100   103    1
   133   100    99    1
   134   100   101    1
   135   103   104    1
   136   104   105    1
   137    98    97    2
   138    85    84    2
   139    99    97   am
   140    99   105    1
   141    84    90   am
   142    97    96    1
   143    96    95    1
   144   120   119    2
   145   101   102    2
   146    95    92   am
   147   118   119    1
   148    90    91    1
   149   119   121   am
   150   106   107    1
   151   108   109    2
   152   108   107    1
   153   111   110    1
   154    92    91    1
   155    92    93    2
   156    91    94    1
   157   107   110    1
   158   110   112    1
   159    63    62    1
   160    63    64    1
   161    65    64    2
   162    62    56   am
   163    57    56    2
   164    64    66   am
   165    56    55    1
   166    76    75    2
   167    55    54    1
   168    55    58    1
   169    66    67    1
   170    75    74    1
   171    58    59    1
   172    73    68   am
   173    73    74    1
   174    67    68    1
   175    67    70    1
   176    68    69    2
   177    59    60    2
   178    59    61   am
   179    72    70    1
   180    70    71    1
