@<TRIPOS>MOLECULE
tmp/5a0nA00.pdb
 108 105 0 0 0
SMALL
GASTEIGER

@<TRIPOS>ATOM
      1  N         26.0980   16.4940    5.9170 N.3    21  GLN21      -0.1231
      2  CA        25.1210   15.4620    6.2580 C.3    21  GLN21       0.1698
      3  C         24.2730   15.2160    4.9960 C.2    21  GLN21       0.2592
      4  O         24.6800   14.4020    4.1520 O.2    21  GLN21      -0.2718
      5  CB        24.3280   15.8250    7.5090 C.3    21  GLN21       0.0381
      6  CG        23.4940   14.6420    7.9650 C.3    21  GLN21       0.0905
      7  CD        22.5460   14.9050    9.1020 C.2    21  GLN21       0.2608
      8  OE1       22.2420   16.0460    9.4320 O.2    21  GLN21      -0.2717
      9  NE2       22.0990   13.8100    9.7370 N.am   21  GLN21      -0.0878
     10  N         23.1450   15.9020    4.8140 N.am   22  ILE22      -0.1966
     11  CA        22.4350   15.8060    3.5370 C.3    22  ILE22       0.1727
     12  C         22.7920   17.0680    2.7560 C.2    22  ILE22       0.2616
     13  O         22.3960   18.1790    3.1290 O.2    22  ILE22      -0.2715
     14  CB        20.9150   15.6680    3.6640 C.3    22  ILE22       0.0290
     15  CG1       20.5650   14.4410    4.4780 C.3    22  ILE22       0.0022
     16  CG2       20.2620   15.5770    2.2760 C.3    22  ILE22       0.0023
     17  CD1       19.0760   14.2200    4.6910 C.3    22  ILE22       0.0001
     18  N         23.6620   16.9040    1.7460 N.am   23  GLU23      -0.1977
     19  CA        24.1510   18.0550    0.9720 C.3    23  GLU23       0.1602
     20  C         24.3970   17.6040   -0.4550 C.2    23  GLU23       0.2287
     21  O         24.7120   16.4540   -0.7370 O.2    23  GLU23      -0.2864
     22  CB        25.4480   18.6380    1.5110 C.3    23  GLU23       0.0415
     23  CG        25.4230   19.1640    2.9410 C.3    23  GLU23       0.1163
     24  CD        24.6270   20.4130    3.1560 C.2    23  GLU23       0.3649
     25  OE1       24.2270   21.0760    2.1760 O.co2  23  GLU23      -0.2457
     26  OE2       24.4300   20.7820    4.3250 O.co2  23  GLU23      -0.2457
     27  N         23.5760   20.5150   17.1090 N.3    56  ASN56      -0.1240
     28  CA        22.5080   20.5770   16.1320 C.3    56  ASN56       0.1653
     29  C         21.9590   21.9610   15.8420 C.2    56  ASN56       0.2266
     30  O         21.2130   22.1330   14.8630 O.2    56  ASN56      -0.2867
     31  CB        21.3860   19.5780   16.4510 C.3    56  ASN56       0.1155
     32  CG        20.4770   20.0110   17.5550 C.2    56  ASN56       0.2627
     33  OD1       20.7730   20.9350   18.2840 O.2    56  ASN56      -0.2716
     34  ND2       19.3900   19.2610   17.7450 N.am   56  ASN56      -0.0877
     35  N         25.9900   23.8550    9.7410 N.3    60  PHE60      -0.1241
     36  CA        26.5080   22.5560    9.2970 C.3    60  PHE60       0.1605
     37  C         27.4410   22.7710    8.1200 C.2    60  PHE60       0.2264
     38  O         27.1860   23.6290    7.2640 O.2    60  PHE60      -0.2867
     39  CB        25.3710   21.6310    8.8580 C.3    60  PHE60       0.0534
     40  CG        24.5610   21.0050    9.9690 C.ar   60  PHE60      -0.0203
     41  CD1       24.4460   21.5590   11.2510 C.ar   60  PHE60      -0.0042
     42  CD2       23.8690   19.8420    9.7150 C.ar   60  PHE60      -0.0042
     43  CE1       23.6540   20.9560   12.1920 C.ar   60  PHE60      -0.0003
     44  CE2       23.0840   19.2510   10.6450 C.ar   60  PHE60      -0.0003
     45  CZ        22.9580   19.8250   11.8800 C.ar   60  PHE60      -0.0000
     46  N         22.4980    8.0810   10.0100 N.3   138  GLN138     -0.1245
     47  CA        21.5300    9.1100   10.3360 C.3   138  GLN138      0.1566
     48  C         20.8680    8.8390   11.6990 C.2   138  GLN138      0.2260
     49  O         20.6900    9.7720   12.4750 O.2   138  GLN138     -0.2867
     50  CB        20.4870    9.2160    9.2330 C.3   138  GLN138      0.0367
     51  CG        19.5070   10.3460    9.4420 C.3   138  GLN138      0.0905
     52  CD        18.5290   10.5060    8.3150 C.2   138  GLN138      0.2608
     53  OE1       18.0540    9.5200    7.7600 O.2   138  GLN138     -0.2717
     54  NE2       18.2930   11.7600    7.9080 N.am  138  GLN138     -0.0878
     55  N         21.1090   11.2590   15.1200 N.3   142  TYR142     -0.1241
     56  CA        20.0010   11.7870   15.9150 C.3   142  TYR142      0.1605
     57  C         20.1400   11.3810   17.3760 C.2   142  TYR142      0.2264
     58  O         19.8380   12.2040   18.2640 O.2   142  TYR142     -0.2867
     59  CB        18.6200   11.4390   15.3450 C.3   142  TYR142      0.0534
     60  CG        18.2650   12.3510   14.1960 C.ar  142  TYR142     -0.0201
     61  CD1       17.8860   13.6690   14.4420 C.ar  142  TYR142     -0.0009
     62  CD2       18.3510   11.9260   12.8700 C.ar  142  TYR142     -0.0009
     63  CE1       17.6200   14.5510   13.3880 C.ar  142  TYR142      0.0417
     64  CE2       18.0870   12.8060   11.8220 C.ar  142  TYR142      0.0417
     65  CZ        17.7330   14.1110   12.0890 C.ar  142  TYR142      0.1957
     66  OH        17.5040   15.0090   11.0840 O.3   142  TYR142     -0.2866
     67  N         22.6000   13.5850   19.0700 N.3   145  TRP145     -0.1241
     68  CA        21.9610   14.8700   19.3540 C.3   145  TRP145      0.1605
     69  C         20.9560   14.8060   20.5060 C.2   145  TRP145      0.2264
     70  O         20.7000   15.8270   21.1450 O.2   145  TRP145     -0.2867
     71  CB        21.2610   15.4150   18.0980 C.3   145  TRP145      0.0550
     72  CG        22.1840   15.9220   17.0660 C.ar  145  TRP145      0.0003
     73  CD1       23.4070   16.4590   17.2460 C.ar  145  TRP145      0.0946
     74  CD2       21.9130   15.9880   15.6500 C.ar  145  TRP145      0.0152
     75  NE1       23.9210   16.8930   16.0270 N.ar  145  TRP145     -0.2442
     76  CE2       23.0230   16.5810   15.0300 C.ar  145  TRP145      0.0810
     77  CE3       20.8480   15.5760   14.8530 C.ar  145  TRP145      0.0012
     78  CZ2       23.0850   16.7980   13.6460 C.ar  145  TRP145      0.0191
     79  CZ3       20.9340   15.7370   13.5030 C.ar  145  TRP145      0.0001
     80  CH2       22.0350   16.3520   12.9040 C.ar  145  TRP145      0.0015
     81  N         17.7410   16.5020   21.6740 N.3   151  MET151     -0.1245
     82  CA        16.9070   16.1600   20.5260 C.3   151  MET151      0.1570
     83  C         16.5420   14.6810   20.5290 C.2   151  MET151      0.2261
     84  O         17.1220   13.8650   19.8160 O.2   151  MET151     -0.2867
     85  CB        17.5970   16.5660   19.2250 C.3   151  MET151      0.0387
     86  CG        16.7040   16.3290   18.0210 C.3   151  MET151      0.0595
     87  SD        17.4260   16.8670   16.4970 S.3   151  MET151     -0.1393
     88  CE        16.4400   18.3180   16.3000 C.3   151  MET151      0.0692
     89  N          8.3770   15.4360   13.3280 N.3   160  TYR160     -0.1227
     90  CA         8.7570   15.8060   11.9610 C.3   160  TYR160      0.1736
     91  C          9.9990   15.0780   11.4600 C.2   160  TYR160      0.2595
     92  O         10.1910   14.8640   10.2670 O.2   160  TYR160     -0.2718
     93  CB         8.9480   17.3180   11.8410 C.3   160  TYR160      0.0548
     94  CG        10.2410   17.9200   12.3910 C.ar  160  TYR160     -0.0200
     95  CD1       10.5170   17.9580   13.7780 C.ar  160  TYR160     -0.0009
     96  CD2       11.1660   18.4980   11.5120 C.ar  160  TYR160     -0.0009
     97  CE1       11.6750   18.5360   14.2460 C.ar  160  TYR160      0.0417
     98  CE2       12.3040   19.1010   11.9830 C.ar  160  TYR160      0.0417
     99  CZ        12.5710   19.1020   13.3520 C.ar  160  TYR160      0.1957
    100  OH        13.7130   19.7360   13.7580 O.3   160  TYR160     -0.2866
    101  N         10.8640   14.6970   12.3860 N.am  161  ILE161     -0.1980
    102  CA        12.0330   13.8960   12.0350 C.3   161  ILE161      0.1595
    103  C         11.6340   12.4200   12.0070 C.2   161  ILE161      0.2287
    104  O         11.9450   11.7010   11.0700 O.2   161  ILE161     -0.2864
    105  CB        13.2020   14.1550   13.0340 C.3   161  ILE161      0.0276
    106  CG1       13.7300   15.6110   12.8720 C.3   161  ILE161      0.0022
    107  CG2       14.3240   13.1580   12.7830 C.3   161  ILE161      0.0022
    108  CD1       14.4400   16.1230   14.0870 C.3   161  ILE161      0.0001
@<TRIPOS>BOND
     1    21    20    2
     2    20    19    1
     3    19    22    1
     4    19    18    1
     5    22    23    1
     6    18    12   am
     7    25    24   ar
     8    16    14    1
     9    12    13    2
    10    12    11    1
    11    23    24    1
    12    24    26   ar
    13    11    14    1
    14    11    10    1
    15    14    15    1
    16     4     3    2
    17    15    17    1
    18    10     3   am
    19     3     2    1
    20     1     2    1
    21     2     5    1
    22    38    37    2
    23     5     6    1
    24    53    52    2
    25    54    52   am
    26     6     7    1
    27    37    36    1
    28    52    51    1
    29    39    36    1
    30    39    40    1
    31     7     8    2
    32     7     9   am
    33    50    51    1
    34    50    47    1
    35    36    35    1
    36    42    40   ar
    37    42    44   ar
    38    40    41   ar
    39    46    47    1
    40    92    91    2
    41    47    48    1
    42    44    45   ar
    43   104   103    2
    44    66    65    1
    45    41    43   ar
    46    91    90    1
    47    91   101   am
    48    96    98   ar
    49    96    94   ar
    50    48    49    2
    51    64    65   ar
    52    64    62   ar
    53    93    90    1
    54    93    94    1
    55    45    43   ar
    56    90    89    1
    57    98    99   ar
    58   103   102    1
    59   102   101    1
    60   102   105    1
    61    65    63   ar
    62    94    95   ar
    63   107   105    1
    64    62    60   ar
    65   106   105    1
    66   106   108    1
    67    80    79   ar
    68    80    78   ar
    69    99   100    1
    70    99    97   ar
    71    63    61   ar
    72    79    77   ar
    73    78    76   ar
    74    95    97   ar
    75    60    61   ar
    76    60    59    1
    77    77    74   ar
    78    30    29    2
    79    76    74   ar
    80    76    75   ar
    81    55    56    1
    82    59    56    1
    83    74    72   ar
    84    29    28    1
    85    56    57    1
    86    75    73   ar
    87    28    31    1
    88    28    27    1
    89    88    87    1
    90    31    32    1
    91    87    86    1
    92    72    73   ar
    93    72    71    1
    94    57    58    2
    95    32    34   am
    96    32    33    2
    97    86    85    1
    98    71    68    1
    99    67    68    1
   100    85    82    1
   101    68    69    1
   102    84    83    2
   103    69    70    2
   104    82    83    1
   105    82    81    1
