@<TRIPOS>MOLECULE
tmp/5a0qZ00.pdb
 108 100 0 0 0
SMALL
GASTEIGER

@<TRIPOS>ATOM
      1  N         21.9280    4.7920   18.9950 N.3     1  THR1       -0.1218
      2  CA        21.8070    6.2400   19.1090 C.3     1  THR1        0.1862
      3  C         21.2390    6.6130   20.4670 C.2     1  THR1        0.2287
      4  O         20.2670    7.3520   20.5710 O.2     1  THR1       -0.2866
      5  CB        20.9230    6.8100   17.9900 C.3     1  THR1        0.1770
      6  OG1       21.5020    6.4640   16.7270 O.3     1  THR1       -0.2211
      7  CG2       20.8180    8.3190   18.1070 C.3     1  THR1        0.0375
      8  N         28.1710    5.9370   18.6320 N.3    19  ARG19      -0.1182
      9  CA        28.0430    5.2690   17.3400 C.3    19  ARG19       0.1910
     10  C         26.9570    5.8890   16.5130 C.2    19  ARG19       0.2634
     11  O         25.9840    6.4000   17.0540 O.2    19  ARG19      -0.2714
     12  CB        27.7900    3.7520   17.4800 C.2    19  ARG19       0.0007
     13  CG        27.7180    2.9500   16.1660 C.2    19  ARG19       0.0176
     14  CD        27.5260    1.4330   16.3260 C.3    19  ARG19       0.2464
     15  NE        28.8260    0.7930   16.6810 N.pl3  19  ARG19      -0.0815
     16  CZ        28.9190   -0.5320   17.0000 C.cat  19  ARG19       0.5349
     17  NH1       27.8030   -1.2980   17.1460 N.pl3  19  ARG19       0.1354
     18  NH2       30.1470   -1.1050   17.1600 N.pl3  19  ARG19       0.1354
     19  N         27.1800    5.9310   15.1770 N.am   20  ALA20      -0.1963
     20  CA        26.2810    6.4070   14.1510 C.3    20  ALA20       0.1728
     21  C         26.4250    5.4510   13.0210 C.2    20  ALA20       0.2617
     22  O         27.4720    4.8400   12.8720 O.2    20  ALA20      -0.2715
     23  CB        26.6240    7.8020   13.6160 C.3    20  ALA20       0.0334
     24  N         25.3370    5.1980   12.2680 N.am   21  THR21      -0.1937
     25  CA        25.2860    4.0810   11.3580 C.3    21  THR21       0.2028
     26  C         24.4540    4.4440   10.1690 C.2    21  THR21       0.2642
     27  O         23.5890    5.3100   10.2170 O.2    21  THR21      -0.2714
     28  CB        24.6600    2.8690   12.0750 C.3    21  THR21       0.1808
     29  OG1       24.7300    1.6570   11.3340 O.3    21  THR21      -0.2208
     30  CG2       23.1840    3.1320   12.4620 C.3    21  THR21       0.0379
     31  N         24.6830    3.7180    9.0680 N.am   22  ALA22      -0.1963
     32  CA        23.8590    3.7730    7.8990 C.3    22  ALA22       0.1728
     33  C         23.8930    2.3510    7.4610 C.2    22  ALA22       0.2616
     34  O         24.9740    1.8090    7.2530 O.2    22  ALA22      -0.2715
     35  CB        24.4000    4.6580    6.7660 C.3    22  ALA22       0.0334
     36  N         22.7110    1.7130    7.2890 N.am   23  GLY23      -0.1955
     37  CA        22.6000    0.2770    7.1250 C.3    23  GLY23       0.1869
     38  C         23.0720   -0.4670    8.3410 C.2    23  GLY23       0.2309
     39  O         22.6940   -0.1320    9.4610 O.2    23  GLY23      -0.2863
     40  N         29.4630    4.1010    9.9400 N.3    27  ALA27      -0.1245
     41  CA        30.2530    5.1440    9.3540 C.3    27  ALA27       0.1562
     42  C         31.2610    5.7470   10.2950 C.2    27  ALA27       0.2260
     43  O         32.3630    6.0840    9.8750 O.2    27  ALA27      -0.2867
     44  CB        29.3600    6.2690    8.8160 C.3    27  ALA27       0.0290
     45  N         30.9070   10.7200   17.0500 N.3    31  VAL31      -0.1245
     46  CA        29.9560   11.7800   17.2990 C.3    31  VAL31       0.1561
     47  C         29.6080   11.9270   18.7450 C.2    31  VAL31       0.2260
     48  O         29.4820   10.9520   19.4800 O.2    31  VAL31      -0.2867
     49  CB        28.6800   11.6510   16.4950 C.3    31  VAL31       0.0252
     50  CG1       29.0020   11.9940   15.0330 C.3    31  VAL31       0.0019
     51  CG2       28.0830   10.2370   16.6160 C.3    31  VAL31       0.0019
     52  N         26.7530   13.4450   20.7940 N.3    33  LYS33      -0.1245
     53  CA        25.3520   13.6000   20.5330 C.3    33  LYS33       0.1561
     54  C         24.7920   14.8510   21.1390 C.2    33  LYS33       0.2260
     55  O         23.8450   15.4230   20.6190 O.2    33  LYS33      -0.2867
     56  CB        24.5520   12.4060   21.1080 C.3    33  LYS33       0.0271
     57  CG        24.9940   11.0170   20.6190 C.3    33  LYS33       0.0035
     58  CD        24.7560   10.7540   19.1400 C.3    33  LYS33       0.0206
     59  CE        25.2750    9.4020   18.6770 C.3    33  LYS33       0.1093
     60  NZ        24.5930    8.3080   19.3770 N.3    33  LYS33      -0.1314
     61  N         20.9780   14.2130   20.7800 N.3    45  MET45      -0.1245
     62  CA        20.7070   13.7390   19.4470 C.3    45  MET45       0.1570
     63  C         20.3090   12.2830   19.5220 C.2    45  MET45       0.2261
     64  O         21.0740   11.4240   19.9430 O.2    45  MET45      -0.2867
     65  CB        21.9900   13.9390   18.5960 C.3    45  MET45       0.0387
     66  CG        22.2080   13.1640   17.2830 C.3    45  MET45       0.0595
     67  SD        23.8820   13.4440   16.6030 S.3    45  MET45      -0.1393
     68  CE        23.7170   15.1760   16.0900 C.3    45  MET45       0.0692
     69  N         17.4780    9.5910   16.9770 N.3    47  GLY47      -0.1210
     70  CA        16.8960    9.6280   15.6490 C.3    47  GLY47       0.1956
     71  C         17.9240   10.0740   14.6440 C.2    47  GLY47       0.2612
     72  O         19.1050   10.0860   14.9590 O.2    47  GLY47      -0.2717
     73  N         17.4900   10.5160   13.4700 N.am   48  GLY48      -0.1942
     74  CA        18.4020   10.7860   12.3730 C.3    48  GLY48       0.2014
     75  C         19.4390   11.8330   12.7270 C.2    48  GLY48       0.2639
     76  O         19.1510   12.7930   13.4380 O.2    48  GLY48      -0.2714
     77  N         20.6620   11.6240   12.2490 N.am   49  ALA49      -0.1963
     78  CA        21.7850   12.3760   12.7160 C.3    49  ALA49       0.1728
     79  C         21.7590   13.7980   12.2890 C.2    49  ALA49       0.2616
     80  O         22.0590   14.6790   13.0850 O.2    49  ALA49      -0.2715
     81  CB        23.0980   11.7710   12.2080 C.3    49  ALA49       0.0334
     82  N         21.4250   14.0530   11.0050 N.am   50  ALA50      -0.1977
     83  CA        21.4100   15.3750   10.4310 C.3    50  ALA50       0.1597
     84  C         20.3420   16.2510   11.0250 C.2    50  ALA50       0.2287
     85  O         20.5030   17.4640   11.1490 O.2    50  ALA50      -0.2864
     86  CB        21.1860   15.3010    8.9180 C.3    50  ALA50       0.0319
     87  N         16.1720    6.8780   22.4040 N.3   127  GLY127     -0.1210
     88  CA        16.8420    6.2000   21.3450 C.3   127  GLY127      0.1956
     89  C         16.4730    4.7790   21.3660 C.2   127  GLY127      0.2612
     90  O         15.5480    4.3530   22.0440 O.2   127  GLY127     -0.2717
     91  N         17.1850    4.0330   20.5120 N.am  128  SER128     -0.1952
     92  CA        17.0200    2.6410   20.2430 C.3   128  SER128      0.1924
     93  C         17.2480    1.7910   21.4370 C.2   128  SER128      0.2314
     94  O         16.5370    0.8200   21.6610 O.2   128  SER128     -0.2863
     95  CB        18.0010    2.2150   19.1300 C.3   128  SER128      0.2116
     96  OG        19.3140    2.7110   19.3640 O.3   128  SER128     -0.2180
     97  N         23.0880   -1.1020   16.9330 N.3   167  TYR167     -0.1241
     98  CA        23.3380    0.1700   16.3130 C.3   167  TYR167      0.1605
     99  C         23.8840    1.1880   17.2800 C.2   167  TYR167      0.2264
    100  O         24.0360    2.3520   16.9170 O.2   167  TYR167     -0.2867
    101  CB        22.0510    0.6990   15.6560 C.3   167  TYR167      0.0534
    102  CG        21.6260   -0.2860   14.6010 C.ar  167  TYR167     -0.0201
    103  CD1       22.4480   -0.5400   13.4880 C.ar  167  TYR167     -0.0009
    104  CD2       20.4210   -0.9950   14.7210 C.ar  167  TYR167     -0.0009
    105  CE1       22.0820   -1.4860   12.5240 C.ar  167  TYR167      0.0417
    106  CE2       20.0440   -1.9310   13.7490 C.ar  167  TYR167      0.0417
    107  CZ        20.8770   -2.1820   12.6530 C.ar  167  TYR167      0.1957
    108  OH        20.5070   -3.1360   11.6800 O.3   167  TYR167     -0.2866
@<TRIPOS>BOND
     1    35    32    1
     2    37    36    1
     3    37    38    1
     4    34    33    2
     5    36    33   am
     6    33    32    1
     7    32    31    1
     8    38    39    2
     9    44    41    1
    10    86    83    1
    11    31    26   am
    12    41    40    1
    13    41    42    1
    14    43    42    2
    15    26    27    2
    16    26    25    1
    17    83    82    1
    18    83    84    1
    19    82    79   am
    20    84    85    2
    21    29    28    1
    22    25    28    1
    23    25    24    1
    24   108   107    1
    25    28    30    1
    26    81    78    1
    27    77    78    1
    28    77    75   am
    29    24    21   am
    30    79    78    1
    31    79    80    2
    32    74    75    1
    33    74    73    1
    34   105   107   ar
    35   105   103   ar
    36   107   106   ar
    37    75    76    2
    38    22    21    2
    39    21    20    1
    40    73    71   am
    41   103   102   ar
    42    23    20    1
    43   106   104   ar
    44    20    19    1
    45   102   104   ar
    46   102   101    1
    47    71    72    2
    48    71    70    1
    49    50    49    1
    50    19    10   am
    51    70    69    1
    52   101    98    1
    53    68    67    1
    54    13    14    1
    55    13    12    2
    56    98    97    1
    57    98    99    1
    58    14    15    1
    59    49    51    1
    60    49    46    1
    61    10    11    2
    62    10     9    1
    63    67    66    1
    64    15    16    2
    65     6     5    1
    66   100    99    2
    67    16    17    1
    68    16    18    1
    69    45    46    1
    70    66    65    1
    71    46    47    1
    72     9    12    1
    73     9     8    1
    74     5     7    1
    75     5     2    1
    76    65    62    1
    77    59    58    1
    78    59    60    1
    79    47    48    2
    80     1     2    1
    81     2     3    1
    82    95    96    1
    83    95    92    1
    84    58    57    1
    85    62    63    1
    86    62    61    1
    87    63    64    2
    88    92    91    1
    89    92    93    1
    90     3     4    2
    91    91    89   am
    92    53    52    1
    93    53    56    1
    94    53    54    1
    95    55    54    2
    96    57    56    1
    97    88    89    1
    98    88    87    1
    99    89    90    2
   100    93    94    2
