@<TRIPOS>MOLECULE
tmp/5a0qV00.pdb
 118 110 0 0 0
SMALL
GASTEIGER

@<TRIPOS>ATOM
      1  N         -9.2770    5.0120  -34.9750 N.3     1  THR1       -0.1218
      2  CA        -9.4450    6.1500  -35.8680 C.3     1  THR1        0.1862
      3  C         -8.5800    5.9850  -37.1080 C.2     1  THR1        0.2287
      4  O         -7.7400    5.0920  -37.1720 O.2     1  THR1       -0.2866
      5  CB        -9.0890    7.4770  -35.1680 C.3     1  THR1        0.1770
      6  OG1       -9.9930    7.6960  -34.0750 O.3     1  THR1       -0.2211
      7  CG2       -9.1860    8.6320  -36.1460 C.3     1  THR1        0.0375
      8  N        -16.6310    8.2250  -38.0760 N.3    19  ARG19      -0.1231
      9  CA       -17.0950    7.7640  -36.7890 C.3    19  ARG19       0.1694
     10  C        -16.3260    8.3990  -35.6950 C.2    19  ARG19       0.2593
     11  O        -15.1270    8.5790  -35.8360 O.2    19  ARG19      -0.2718
     12  CB       -16.9370    6.2400  -36.6610 C.3    19  ARG19       0.0321
     13  CG       -18.0460    5.5140  -37.4270 C.3    19  ARG19       0.0489
     14  CD       -17.8150    4.0220  -37.6290 C.3    19  ARG19       0.2205
     15  NE       -17.3320    3.3940  -36.3690 N.pl3  19  ARG19      -0.0865
     16  CZ       -17.2580    2.0410  -36.2070 C.cat  19  ARG19       0.5346
     17  NH1      -17.7270    1.1720  -37.1480 N.pl3  19  ARG19       0.1354
     18  NH2      -16.6960    1.5580  -35.0660 N.pl3  19  ARG19       0.1354
     19  N        -16.9840    8.6960  -34.5510 N.am   20  THR20      -0.1939
     20  CA       -16.2900    9.1420  -33.3620 C.3    20  THR20       0.2028
     21  C        -16.7920    8.3270  -32.2130 C.2    20  THR20       0.2643
     22  O        -17.4270    8.8340  -31.2960 O.2    20  THR20      -0.2714
     23  CB       -16.4380   10.6320  -33.0460 C.3    20  THR20       0.1808
     24  OG1      -17.7820   11.0850  -33.1600 O.3    20  THR20      -0.2208
     25  CG2      -15.5360   11.4300  -34.0090 C.3    20  THR20       0.0379
     26  N        -16.4240    7.0360  -32.2010 N.am   21  THR21      -0.1936
     27  CA       -16.8260    6.0640  -31.2230 C.3    21  THR21       0.2028
     28  C        -16.3090    6.3780  -29.8600 C.2    21  THR21       0.2643
     29  O        -15.2080    6.8930  -29.7200 O.2    21  THR21      -0.2714
     30  CB       -16.4150    4.6450  -31.6020 C.3    21  THR21       0.1808
     31  OG1      -15.0260    4.3680  -31.4280 O.3    21  THR21      -0.2208
     32  CG2      -16.7620    4.4270  -33.0780 C.3    21  THR21       0.0379
     33  N        -17.1070    6.1080  -28.8260 N.am   22  THR22      -0.1936
     34  CA       -16.6330    6.1020  -27.4780 C.3    22  THR22       0.2028
     35  C        -16.7900    4.6710  -27.0600 C.2    22  THR22       0.2642
     36  O        -17.8900    4.1400  -26.9290 O.2    22  THR22      -0.2714
     37  CB       -17.3550    7.1180  -26.5900 C.3    22  THR22       0.1808
     38  OG1      -16.8960    7.0570  -25.2460 O.3    22  THR22      -0.2208
     39  CG2      -18.8970    6.9960  -26.6240 C.3    22  THR22       0.0379
     40  N        -15.6410    3.9830  -26.8970 N.am   23  GLY23      -0.1954
     41  CA       -15.5840    2.5530  -26.7360 C.3    23  GLY23       0.1869
     42  C        -16.0220    1.8430  -27.9870 C.2    23  GLY23       0.2309
     43  O        -15.6810    2.2400  -29.0980 O.2    23  GLY23      -0.2863
     44  N        -20.7870    6.7960  -31.2730 N.3    27  ALA27      -0.1245
     45  CA       -21.5450    7.9970  -31.0920 C.3    27  ALA27       0.1562
     46  C        -21.3250    8.7990  -32.3350 C.2    27  ALA27       0.2260
     47  O        -20.3090    9.4690  -32.4300 O.2    27  ALA27      -0.2867
     48  CB       -21.1040    8.7840  -29.8520 C.3    27  ALA27       0.0290
     49  N        -14.0830   15.4980  -39.2080 N.3    33  LYS33      -0.1245
     50  CA       -12.8570   15.5830  -38.4520 C.3    33  LYS33       0.1561
     51  C        -11.8890   16.4370  -39.1720 C.2    33  LYS33       0.2260
     52  O        -10.8420   16.7300  -38.6200 O.2    33  LYS33      -0.2867
     53  CB       -12.1500   14.2200  -38.3080 C.3    33  LYS33       0.0271
     54  CG       -12.9020   13.2100  -37.4400 C.3    33  LYS33       0.0035
     55  CD       -12.2490   11.8220  -37.4790 C.3    33  LYS33       0.0206
     56  CE       -12.9300   10.8280  -36.5410 C.3    33  LYS33       0.1093
     57  NZ       -12.4190    9.4580  -36.7420 N.3    33  LYS33      -0.1314
     58  N         -7.8250   15.3990  -36.8730 N.3    45  ARG45      -0.1231
     59  CA        -7.5200   15.0360  -35.4990 C.3    45  ARG45       0.1694
     60  C         -7.7290   13.5880  -35.1840 C.2    45  ARG45       0.2593
     61  O         -8.5550   12.9130  -35.7800 O.2    45  ARG45      -0.2718
     62  CB        -8.3910   15.7750  -34.4690 C.3    45  ARG45       0.0321
     63  CG        -9.8980   15.5030  -34.5910 C.3    45  ARG45       0.0489
     64  CD       -10.7250   16.0830  -33.4460 C.3    45  ARG45       0.2205
     65  NE       -12.1370   15.6210  -33.6000 N.pl3  45  ARG45      -0.0865
     66  CZ       -13.0440   16.2260  -34.4260 C.cat  45  ARG45       0.5346
     67  NH1      -12.7330   17.3600  -35.1180 N.pl3  45  ARG45       0.1354
     68  NH2      -14.2890   15.6820  -34.5550 N.pl3  45  ARG45       0.1354
     69  N         -6.9240   13.1730  -34.2080 N.am   46  SER46      -0.1938
     70  CA        -6.9060   11.8830  -33.5480 C.3    46  SER46       0.2055
     71  C         -6.4190   12.2110  -32.1380 C.2    46  SER46       0.2644
     72  O         -5.9610   13.3200  -31.8810 O.2    46  SER46      -0.2714
     73  CB        -5.9380   10.9300  -34.2380 C.3    46  SER46       0.2130
     74  OG        -5.3710   10.0140  -33.3160 O.3    46  SER46      -0.2179
     75  N         -6.4860   11.2140  -31.2630 N.am   47  GLY47      -0.1939
     76  CA        -6.2600   11.4090  -29.8480 C.3    47  GLY47       0.2014
     77  C         -7.7530   11.3950  -29.6110 C.2    47  GLY47       0.2640
     78  O         -8.4950   10.6680  -30.2730 O.2    47  GLY47      -0.2714
     79  N         -8.1940   12.2110  -28.6640 N.am   48  SER48      -0.1935
     80  CA        -9.5880   12.3750  -28.4020 C.3    48  SER48       0.2055
     81  C        -10.1990   13.5630  -29.0310 C.2    48  SER48       0.2643
     82  O         -9.5140   14.5540  -29.2460 O.2    48  SER48      -0.2714
     83  CB        -9.6380   12.5500  -26.8720 C.3    48  SER48       0.2130
     84  OG       -10.9700   12.4600  -26.3900 O.3    48  SER48      -0.2179
     85  N        -11.5250   13.5140  -29.2790 N.am   49  ALA49      -0.1963
     86  CA       -12.2700   14.6240  -29.8050 C.3    49  ALA49       0.1728
     87  C        -12.3200   15.7150  -28.7770 C.2    49  ALA49       0.2616
     88  O        -12.2030   16.8790  -29.1260 O.2    49  ALA49      -0.2715
     89  CB       -13.7070   14.2630  -30.1890 C.3    49  ALA49       0.0334
     90  N        -12.4400   15.3490  -27.4790 N.am   50  ALA50      -0.1977
     91  CA       -12.6010   16.2760  -26.3990 C.3    50  ALA50       0.1597
     92  C        -11.4410   17.1760  -26.1360 C.2    50  ALA50       0.2287
     93  O        -11.6320   18.3590  -25.8660 O.2    50  ALA50      -0.2864
     94  CB       -12.8010   15.5320  -25.0860 C.3    50  ALA50       0.0319
     95  N         -4.3720   14.5080  -25.0880 N.3    95  MET95      -0.1245
     96  CA        -4.0710   13.5260  -26.0940 C.3    95  MET95       0.1570
     97  C         -4.4290   14.2370  -27.3810 C.2    95  MET95       0.2261
     98  O         -5.5210   14.7960  -27.4920 O.2    95  MET95      -0.2867
     99  CB        -4.9330   12.2790  -25.9130 C.3    95  MET95       0.0387
    100  CG        -4.5700   11.4460  -24.6950 C.3    95  MET95       0.0595
    101  SD        -5.7380   10.1060  -24.3940 S.3    95  MET95      -0.1393
    102  CE        -5.0880    8.8390  -25.4800 C.3    95  MET95       0.0692
    103  N         -4.1840    7.8600  -35.9260 N.3   124  GLY124     -0.1210
    104  CA        -5.2230    7.1010  -35.2810 C.3   124  GLY124      0.1956
    105  C         -4.7190    5.7740  -34.8320 C.2   124  GLY124      0.2612
    106  O         -3.5150    5.5380  -34.7730 O.2   124  GLY124     -0.2717
    107  N         -5.6650    4.8600  -34.5220 N.am  125  SER125     -0.1952
    108  CA        -5.3790    3.5200  -34.0820 C.3   125  SER125      0.1924
    109  C         -5.8730    2.5860  -35.1470 C.2   125  SER125      0.2314
    110  O         -5.7950    1.3670  -34.9970 O.2   125  SER125     -0.2863
    111  CB        -6.0930    3.1710  -32.7600 C.3   125  SER125      0.2116
    112  OG        -5.5900    3.9780  -31.7030 O.3   125  SER125     -0.2180
    113  N        -12.9340    0.9910  -35.5020 N.3   164  SER164     -0.1217
    114  CA       -13.0810    2.3310  -34.9490 C.3   164  SER164      0.1889
    115  C        -13.4180    3.3420  -36.0410 C.2   164  SER164      0.2288
    116  O        -13.6550    4.5170  -35.7600 O.2   164  SER164     -0.2866
    117  CB       -11.8050    2.7510  -34.2180 C.3   164  SER164      0.2089
    118  OG       -11.8630    2.3980  -32.8470 O.3   164  SER164     -0.2183
@<TRIPOS>BOND
     1    49    50    1
     2    51    52    2
     3    51    50    1
     4    50    53    1
     5    53    54    1
     6     8     9    1
     7    14    13    1
     8    14    15    1
     9    55    54    1
    10    55    56    1
    11    13    12    1
    12     4     3    2
    13    17    16    1
    14     3     2    1
    15    58    59    1
    16     9    12    1
    17     9    10    1
    18    57    56    1
    19    15    16    2
    20    16    18    1
    21     7     5    1
    22   115   116    2
    23   115   114    1
    24   103   104    1
    25     2     5    1
    26     2     1    1
    27    11    10    2
    28    61    60    2
    29    10    19   am
    30   113   114    1
    31    59    60    1
    32    59    62    1
    33   104   105    1
    34    60    69   am
    35     5     6    1
    36   109   110    2
    37   109   108    1
    38    67    66    1
    39   114   117    1
    40   105   106    2
    41   105   107   am
    42    63    62    1
    43    63    64    1
    44    68    66    1
    45    19    20    1
    46   107   108    1
    47    66    65    2
    48    73    70    1
    49    73    74    1
    50   117   118    1
    51    69    70    1
    52   108   111    1
    53    25    23    1
    54    65    64    1
    55    70    71    1
    56    20    23    1
    57    20    21    1
    58    24    23    1
    59    32    30    1
    60   111   112    1
    61    47    46    2
    62    46    45    1
    63    21    26   am
    64    21    22    2
    65    26    27    1
    66    71    72    2
    67    71    75   am
    68    30    31    1
    69    30    27    1
    70    44    45    1
    71    75    76    1
    72    27    28    1
    73    45    48    1
    74    78    77    2
    75    89    86    1
    76    28    29    2
    77    28    33   am
    78    76    77    1
    79    86    85    1
    80    86    87    1
    81    77    79   am
    82    85    81   am
    83    82    81    2
    84    88    87    2
    85    43    42    2
    86    81    80    1
    87    33    34    1
    88    87    90   am
    89    79    80    1
    90    80    83    1
    91    42    41    1
    92    98    97    2
    93    90    91    1
    94    34    35    1
    95    34    37    1
    96    97    96    1
    97    35    36    2
    98    35    40   am
    99    40    41    1
   100    83    84    1
   101    39    37    1
   102    37    38    1
   103    91    92    1
   104    91    94    1
   105    92    93    2
   106    96    99    1
   107    96    95    1
   108    99   100    1
   109   102   101    1
   110   100   101    1
