@<TRIPOS>MOLECULE
tmp/5a0qI00.pdb
 132 123 0 0 0
SMALL
GASTEIGER

@<TRIPOS>ATOM
      1  N         30.7490  -11.1960  -16.8750 N.3     1  THR1       -0.1218
      2  CA        30.0740  -12.4600  -17.1040 C.3     1  THR1        0.1862
      3  C         29.9200  -12.7500  -18.5890 C.2     1  THR1        0.2287
      4  O         28.9210  -13.3320  -19.0050 O.2     1  THR1       -0.2866
      5  CB        28.6830  -12.4390  -16.4630 C.3     1  THR1        0.1770
      6  OG1       28.1080  -13.7500  -16.4920 O.3     1  THR1       -0.2211
      7  CG2       27.7790  -11.4660  -17.2020 C.3     1  THR1        0.0375
      8  N         35.2920  -14.4380  -13.6880 N.3    19  ARG19      -0.1231
      9  CA        34.7490  -13.6310  -12.6130 C.3    19  ARG19       0.1694
     10  C         33.3370  -14.0790  -12.2790 C.2    19  ARG19       0.2592
     11  O         32.5580  -14.4190  -13.1700 O.2    19  ARG19      -0.2718
     12  CB        34.7530  -12.1510  -13.0010 C.3    19  ARG19       0.0321
     13  CG        34.2470  -11.2220  -11.9090 C.3    19  ARG19       0.0489
     14  CD        34.4700   -9.7640  -12.2770 C.3    19  ARG19       0.2205
     15  NE        35.5710   -9.1710  -11.5220 N.pl3  19  ARG19      -0.0865
     16  CZ        36.0170   -7.9320  -11.6990 C.cat  19  ARG19       0.5346
     17  NH1       35.4560   -7.1470  -12.6090 N.pl3  19  ARG19       0.1354
     18  NH2       37.0240   -7.4770  -10.9660 N.pl3  19  ARG19       0.1354
     19  N         32.9990  -14.0590  -10.9960 N.am   20  ALA20      -0.1966
     20  CA        31.6330  -14.1980  -10.5960 C.3    20  ALA20       0.1728
     21  C         31.4840  -13.2390   -9.4810 C.2    20  ALA20       0.2617
     22  O         32.3450  -13.1730   -8.6150 O.2    20  ALA20      -0.2715
     23  CB        31.2410  -15.5970  -10.1010 C.3    20  ALA20       0.0334
     24  N         30.3760  -12.4660   -9.5170 N.am   21  THR21      -0.1937
     25  CA        30.0590  -11.3680   -8.6420 C.3    21  THR21       0.2028
     26  C         28.7930  -11.7350   -7.9560 C.2    21  THR21       0.2642
     27  O         27.9060  -12.3020   -8.5780 O.2    21  THR21      -0.2714
     28  CB        29.7890  -10.0560   -9.3680 C.3    21  THR21       0.1808
     29  OG1       29.0630  -10.2710  -10.5710 O.3    21  THR21      -0.2208
     30  CG2       31.1180   -9.3700   -9.7120 C.3    21  THR21       0.0379
     31  N         28.7440  -11.5000   -6.6480 N.am   22  GLU22      -0.1963
     32  CA        27.4990  -11.4460   -5.8950 C.3    22  GLU22       0.1733
     33  C         26.9760  -10.0100   -5.8300 C.2    22  GLU22       0.2616
     34  O         27.0280   -9.3660   -4.7830 O.2    22  GLU22      -0.2715
     35  CB        27.6790  -12.0180   -4.4890 C.3    22  GLU22       0.0429
     36  CG        28.6030  -11.2120   -3.5930 C.3    22  GLU22       0.1163
     37  CD        29.1230  -12.0180   -2.4250 C.2    22  GLU22       0.3649
     38  OE1       28.3710  -12.8700   -1.9090 O.co2  22  GLU22      -0.2457
     39  OE2       30.2870  -11.7980   -2.0290 O.co2  22  GLU22      -0.2457
     40  N         26.4690   -9.5110   -6.9490 N.am   23  GLY23      -0.1955
     41  CA        25.9650   -8.1650   -7.0170 C.3    23  GLY23       0.1869
     42  C         27.0920   -7.2420   -7.3310 C.2    23  GLY23       0.2309
     43  O         27.5360   -7.1820   -8.4730 O.2    23  GLY23      -0.2863
     44  N         33.1550  -12.1470   -5.6660 N.3    27  ALA27      -0.1231
     45  CA        33.3440  -13.1930   -4.7050 C.3    27  ALA27       0.1694
     46  C         34.3190  -14.2130   -5.1970 C.2    27  ALA27       0.2592
     47  O         34.7360  -15.0810   -4.4390 O.2    27  ALA27      -0.2718
     48  CB        32.0320  -13.9160   -4.3940 C.3    27  ALA27       0.0304
     49  N         34.6540  -14.1920   -6.4950 N.am   28  ASP28      -0.1974
     50  CA        35.4440  -15.2340   -7.0680 C.3    28  ASP28       0.1709
     51  C         36.0700  -14.5700   -8.2280 C.2    28  ASP28       0.2293
     52  O         35.3570  -14.1180   -9.1160 O.2    28  ASP28      -0.2864
     53  CB        34.5090  -16.3790   -7.5190 C.3    28  ASP28       0.1436
     54  CG        35.1990  -17.6560   -7.9820 C.2    28  ASP28       0.3671
     55  OD1       36.4540  -17.7280   -7.9280 O.co2  28  ASP28      -0.2456
     56  OD2       34.4540  -18.5930   -8.3870 O.co2  28  ASP28      -0.2456
     57  N         36.7400  -17.8560  -11.4360 N.3    31  CYS31      -0.1235
     58  CA        35.5860  -18.7040  -11.5350 C.3    31  CYS31       0.1677
     59  C         35.6520  -19.5020  -12.8100 C.2    31  CYS31       0.2270
     60  O         35.9180  -18.9510  -13.8760 O.2    31  CYS31      -0.2867
     61  CB        34.2960  -17.8650  -11.5060 C.3    31  CYS31       0.0956
     62  SG        32.7740  -18.8580  -11.4180 S.3    31  CYS31      -0.0801
     63  N         33.9000  -21.5600  -15.5940 N.3    33  LYS33      -0.1245
     64  CA        32.6320  -21.5620  -16.2970 C.3    33  LYS33       0.1561
     65  C         32.5740  -22.4420  -17.5470 C.2    33  LYS33       0.2260
     66  O         31.4890  -22.6160  -18.1010 O.2    33  LYS33      -0.2867
     67  CB        32.2280  -20.1280  -16.6570 C.3    33  LYS33       0.0271
     68  CG        31.5320  -19.3790  -15.5330 C.3    33  LYS33       0.0035
     69  CD        31.1400  -17.9750  -15.9650 C.3    33  LYS33       0.0206
     70  CE        32.3070  -17.0100  -15.8330 C.3    33  LYS33       0.1093
     71  NZ        33.2200  -17.3920  -14.7210 N.3    33  LYS33      -0.1314
     72  N         32.3640  -25.5140  -18.2800 N.3    35  HIS35      -0.1241
     73  CA        32.1010  -26.7720  -17.6490 C.3    35  HIS35       0.1621
     74  C         32.1530  -27.9210  -18.6100 C.2    35  HIS35       0.2264
     75  O         31.6890  -27.8470  -19.7410 O.2    35  HIS35      -0.2867
     76  CB        30.7200  -26.8070  -17.0020 C.3    35  HIS35       0.0745
     77  CG        30.4750  -25.7400  -16.0020 C.ar   35  HIS35       0.0817
     78  ND1       30.6060  -25.9060  -14.6450 N.ar   35  HIS35      -0.2268
     79  CD2       30.0360  -24.4710  -16.1860 C.ar   35  HIS35       0.1154
     80  CE1       30.2370  -24.7320  -14.0770 C.ar   35  HIS35       0.1986
     81  NE2       29.8870  -23.8320  -14.9720 N.ar   35  HIS35      -0.2212
     82  N         28.4780  -21.2480  -18.9790 N.3    45  GLY45      -0.1210
     83  CA        27.2430  -20.8270  -18.3700 C.3    45  GLY45       0.1956
     84  C         27.3230  -19.3950  -17.9780 C.2    45  GLY45       0.2612
     85  O         28.4050  -18.8420  -17.8380 O.2    45  GLY45      -0.2717
     86  N         26.1430  -18.7580  -17.8250 N.am   46  ALA46      -0.1965
     87  CA        25.9790  -17.3600  -17.5230 C.3    46  ALA46       0.1728
     88  C         24.6480  -17.2250  -16.8560 C.2    46  ALA46       0.2617
     89  O         23.8930  -18.1830  -16.7480 O.2    46  ALA46      -0.2715
     90  CB        25.9570  -16.4620  -18.7690 C.3    46  ALA46       0.0334
     91  N         24.3200  -16.0180  -16.3550 N.am   47  GLY47      -0.1940
     92  CA        23.1950  -15.8400  -15.4660 C.3    47  GLY47       0.2014
     93  C         23.6430  -16.2910  -14.1060 C.2    47  GLY47       0.2640
     94  O         24.8180  -16.1440  -13.7740 O.2    47  GLY47      -0.2714
     95  N         22.7190  -16.8580  -13.2920 N.am   48  THR48      -0.1936
     96  CA        23.0130  -17.3850  -11.9770 C.3    48  THR48       0.2028
     97  C         23.9490  -18.5420  -12.1080 C.2    48  THR48       0.2642
     98  O         23.6680  -19.4870  -12.8280 O.2    48  THR48      -0.2714
     99  CB        21.7820  -17.8800  -11.2440 C.3    48  THR48       0.1808
    100  OG1       20.7760  -16.8800  -11.2310 O.3    48  THR48      -0.2208
    101  CG2       22.1340  -18.2550   -9.7870 C.3    48  THR48       0.0379
    102  N         25.0890  -18.5060  -11.3970 N.am   49  ALA49      -0.1963
    103  CA        26.1220  -19.5010  -11.5080 C.3    49  ALA49       0.1728
    104  C         25.6900  -20.8170  -10.9260 C.2    49  ALA49       0.2616
    105  O         26.1260  -21.8570  -11.3920 O.2    49  ALA49      -0.2715
    106  CB        27.4290  -19.0370  -10.8560 C.3    49  ALA49       0.0334
    107  N         24.7840  -20.8010   -9.9230 N.am   50  ALA50      -0.1977
    108  CA        24.2750  -21.9590   -9.2190 C.3    50  ALA50       0.1597
    109  C         23.4690  -22.8410  -10.1200 C.2    50  ALA50       0.2287
    110  O         23.6910  -24.0450  -10.1910 O.2    50  ALA50      -0.2864
    111  CB        23.3790  -21.5790   -8.0380 C.3    50  ALA50       0.0319
    112  N         23.4800  -22.6360  -13.3960 N.3    52  THR52      -0.1218
    113  CA        24.2670  -23.0490  -14.5080 C.3    52  THR52       0.1862
    114  C         25.1180  -24.2190  -14.1410 C.2    52  THR52       0.2287
    115  O         25.2780  -25.1270  -14.9410 O.2    52  THR52      -0.2866
    116  CB        25.0320  -21.8680  -15.1000 C.3    52  THR52       0.1770
    117  OG1       25.6370  -22.2580  -16.3180 O.3    52  THR52      -0.2211
    118  CG2       26.1080  -21.2590  -14.1750 C.3    52  THR52       0.0375
    119  N         25.9970  -13.6200  -21.4290 N.3   128  GLY128     -0.1210
    120  CA        26.4430  -12.9630  -20.2510 C.3   128  GLY128      0.1956
    121  C         26.0750  -11.5280  -20.2910 C.2   128  GLY128      0.2612
    122  O         25.4520  -11.0350  -21.2220 O.2   128  GLY128     -0.2717
    123  N         26.5040  -10.8130  -19.2390 N.am  129  SER129     -0.1952
    124  CA        26.3390   -9.4050  -19.0170 C.3   129  SER129      0.1924
    125  C         27.0310   -8.6190  -20.1000 C.2   129  SER129      0.2314
    126  O         26.6150   -7.5200  -20.4520 O.2   129  SER129     -0.2863
    127  CB        26.9560   -8.9830  -17.6580 C.3   129  SER129      0.2116
    128  OG        26.4020   -9.7160  -16.5740 O.3   129  SER129     -0.2180
    129  N         30.2990   -6.2100  -14.8790 N.3   168  GLY168     -0.1225
    130  CA        29.9370   -7.4660  -14.2840 C.3   168  GLY168      0.1811
    131  C         31.0000   -8.4800  -14.6240 C.2   168  GLY168      0.2280
    132  O         31.0530   -9.5480  -14.0140 O.2   168  GLY168     -0.2866
@<TRIPOS>BOND
     1   119   120    1
     2   122   121    2
     3   126   125    2
     4   121   120    1
     5   121   123   am
     6   125   124    1
     7    75    74    2
     8   123   124    1
     9   124   127    1
    10     4     3    2
    11    82    83    1
    12    90    87    1
    13    74    73    1
    14     3     2    1
    15    83    84    1
    16    72    73    1
    17    66    65    2
    18    84    85    2
    19    84    86   am
    20    86    87    1
    21   127   128    1
    22    73    76    1
    23    65    64    1
    24    87    88    1
    25     7     5    1
    26     2     1    1
    27     2     5    1
    28    76    77    1
    29    88    89    2
    30    88    91   am
    31    67    64    1
    32    67    68    1
    33     6     5    1
    34    91    92    1
    35   117   116    1
    36    64    63    1
    37    79    77   ar
    38    79    81   ar
    39    77    78   ar
    40    69    70    1
    41    69    68    1
    42    70    71    1
    43    92    93    1
    44   116   113    1
    45   116   118    1
    46    81    80   ar
    47   115   114    2
    48   129   130    1
    49    78    80   ar
    50   131   130    1
    51   131   132    2
    52   113   114    1
    53   113   112    1
    54    93    94    2
    55    93    95   am
    56    60    59    2
    57     8     9    1
    58    95    96    1
    59    11    10    2
    60    12     9    1
    61    12    13    1
    62    98    97    2
    63    59    58    1
    64     9    10    1
    65    17    16    1
    66    10    19   am
    67    14    13    1
    68    14    15    1
    69    97    96    1
    70    97   102   am
    71    96    99    1
    72    16    15    2
    73    16    18    1
    74    58    61    1
    75    58    57    1
    76   103   102    1
    77   103   104    1
    78   103   106    1
    79    61    62    1
    80   105   104    2
    81    99   100    1
    82    99   101    1
    83    19    20    1
    84   104   107   am
    85    20    23    1
    86    20    21    1
    87    29    28    1
    88   110   109    2
    89   109   108    1
    90   107   108    1
    91    30    28    1
    92    24    21   am
    93    24    25    1
    94    21    22    2
    95    28    25    1
    96   108   111    1
    97    52    51    2
    98    25    26    1
    99    27    26    2
   100    43    42    2
   101    56    54   ar
   102    51    50    1
   103    54    55   ar
   104    54    53    1
   105    26    31   am
   106    53    50    1
   107    42    41    1
   108    50    49    1
   109    41    40    1
   110    40    33   am
   111    31    32    1
   112    49    46   am
   113    32    33    1
   114    32    35    1
   115    33    34    2
   116    44    45    1
   117    46    45    1
   118    46    47    2
   119    45    48    1
   120    35    36    1
   121    36    37    1
   122    37    39   ar
   123    37    38   ar
