@<TRIPOS>MOLECULE
tmp/5a0rB00.pdb
 203 200 0 0 0
SMALL
GASTEIGER

@<TRIPOS>ATOM
      1  N        -49.9340  -19.4300  293.0990 N.3    64  TYR64      -0.1241
      2  CA       -50.4480  -18.9100  291.8380 C.3    64  TYR64       0.1605
      3  C        -51.6210  -19.7420  291.2980 C.2    64  TYR64       0.2264
      4  O        -52.0670  -19.4980  290.1800 O.2    64  TYR64      -0.2867
      5  CB       -49.3420  -18.8330  290.7980 C.3    64  TYR64       0.0534
      6  CG       -48.1670  -17.9660  291.2150 C.ar   64  TYR64      -0.0201
      7  CD1      -48.3380  -16.5970  291.4800 C.ar   64  TYR64      -0.0009
      8  CD2      -46.9110  -18.4950  291.3440 C.ar   64  TYR64      -0.0009
      9  CE1      -47.2870  -15.8080  291.8770 C.ar   64  TYR64       0.0417
     10  CE2      -45.8720  -17.6970  291.7320 C.ar   64  TYR64       0.0417
     11  CZ       -46.0510  -16.3620  291.9910 C.ar   64  TYR64       0.1957
     12  OH       -44.9770  -15.6010  292.3860 O.3    64  TYR64      -0.2866
     13  N        -54.5910  -19.4670  291.9010 N.3    66  TYR66      -0.1227
     14  CA       -55.6870  -18.5310  291.6480 C.3    66  TYR66       0.1736
     15  C        -55.6340  -17.9400  290.2290 C.2    66  TYR66       0.2595
     16  O        -56.6410  -17.4460  289.7420 O.2    66  TYR66      -0.2718
     17  CB       -55.7010  -17.3930  292.6740 C.3    66  TYR66       0.0548
     18  CG       -54.6870  -16.2980  292.4340 C.ar   66  TYR66      -0.0200
     19  CD1      -53.3580  -16.4320  292.8710 C.ar   66  TYR66      -0.0009
     20  CD2      -55.0260  -15.1410  291.7440 C.ar   66  TYR66      -0.0009
     21  CE1      -52.4420  -15.4370  292.6250 C.ar   66  TYR66       0.0417
     22  CE2      -54.1440  -14.1430  291.5290 C.ar   66  TYR66       0.0417
     23  CZ       -52.8410  -14.2800  291.9650 C.ar   66  TYR66       0.1957
     24  OH       -51.9290  -13.2770  291.7210 O.3    66  TYR66      -0.2866
     25  N        -54.5030  -18.0300  289.5540 N.am   67  LEU67      -0.1980
     26  CA       -54.3930  -17.5500  288.1610 C.3    67  LEU67       0.1596
     27  C        -54.7370  -18.5860  287.1070 C.2    67  LEU67       0.2287
     28  O        -54.7400  -18.2630  285.9080 O.2    67  LEU67      -0.2864
     29  CB       -53.0000  -17.0000  287.8830 C.3    67  LEU67       0.0297
     30  CG       -52.6240  -15.7620  288.7270 C.3    67  LEU67       0.0022
     31  CD1      -51.1770  -15.4850  288.5900 C.3    67  LEU67       0.0001
     32  CD2      -53.4480  -14.5400  288.2850 C.3    67  LEU67       0.0001
     33  N        -53.8650  -12.9710  281.0120 N.3    72  PRO72      -0.2102
     34  CA       -53.0950  -11.7750  281.3870 C.3    72  PRO72       0.1504
     35  C        -53.4100  -10.5690  280.5370 C.2    72  PRO72       0.2575
     36  O        -53.9050  -10.6790  279.4280 O.2    72  PRO72      -0.2718
     37  CB       -51.6410  -12.1840  281.1520 C.3    72  PRO72       0.0282
     38  CG       -51.6440  -13.6600  281.0710 C.3    72  PRO72       0.0208
     39  CD       -52.9940  -14.0650  280.5760 C.3    72  PRO72       0.0893
     40  N        -53.1510   -9.3960  281.1180 N.am   73  LYS73      -0.1980
     41  CA       -53.1400   -8.1110  280.4230 C.3    73  LYS73       0.1596
     42  C        -52.2970   -8.2000  279.1360 C.2    73  LYS73       0.2287
     43  O        -51.1400   -8.6180  279.1850 O.2    73  LYS73      -0.2864
     44  CB       -52.5790   -7.0540  281.3960 C.3    73  LYS73       0.0298
     45  CG       -52.1340   -5.7260  280.8130 C.3    73  LYS73       0.0038
     46  CD       -51.0330   -5.0600  281.6940 C.3    73  LYS73       0.0206
     47  CE       -49.6290   -5.7000  281.5200 C.3    73  LYS73       0.1093
     48  NZ       -48.6880   -5.4870  282.6990 N.3    73  LYS73      -0.1314
     49  N        -52.7560  -10.3650  276.6640 N.3    75  TRP75      -0.1241
     50  CA       -52.7820  -11.7120  276.0730 C.3    75  TRP75       0.1605
     51  C        -54.1790  -12.1040  275.5640 C.2    75  TRP75       0.2264
     52  O        -54.4640  -13.2470  275.1870 O.2    75  TRP75      -0.2867
     53  CB       -52.3090  -12.7150  277.0970 C.3    75  TRP75       0.0550
     54  CG       -50.8710  -12.6210  277.3610 C.ar   75  TRP75       0.0003
     55  CD1      -50.1790  -11.5110  277.7500 C.ar   75  TRP75       0.0946
     56  CD2      -49.9310  -13.6850  277.2830 C.ar   75  TRP75       0.0152
     57  NE1      -48.8540  -11.8230  277.9230 N.ar   75  TRP75      -0.2442
     58  CE2      -48.6710  -13.1520  277.6480 C.ar   75  TRP75       0.0810
     59  CE3      -50.0220  -15.0390  276.9550 C.ar   75  TRP75       0.0012
     60  CZ2      -47.5070  -13.9290  277.6730 C.ar   75  TRP75       0.0191
     61  CZ3      -48.8560  -15.8040  276.9800 C.ar   75  TRP75       0.0001
     62  CH2      -47.6210  -15.2390  277.3370 C.ar   75  TRP75       0.0015
     63  N        -52.6000  -17.5130  282.0860 N.3    82  TRP82      -0.1241
     64  CA       -51.4220  -17.5060  282.9590 C.3    82  TRP82       0.1605
     65  C        -50.7610  -18.8840  283.0770 C.2    82  TRP82       0.2264
     66  O        -49.5560  -18.9440  283.3020 O.2    82  TRP82      -0.2867
     67  CB       -51.8200  -16.9740  284.3410 C.3    82  TRP82       0.0550
     68  CG       -51.7280  -15.5120  284.4980 C.ar   82  TRP82       0.0003
     69  CD1      -52.7820  -14.6410  284.5470 C.ar   82  TRP82       0.0946
     70  CD2      -50.5540  -14.7140  284.6090 C.ar   82  TRP82       0.0152
     71  NE1      -52.3350  -13.3450  284.7000 N.ar   82  TRP82      -0.2442
     72  CE2      -50.9580  -13.3760  284.7500 C.ar   82  TRP82       0.0810
     73  CE3      -49.1930  -15.0200  284.6170 C.ar   82  TRP82       0.0012
     74  CZ2      -50.0210  -12.3400  284.8990 C.ar   82  TRP82       0.0191
     75  CZ3      -48.2780  -13.9970  284.7730 C.ar   82  TRP82       0.0001
     76  CH2      -48.6870  -12.6930  284.9120 C.ar   82  TRP82       0.0015
     77  N        -47.8370  -18.8160  280.8060 N.3    85  VAL85      -0.1245
     78  CA       -46.8870  -17.7280  280.8810 C.3    85  VAL85       0.1561
     79  C        -45.6110  -18.2150  281.5890 C.2    85  VAL85       0.2260
     80  O        -45.6970  -18.8170  282.6660 O.2    85  VAL85      -0.2867
     81  CB       -47.5060  -16.5460  281.6470 C.3    85  VAL85       0.0252
     82  CG1      -46.4710  -15.4790  281.8900 C.3    85  VAL85       0.0019
     83  CG2      -48.6940  -15.9640  280.8780 C.3    85  VAL85       0.0019
     84  N        -42.9490  -16.4650  282.9070 N.3    87  GLY87      -0.1210
     85  CA       -42.3460  -15.6110  283.9300 C.3    87  GLY87       0.1956
     86  C        -43.3060  -14.5690  284.4130 C.2    87  GLY87       0.2612
     87  O        -44.0220  -13.9330  283.6030 O.2    87  GLY87      -0.2717
     88  N        -43.2930  -14.3430  285.7230 N.am   88  LEU88      -0.1965
     89  CA       -44.1520  -13.3830  286.3980 C.3    88  LEU88       0.1728
     90  C        -43.2580  -12.4960  287.2790 C.2    88  LEU88       0.2617
     91  O        -42.3840  -13.0110  287.9860 O.2    88  LEU88      -0.2715
     92  CB       -45.1950  -14.1350  287.2390 C.3    88  LEU88       0.0311
     93  CG       -46.1560  -13.4220  288.1600 C.3    88  LEU88       0.0022
     94  CD1      -47.3940  -14.3010  288.3850 C.3    88  LEU88       0.0001
     95  CD2      -45.4840  -13.1190  289.5110 C.3    88  LEU88       0.0001
     96  N        -43.5210  -11.2250  287.3180 N.am   89  GLY89      -0.1940
     97  CA       -42.8420  -10.3170  288.2360 C.3    89  GLY89       0.2014
     98  C        -43.7760   -9.2360  288.7180 C.2    89  GLY89       0.2639
     99  O        -44.6900   -8.7850  288.0080 O.2    89  GLY89      -0.2714
    100  N        -43.4780   -8.6440  289.8680 N.am   90  GLY90      -0.1939
    101  CA       -44.2850   -7.5640  290.4610 C.3    90  GLY90       0.2014
    102  C        -44.0670   -7.6610  291.9610 C.2    90  GLY90       0.2640
    103  O        -42.9510   -7.3980  292.4300 O.2    90  GLY90      -0.2714
    104  N        -45.0860   -8.0950  292.6910 N.am   91  SER91      -0.1935
    105  CA       -44.9930   -8.2840  294.1450 C.3    91  SER91       0.2055
    106  C        -44.1820   -9.5500  294.5050 C.2    91  SER91       0.2643
    107  O        -43.6480   -9.6970  295.5940 O.2    91  SER91      -0.2714
    108  CB       -46.3930   -8.3740  294.7720 C.3    91  SER91       0.2130
    109  OG       -47.0670   -7.1390  294.6710 O.3    91  SER91      -0.2179
    110  N        -44.0840  -10.4370  293.5540 N.am   92  THR92      -0.1950
    111  CA       -43.3130  -11.6790  293.6540 C.3    92  THR92       0.1897
    112  C        -42.6150  -11.8610  292.3230 C.2    92  THR92       0.2313
    113  O        -42.8620  -11.1130  291.3670 O.2    92  THR92      -0.2863
    114  CB       -44.2240  -12.8950  293.9540 C.3    92  THR92       0.1794
    115  OG1      -45.1760  -13.0240  292.8790 O.3    92  THR92      -0.2208
    116  CG2      -44.9270  -12.7540  295.2470 C.3    92  THR92       0.0378
    117  N        -42.5990  -16.2000  275.4270 N.3   106  HIS106     -0.1241
    118  CA       -42.6640  -14.8020  275.8020 C.3   106  HIS106      0.1621
    119  C        -41.7540  -14.0350  274.8350 C.2   106  HIS106      0.2264
    120  O        -40.9410  -14.6300  274.1320 O.2   106  HIS106     -0.2867
    121  CB       -42.2230  -14.6050  277.2730 C.3   106  HIS106      0.0745
    122  CG       -40.7500  -14.8260  277.4440 C.ar  106  HIS106      0.0817
    123  ND1      -39.8340  -13.7840  277.4400 N.ar  106  HIS106     -0.2268
    124  CD2      -40.0380  -15.9630  277.5230 C.ar  106  HIS106      0.1154
    125  CE1      -38.6130  -14.3080  277.4980 C.ar  106  HIS106      0.1986
    126  NE2      -38.7060  -15.6270  277.5540 N.ar  106  HIS106     -0.2212
    127  N        -36.3530   -9.3310  282.9260 N.3   114  HIS114     -0.1241
    128  CA       -37.6070   -8.6100  282.7350 C.3   114  HIS114      0.1621
    129  C        -38.5070   -8.7460  283.9700 C.2   114  HIS114      0.2264
    130  O        -39.0120   -7.7420  284.5030 O.2   114  HIS114     -0.2867
    131  CB       -38.2990   -9.1030  281.4530 C.3   114  HIS114      0.0745
    132  CG       -39.6480   -8.4970  281.2080 C.ar  114  HIS114      0.0817
    133  ND1      -39.8880   -7.6040  280.1820 N.ar  114  HIS114     -0.2268
    134  CD2      -40.8480   -8.7040  281.8240 C.ar  114  HIS114      0.1154
    135  CE1      -41.1770   -7.2460  280.2160 C.ar  114  HIS114      0.1986
    136  NE2      -41.7780   -7.9010  281.1910 N.ar  114  HIS114     -0.2212
    137  N        -39.6940   -5.8650  287.0440 N.3   118  HIS118     -0.1241
    138  CA       -41.0170   -5.5330  287.5660 C.3   118  HIS118      0.1621
    139  C        -40.9980   -5.4570  289.0880 C.2   118  HIS118      0.2264
    140  O        -41.6660   -4.6140  289.6760 O.2   118  HIS118     -0.2867
    141  CB       -42.0850   -6.5840  287.1800 C.3   118  HIS118      0.0745
    142  CG       -42.5690   -6.5160  285.7630 C.ar  118  HIS118      0.0817
    143  ND1      -43.1520   -5.3910  285.2480 N.ar  118  HIS118     -0.2268
    144  CD2      -42.6200   -7.4550  284.7640 C.ar  118  HIS118      0.1154
    145  CE1      -43.5410   -5.6270  283.9970 C.ar  118  HIS118      0.1986
    146  NE2      -43.2610   -6.8790  283.6670 N.ar  118  HIS118     -0.2212
    147  N        -41.7820   -2.1580  291.3190 N.3   122  HIS122     -0.1241
    148  CA       -42.8930   -2.1430  292.2170 C.3   122  HIS122      0.1621
    149  C        -42.4750   -2.0910  293.6830 C.2   122  HIS122      0.2264
    150  O        -42.9780   -1.2790  294.4460 O.2   122  HIS122     -0.2867
    151  CB       -43.7660   -3.3680  291.9570 C.3   122  HIS122      0.0745
    152  CG       -44.9710   -3.4330  292.8200 C.ar  122  HIS122      0.0817
    153  ND1      -45.9710   -2.4890  292.7760 N.ar  122  HIS122     -0.2268
    154  CD2      -45.3220   -4.3160  293.7890 C.ar  122  HIS122      0.1154
    155  CE1      -46.8870   -2.7860  293.6790 C.ar  122  HIS122      0.1986
    156  NE2      -46.5220   -3.8980  294.3010 N.ar  122  HIS122     -0.2212
    157  N        -43.2670    1.9090  292.1330 N.3   127  ASP127     -0.1239
    158  CA       -43.9080    2.0360  290.8270 C.3   127  ASP127      0.1674
    159  C        -43.3890    3.2540  290.0800 C.2   127  ASP127      0.2266
    160  O        -44.1520    4.0510  289.5190 O.2   127  ASP127     -0.2867
    161  CB       -45.4340    2.0750  290.9960 C.3   127  ASP127      0.1410
    162  CG       -45.9860    0.7950  291.6220 C.2   127  ASP127      0.3668
    163  OD1      -45.5940   -0.3010  291.1530 O.co2 127  ASP127     -0.2456
    164  OD2      -46.7680    0.8900  292.5870 O.co2 127  ASP127     -0.2456
    165  N        -44.6200    4.4230  286.6680 N.3   130  LYS130     -0.1245
    166  CA       -45.8510    5.2020  286.5550 C.3   130  LYS130      0.1561
    167  C        -45.6190    6.6270  287.0630 C.2   130  LYS130      0.2260
    168  O        -46.5730    7.4450  287.1820 O.2   130  LYS130     -0.2867
    169  CB       -46.9880    4.5000  287.2990 C.3   130  LYS130      0.0271
    170  CG       -47.4510    3.2410  286.5180 C.3   130  LYS130      0.0035
    171  CD       -47.4720    1.9930  287.3630 C.3   130  LYS130      0.0206
    172  CE       -48.1620    0.8380  286.6330 C.3   130  LYS130      0.1093
    173  NZ       -48.3850   -0.3430  287.5340 N.3   130  LYS130     -0.1314
    174  N        -47.8940   -3.6090  273.0220 N.3   150  TYR150     -0.1241
    175  CA       -47.7450   -4.1120  274.3660 C.3   150  TYR150      0.1605
    176  C        -46.8100   -3.1750  275.0990 C.2   150  TYR150      0.2264
    177  O        -47.2170   -2.4370  276.0180 O.2   150  TYR150     -0.2867
    178  CB       -47.2120   -5.5800  274.3580 C.3   150  TYR150      0.0534
    179  CG       -47.1270   -6.2430  275.7180 C.ar  150  TYR150     -0.0201
    180  CD1      -48.2830   -6.5870  276.4100 C.ar  150  TYR150     -0.0009
    181  CD2      -45.9060   -6.5380  276.2880 C.ar  150  TYR150     -0.0009
    182  CE1      -48.2100   -7.2060  277.6660 C.ar  150  TYR150      0.0417
    183  CE2      -45.8330   -7.1550  277.5330 C.ar  150  TYR150      0.0417
    184  CZ       -46.9890   -7.4960  278.2010 C.ar  150  TYR150      0.1957
    185  OH       -46.9060   -8.1090  279.4380 O.3   150  TYR150     -0.2866
    186  N        -45.2470    0.0300  282.5740 N.3   156  GLU156     -0.1231
    187  CA       -44.5170   -0.9120  283.4270 C.3   156  GLU156      0.1699
    188  C        -43.8480   -1.9810  282.5680 C.2   156  GLU156      0.2592
    189  O        -42.7920   -2.5410  282.9540 O.2   156  GLU156     -0.2718
    190  CB       -45.4690   -1.5490  284.4610 C.3   156  GLU156      0.0402
    191  CG       -46.5370   -2.5190  283.9480 C.3   156  GLU156      0.1161
    192  CD       -47.8060   -1.8920  283.4010 C.2   156  GLU156      0.3649
    193  OE1      -47.8780   -0.6550  283.1530 O.co2 156  GLU156     -0.2457
    194  OE2      -48.7560   -2.6830  283.1330 O.co2 156  GLU156     -0.2457
    195  N        -44.4630   -2.3420  281.4240 N.am  157  GLU157     -0.1979
    196  CA       -43.8080   -3.3170  280.5390 C.3   157  GLU157      0.1602
    197  C        -42.6270   -2.7030  279.8190 C.2   157  GLU157      0.2287
    198  O        -41.5690   -3.3240  279.7060 O.2   157  GLU157     -0.2864
    199  CB       -44.7950   -3.9330  279.5520 C.3   157  GLU157      0.0415
    200  CG       -45.9290   -4.6820  280.2230 C.3   157  GLU157      0.1163
    201  CD       -45.4570   -5.8260  281.0830 C.2   157  GLU157      0.3649
    202  OE1      -44.3630   -6.3870  280.7510 O.co2 157  GLU157     -0.2457
    203  OE2      -46.1380   -6.1530  282.0800 O.co2 157  GLU157     -0.2457
@<TRIPOS>BOND
     1   174   175    1
     2   120   119    2
     3   178   175    1
     4   178   179    1
     5   175   176    1
     6   119   118    1
     7   176   177    2
     8    52    51    2
     9   117   118    1
    10    51    50    1
    11   179   181   ar
    12   179   180   ar
    13   118   121    1
    14    50    49    1
    15    50    53    1
    16   181   183   ar
    17   180   182   ar
    18    59    61   ar
    19    59    56   ar
    20    61    62   ar
    21    53    54    1
    22   121   122    1
    23    56    54   ar
    24    56    58   ar
    25    62    60   ar
    26    54    55   ar
    27   123   122   ar
    28   123   125   ar
    29   122   124   ar
    30   125   126   ar
    31   124   126   ar
    32   183   184   ar
    33    58    60   ar
    34    58    57   ar
    35   182   184   ar
    36    55    57   ar
    37   184   185    1
    38    42    43    2
    39    42    41    1
    40    36    35    2
    41   199   200    1
    42   199   196    1
    43   198   197    2
    44   197   196    1
    45   133   135   ar
    46   133   132   ar
    47   135   136   ar
    48   200   201    1
    49    41    40    1
    50    41    44    1
    51    35    40   am
    52    35    34    1
    53   196   195    1
    54    39    33    1
    55    39    38    1
    56   202   201   ar
    57    77    78    1
    58    45    44    1
    59    45    46    1
    60    83    81    1
    61    78    79    1
    62    78    81    1
    63    33    34    1
    64    38    37    1
    65   201   203   ar
    66    37    34    1
    67   136   134   ar
    68   132   131    1
    69   132   134   ar
    70   195   188   am
    71   131   128    1
    72    47    46    1
    73    47    48    1
    74    79    80    2
    75    81    82    1
    76    63    64    1
    77   188   189    2
    78   188   187    1
    79   186   187    1
    80   128   127    1
    81   128   129    1
    82    84    85    1
    83    64    65    1
    84    64    67    1
    85    65    66    2
    86   194   192   ar
    87   193   192   ar
    88   192   191    1
    89   187   190    1
    90    87    86    2
    91   146   145   ar
    92   146   144   ar
    93    85    86    1
    94   191   190    1
    95   129   130    2
    96   145   143   ar
    97    67    68    1
    98    86    88   am
    99    68    69   ar
   100    68    70   ar
   101    69    71   ar
   102    70    73   ar
   103    70    72   ar
   104    73    75   ar
   105    71    72   ar
   106    72    74   ar
   107   144   142   ar
   108    75    76   ar
   109    74    76   ar
   110   143   142   ar
   111    88    89    1
   112   142   141    1
   113    28    27    2
   114    89    92    1
   115    89    90    1
   116   170   169    1
   117   170   171    1
   118   166   165    1
   119   166   167    1
   120   166   169    1
   121   172   171    1
   122   172   173    1
   123   137   138    1
   124   167   168    2
   125    27    26    1
   126   141   138    1
   127    92    93    1
   128    90    96   am
   129    90    91    2
   130    96    97    1
   131   138   139    1
   132    29    26    1
   133    29    30    1
   134    99    98    2
   135    93    94    1
   136    93    95    1
   137    26    25    1
   138    97    98    1
   139    32    30    1
   140    31    30    1
   141    98   100   am
   142   139   140    2
   143   160   159    2
   144    25    15   am
   145    16    15    2
   146   100   101    1
   147   159   158    1
   148     4     3    2
   149    15    14    1
   150   101   102    1
   151     5     6    1
   152     5     2    1
   153   158   161    1
   154   158   157    1
   155   161   162    1
   156   163   162   ar
   157     6     8   ar
   158     6     7   ar
   159     3     2    1
   160   147   148    1
   161     8    10   ar
   162   113   112    2
   163     7     9   ar
   164    22    20   ar
   165    22    23   ar
   166   162   164   ar
   167    14    13    1
   168    14    17    1
   169    24    23    1
   170    10    11   ar
   171    20    18   ar
   172     2     1    1
   173     9    11   ar
   174   151   148    1
   175   151   152    1
   176   102   103    2
   177   102   104   am
   178    23    21   ar
   179    11    12    1
   180   148   149    1
   181   112   111    1
   182    18    17    1
   183    18    19   ar
   184    21    19   ar
   185   104   105    1
   186   153   152   ar
   187   153   155   ar
   188   152   154   ar
   189   115   114    1
   190   110   111    1
   191   110   106   am
   192   111   114    1
   193   155   156   ar
   194   149   150    2
   195   154   156   ar
   196   114   116    1
   197   105   106    1
   198   105   108    1
   199   106   107    2
   200   109   108    1
