@<TRIPOS>MOLECULE
tmp/5a0vB01.pdb
 147 140 0 0 0
SMALL
GASTEIGER

@<TRIPOS>ATOM
      1  N         28.9700   63.4900   -4.1300 N.3    29  ILE29      -0.1245
      2  CA        28.8030   62.3930   -3.1810 C.3    29  ILE29       0.1561
      3  C         29.6610   61.1960   -3.5350 C.2    29  ILE29       0.2260
      4  O         29.5130   60.6050   -4.6010 O.2    29  ILE29      -0.2867
      5  CB        27.3420   61.9490   -3.0860 C.3    29  ILE29       0.0252
      6  CG1       26.5020   63.1210   -2.5650 C.3    29  ILE29       0.0019
      7  CG2       27.2140   60.7340   -2.1800 C.3    29  ILE29       0.0019
      8  CD1       25.1660   62.7350   -2.0070 C.3    29  ILE29       0.0001
      9  N         32.4270   54.2350   -0.9620 N.3    87  ASP87      -0.1239
     10  CA        32.6620   55.6740   -0.9340 C.3    87  ASP87       0.1674
     11  C         33.1570   56.1160    0.4350 C.2    87  ASP87       0.2266
     12  O         33.2150   57.3120    0.7220 O.2    87  ASP87      -0.2867
     13  CB        31.4010   56.4520   -1.3120 C.3    87  ASP87       0.1410
     14  CG        30.2150   56.1120   -0.4410 C.2    87  ASP87       0.3668
     15  OD1       29.8970   54.9100   -0.2870 O.co2  87  ASP87      -0.2456
     16  OD2       29.5760   57.0620    0.0570 O.co2  87  ASP87      -0.2456
     17  N         22.5520   51.1140    6.1420 N.3   151  SER151     -0.1217
     18  CA        22.1950   50.1040    5.1470 C.3   151  SER151      0.1889
     19  C         23.2240   48.9950    5.0650 C.2   151  SER151      0.2288
     20  O         23.1520   48.1420    4.1830 O.2   151  SER151     -0.2866
     21  CB        22.0350   50.7470    3.7880 C.3   151  SER151      0.2089
     22  OG        22.9140   51.8470    3.6690 O.3   151  SER151     -0.2183
     23  N         27.7480   57.7110    8.0930 N.3   172  ASP172     -0.1239
     24  CA        26.4660   57.5580    7.4220 C.3   172  ASP172      0.1674
     25  C         25.4720   56.9620    8.3760 C.2   172  ASP172      0.2266
     26  O         25.7800   55.9870    9.0680 O.2   172  ASP172     -0.2867
     27  CB        26.5920   56.6650    6.1910 C.3   172  ASP172      0.1410
     28  CG        27.0580   57.4130    4.9810 C.2   172  ASP172      0.3668
     29  OD1       27.6770   58.4920    5.1360 O.co2 172  ASP172     -0.2456
     30  OD2       26.7750   56.9510    3.8720 O.co2 172  ASP172     -0.2456
     31  N         22.8540   63.5510    3.0060 N.3   206  THR206     -0.1203
     32  CA        22.3570   62.9140    1.7820 C.3   206  THR206      0.1994
     33  C         20.8530   63.0770    1.5710 C.2   206  THR206      0.2617
     34  O         20.4040   63.3510    0.4590 O.2   206  THR206     -0.2717
     35  CB        22.6650   61.3950    1.7610 C.3   206  THR206      0.1784
     36  OG1       23.9870   61.1490    2.2480 O.3   206  THR206     -0.2211
     37  CG2       22.5400   60.8570    0.3610 C.3   206  THR206      0.0376
     38  N         20.0870   62.9050    2.6460 N.am  207  ASN207     -0.1974
     39  CA        18.6280   62.9440    2.5840 C.3   207  ASN207      0.1688
     40  C         17.9990   64.1650    3.2490 C.2   207  ASN207      0.2292
     41  O         16.8030   64.1610    3.5300 O.2   207  ASN207     -0.2864
     42  CB        18.0320   61.7050    3.2380 C.3   207  ASN207      0.1181
     43  CG        17.6380   60.6640    2.2570 C.2   207  ASN207      0.2629
     44  OD1       17.6320   60.9010    1.0540 O.2   207  ASN207     -0.2716
     45  ND2       17.2760   59.4920    2.7610 N.am  207  ASN207     -0.0877
     46  N         22.5250   45.7850   -3.8500 N.3   240  PHE240     -0.1241
     47  CA        23.9140   46.0890   -3.5130 C.3   240  PHE240      0.1605
     48  C         24.5140   44.8930   -2.7890 C.2   240  PHE240      0.2264
     49  O         23.8090   44.2070   -2.0450 O.2   240  PHE240     -0.2867
     50  CB        24.0150   47.3490   -2.6490 C.3   240  PHE240      0.0534
     51  CG        24.0720   48.6250   -3.4400 C.ar  240  PHE240     -0.0203
     52  CD1       25.1210   48.8650   -4.3150 C.ar  240  PHE240     -0.0042
     53  CD2       23.0850   49.5900   -3.2990 C.ar  240  PHE240     -0.0042
     54  CE1       25.1800   50.0340   -5.0430 C.ar  240  PHE240     -0.0003
     55  CE2       23.1370   50.7620   -4.0270 C.ar  240  PHE240     -0.0003
     56  CZ        24.1880   50.9850   -4.9000 C.ar  240  PHE240     -0.0000
     57  N         18.1220   51.3350   -4.4480 N.3   340  SER340     -0.1217
     58  CA        17.8710   52.7060   -4.8500 C.3   340  SER340      0.1889
     59  C         18.2360   52.8850   -6.2960 C.2   340  SER340      0.2288
     60  O         18.7770   51.9840   -6.9410 O.2   340  SER340     -0.2866
     61  CB        18.6690   53.6950   -4.0010 C.3   340  SER340      0.2089
     62  OG        20.0330   53.3170   -3.9230 O.3   340  SER340     -0.2183
     63  N         20.4960   55.5290   -7.6930 N.3   342  ILE342     -0.1231
     64  CA        21.4110   56.6360   -7.4670 C.3   342  ILE342      0.1678
     65  C         21.4440   57.5500   -8.6820 C.2   342  ILE342      0.2434
     66  O         21.6520   57.0860   -9.8030 O.2   342  ILE342     -0.2733
     67  CB        22.8210   56.1240   -7.1540 C.3   342  ILE342      0.0265
     68  CG1       22.7520   55.1200   -5.9970 C.3   342  ILE342      0.0019
     69  CG2       23.7560   57.2800   -6.8370 C.3   342  ILE342      0.0020
     70  CD1       24.0560   54.4620   -5.6890 C.3   342  ILE342      0.0001
     71  N         21.2210   58.8550   -8.4580 N.am  343  PRO343     -0.2729
     72  CA        21.1950   59.9080   -9.4770 C.3   343  PRO343      0.1401
     73  C         22.4070   59.8500  -10.3940 C.2   343  PRO343      0.2269
     74  O         23.5390   59.8100   -9.9100 O.2   343  PRO343     -0.2865
     75  CB        21.2000   61.1890   -8.6470 C.3   343  PRO343      0.0296
     76  CG        20.5260   60.8030   -7.3890 C.3   343  PRO343      0.0237
     77  CD        20.9840   59.4000   -7.1120 C.3   343  PRO343      0.0939
     78  N         12.5700   49.3190   -1.5570 N.3   372  HIS372     -0.1241
     79  CA        13.7430   50.0120   -1.0490 C.3   372  HIS372      0.1621
     80  C         13.3730   51.1240   -0.0780 C.2   372  HIS372      0.2264
     81  O         12.4370   51.8870   -0.3180 O.2   372  HIS372     -0.2867
     82  CB        14.5490   50.6010   -2.1990 C.3   372  HIS372      0.0745
     83  CG        15.8030   51.2930   -1.7670 C.ar  372  HIS372      0.0817
     84  ND1       16.9080   50.6130   -1.2950 N.ar  372  HIS372     -0.2268
     85  CD2       16.1270   52.6070   -1.7380 C.ar  372  HIS372      0.1154
     86  CE1       17.8590   51.4810   -0.9970 C.ar  372  HIS372      0.1986
     87  NE2       17.4110   52.6960   -1.2580 N.ar  372  HIS372     -0.2212
     88  N         15.6950   54.2660    1.9110 N.3   374  SER374     -0.1202
     89  CA        17.0010   54.9130    2.0170 C.3   374  SER374      0.2020
     90  C         17.7990   54.4470    3.2260 C.2   374  SER374      0.2619
     91  O         17.2510   53.9020    4.1850 O.2   374  SER374     -0.2717
     92  CB        16.8360   56.4210    2.0970 C.3   374  SER374      0.2103
     93  OG        18.0800   57.0580    2.3310 O.3   374  SER374     -0.2182
     94  N         19.1010   54.6810    3.1910 N.am  375  GLY375     -0.1942
     95  CA        19.9280   54.3460    4.3370 C.3   375  GLY375      0.2014
     96  C         20.3810   55.5750    5.1030 C.2   375  GLY375      0.2638
     97  O         21.1900   55.4720    6.0140 O.2   375  GLY375     -0.2714
     98  N         19.8560   56.7380    4.7280 N.am  376  HIS376     -0.1973
     99  CA        20.2350   57.9800    5.3740 C.3   376  HIS376      0.1656
    100  C         19.0800   58.6890    6.0120 C.2   376  HIS376      0.2291
    101  O         17.9930   58.7120    5.4650 O.2   376  HIS376     -0.2864
    102  CB        20.8730   58.9280    4.3920 C.3   376  HIS376      0.0771
    103  CG        22.0520   58.3540    3.7000 C.ar  376  HIS376      0.0820
    104  ND1       23.3460   58.6810    4.0360 N.ar  376  HIS376     -0.2267
    105  CD2       22.1340   57.4700    2.6870 C.ar  376  HIS376      0.1154
    106  CE1       24.1780   58.0300    3.2470 C.ar  376  HIS376      0.1986
    107  NE2       23.4680   57.2930    2.4120 N.ar  376  HIS376     -0.2212
    108  N         29.0290   65.2110    3.6140 N.3   398  HIS398     -0.1241
    109  CA        28.5090   64.1190    2.7930 C.3   398  HIS398      0.1621
    110  C         27.2990   64.5000    1.9330 C.2   398  HIS398      0.2264
    111  O         26.2280   63.9060    2.0580 O.2   398  HIS398     -0.2867
    112  CB        28.1400   62.9300    3.6850 C.3   398  HIS398      0.0745
    113  CG        27.8460   61.6810    2.9220 C.ar  398  HIS398      0.0817
    114  ND1       26.5760   61.3400    2.5100 N.ar  398  HIS398     -0.2268
    115  CD2       28.6630   60.7020    2.4740 C.ar  398  HIS398      0.1154
    116  CE1       26.6250   60.1990    1.8500 C.ar  398  HIS398      0.1986
    117  NE2       27.8790   59.7940    1.8090 N.ar  398  HIS398     -0.2212
    118  N         25.9320   66.8640   -1.9970 N.3   400  GLU400     -0.1245
    119  CA        26.0530   67.9220   -2.9930 C.3   400  GLU400      0.1567
    120  C         25.6000   69.1940   -2.2960 C.2   400  GLU400      0.2260
    121  O         25.1380   69.1440   -1.1510 O.2   400  GLU400     -0.2867
    122  CB        25.2070   67.6500   -4.2440 C.3   400  GLU400      0.0388
    123  CG        25.5840   66.4290   -5.1010 C.3   400  GLU400      0.1160
    124  CD        24.4290   65.9840   -6.0190 C.2   400  GLU400      0.3649
    125  OE1       23.4440   66.7390   -6.1620 O.co2 400  GLU400     -0.2457
    126  OE2       24.4890   64.8760   -6.5970 O.co2 400  GLU400     -0.2457
    127  N         23.1000   71.2590   -2.6420 N.3   402  ARG402     -0.1231
    128  CA        21.7060   71.3350   -2.2550 C.3   402  ARG402      0.1694
    129  C         21.4640   70.5380   -0.9720 C.2   402  ARG402      0.2592
    130  O         20.7320   70.9870   -0.0750 O.2   402  ARG402     -0.2718
    131  CB        20.8080   70.8510   -3.3930 C.3   402  ARG402      0.0321
    132  CG        21.1150   69.4660   -3.8580 C.3   402  ARG402      0.0489
    133  CD        20.6110   69.2350   -5.2560 C.3   402  ARG402      0.2205
    134  NE        21.0500   67.9460   -5.7710 N.pl3 402  ARG402     -0.0865
    135  CZ        20.2520   66.8940   -5.8680 C.cat 402  ARG402      0.5346
    136  NH1       18.9910   67.0200   -5.4980 N.pl3 402  ARG402      0.1354
    137  NH2       20.7060   65.7330   -6.3380 N.pl3 402  ARG402      0.1354
    138  N         22.1120   69.3780   -0.8770 N.am  403  HIS403     -0.1976
    139  CA        22.0390   68.5360    0.3160 C.3   403  HIS403      0.1656
    140  C         22.5840   69.2570    1.5470 C.2   403  HIS403      0.2291
    141  O         21.9550   69.2560    2.6200 O.2   403  HIS403     -0.2864
    142  CB        22.8100   67.2400    0.0960 C.3   403  HIS403      0.0771
    143  CG        22.2420   66.3740   -0.9820 C.ar  403  HIS403      0.0820
    144  ND1       22.9950   65.9070   -2.0380 N.ar  403  HIS403     -0.2267
    145  CD2       20.9930   65.8890   -1.1670 C.ar  403  HIS403      0.1154
    146  CE1       22.2320   65.1750   -2.8280 C.ar  403  HIS403      0.1986
    147  NE2       21.0130   65.1480   -2.3240 N.ar  403  HIS403     -0.2212
@<TRIPOS>BOND
     1    73    74    2
     2    73    72    1
     3    66    65    2
     4    72    75    1
     5    72    71    1
     6    65    71   am
     7    65    64    1
     8    75    76    1
     9    71    77    1
    10    63    64    1
    11    64    67    1
    12    76    77    1
    13    67    69    1
    14    67    68    1
    15    60    59    2
    16   126   124   ar
    17   137   135    1
    18    59    58    1
    19   125   124   ar
    20   124   123    1
    21    68    70    1
    22   135   134    2
    23   135   136    1
    24   134   133    1
    25   133   132    1
    26   123   122    1
    27    54    56   ar
    28    54    52   ar
    29    56    55   ar
    30    58    57    1
    31    58    61    1
    32     4     3    2
    33    52    51   ar
    34   122   119    1
    35     1     2    1
    36    55    53   ar
    37    61    62    1
    38   132   131    1
    39    46    47    1
    40     3     2    1
    41    47    48    1
    42    47    50    1
    43    51    53   ar
    44    51    50    1
    45   131   128    1
    46     2     5    1
    47     5     6    1
    48     5     7    1
    49   119   120    1
    50   119   118    1
    51   146   147   ar
    52   146   144   ar
    53    48    49    2
    54   127   128    1
    55     6     8    1
    56   147   145   ar
    57   120   121    2
    58   128   129    1
    59    82    83    1
    60    82    79    1
    61   144   143   ar
    62    83    85   ar
    63    83    84   ar
    64    85    87   ar
    65    78    79    1
    66    13    10    1
    67    13    14    1
    68    84    86   ar
    69    87    86   ar
    70   145   143   ar
    71    79    80    1
    72   143   142    1
    73   129   138   am
    74   129   130    2
    75     9    10    1
    76    10    11    1
    77   138   139    1
    78    14    15   ar
    79    14    16   ar
    80    81    80    2
    81   142   139    1
    82   139   140    1
    83    37    35    1
    84    11    12    2
    85    34    33    2
    86    44    43    2
    87   140   141    2
    88    33    32    1
    89    33    38   am
    90    35    32    1
    91    35    36    1
    92    32    31    1
    93   117   116   ar
    94   117   115   ar
    95   116   114   ar
    96    88    89    1
    97   110   111    2
    98   110   109    1
    99    89    92    1
   100    89    90    1
   101    92    93    1
   102    43    45   am
   103    43    42    1
   104   107   105   ar
   105   107   106   ar
   106   115   113   ar
   107   114   113   ar
   108    39    38    1
   109    39    42    1
   110    39    40    1
   111   105   103   ar
   112   109   108    1
   113   109   112    1
   114   113   112    1
   115    94    90   am
   116    94    95    1
   117    90    91    2
   118   106   104   ar
   119    40    41    2
   120    22    21    1
   121   103   104   ar
   122   103   102    1
   123    21    18    1
   124    30    28   ar
   125    20    19    2
   126    95    96    1
   127   102    99    1
   128    98    96   am
   129    98    99    1
   130    28    29   ar
   131    28    27    1
   132    19    18    1
   133    96    97    2
   134    18    17    1
   135    99   100    1
   136   101   100    2
   137    27    24    1
   138    24    23    1
   139    24    25    1
   140    25    26    2
