@<TRIPOS>MOLECULE
tmp/5a19A03.pdb
 108 101 0 0 0
SMALL
GASTEIGER

@<TRIPOS>ATOM
      1  N         -4.3020  -16.3930  -19.2360 N.3    12  GLU12      -0.1245
      2  CA        -5.0610  -15.7430  -18.1740 C.3    12  GLU12       0.1567
      3  C         -4.2470  -15.4270  -16.9150 C.2    12  GLU12       0.2260
      4  O         -4.5020  -14.4120  -16.2410 O.2    12  GLU12      -0.2867
      5  CB        -6.2600  -16.6020  -17.7820 C.3    12  GLU12       0.0388
      6  CG        -7.3410  -16.6940  -18.8440 C.3    12  GLU12       0.1160
      7  CD        -8.4700  -17.6120  -18.4140 C.2    12  GLU12       0.3649
      8  OE1       -9.0370  -17.3820  -17.3250 O.co2  12  GLU12      -0.2457
      9  OE2       -8.7870  -18.5690  -19.1540 O.co2  12  GLU12      -0.2457
     10  N         -8.3900   -8.6990  -16.3060 N.3    21  GLN21      -0.1245
     11  CA        -9.5710   -9.4690  -15.9020 C.3    21  GLN21       0.1566
     12  C        -10.1800   -8.9810  -14.5880 C.2    21  GLN21       0.2260
     13  O        -11.4000   -8.9420  -14.4700 O.2    21  GLN21      -0.2867
     14  CB        -9.2630  -10.9680  -15.8270 C.3    21  GLN21       0.0367
     15  CG       -10.5240  -11.8260  -15.9040 C.3    21  GLN21       0.0905
     16  CD       -10.2940  -13.3240  -15.7260 C.2    21  GLN21       0.2608
     17  OE1      -11.0600  -13.9870  -15.0020 O.2    21  GLN21      -0.2717
     18  NE2       -9.2620  -13.8730  -16.3920 N.am   21  GLN21      -0.0878
     19  N        -17.8360   -5.0540  -14.3430 N.3    28  ASP28      -0.1239
     20  CA       -19.0380   -5.8960  -14.3880 C.3    28  ASP28       0.1674
     21  C        -19.8420   -5.8200  -13.0880 C.2    28  ASP28       0.2266
     22  O        -21.0730   -5.7270  -13.1320 O.2    28  ASP28      -0.2867
     23  CB       -18.6830   -7.3620  -14.6720 C.3    28  ASP28       0.1410
     24  CG       -18.4470   -7.6500  -16.1480 C.2    28  ASP28       0.3668
     25  OD1      -18.7590   -6.7960  -17.0150 O.co2  28  ASP28      -0.2456
     26  OD2      -17.9410   -8.7580  -16.4490 O.co2  28  ASP28      -0.2456
     27  N        -10.8360  -18.0320  -10.2720 N.3    74  HIS74      -0.1241
     28  CA       -11.1800  -18.4470  -11.6420 C.3    74  HIS74       0.1621
     29  C         -9.9390  -18.6830  -12.5140 C.2    74  HIS74       0.2264
     30  O         -9.8530  -19.6740  -13.2370 O.2    74  HIS74      -0.2867
     31  CB       -12.0850  -17.4120  -12.3330 C.3    74  HIS74       0.0745
     32  CG       -12.3640  -17.7410  -13.7660 C.ar   74  HIS74       0.0817
     33  ND1      -13.3760  -18.5950  -14.1490 N.ar   74  HIS74      -0.2268
     34  CD2      -11.7230  -17.3850  -14.9050 C.ar   74  HIS74       0.1154
     35  CE1      -13.3600  -18.7350  -15.4620 C.ar   74  HIS74       0.1986
     36  NE2      -12.3640  -18.0150  -15.9450 N.ar   74  HIS74      -0.2212
     37  N         -5.3830  -20.5900  -25.0180 N.3   136  ALA136     -0.1245
     38  CA        -6.6890  -21.1760  -24.6540 C.3   136  ALA136      0.1562
     39  C         -6.6010  -22.6850  -24.4610 C.2   136  ALA136      0.2260
     40  O         -7.1880  -23.2360  -23.5190 O.2   136  ALA136     -0.2867
     41  CB        -7.7470  -20.8460  -25.6990 C.3   136  ALA136      0.0290
     42  N         -7.1150  -27.0740  -16.7900 N.3   143  ARG143     -0.1245
     43  CA        -8.3780  -27.1250  -16.0510 C.3   143  ARG143      0.1563
     44  C         -9.0780  -28.4900  -16.0790 C.2   143  ARG143      0.2260
     45  O         -9.7600  -28.8340  -15.1220 O.2   143  ARG143     -0.2867
     46  CB        -9.3410  -26.0390  -16.5430 C.3   143  ARG143      0.0307
     47  CG        -8.9730  -24.6480  -16.0660 C.3   143  ARG143      0.0489
     48  CD        -9.9700  -23.6120  -16.5580 C.3   143  ARG143      0.2205
     49  NE        -9.6580  -22.2940  -15.9930 N.pl3 143  ARG143     -0.0865
     50  CZ        -9.4500  -21.1650  -16.6700 C.cat 143  ARG143      0.5346
     51  NH1       -9.5350  -21.1070  -17.9990 N.pl3 143  ARG143      0.1354
     52  NH2       -9.1610  -20.0590  -15.9940 N.pl3 143  ARG143      0.1354
     53  N        -15.6540   -8.9570  -18.3100 N.3   346  GLN346     -0.1231
     54  CA       -14.6320   -9.8950  -17.8180 C.3   346  GLN346      0.1698
     55  C        -14.2590  -10.9720  -18.8580 C.2   346  GLN346      0.2592
     56  O        -13.0880  -11.3850  -18.9460 O.2   346  GLN346     -0.2718
     57  CB       -15.0630  -10.5540  -16.5090 C.3   346  GLN346      0.0381
     58  CG       -13.9010  -11.1420  -15.7230 C.3   346  GLN346      0.0905
     59  CD       -14.3330  -11.8930  -14.4730 C.2   346  GLN346      0.2608
     60  OE1      -15.4600  -11.7580  -14.0040 O.2   346  GLN346     -0.2717
     61  NE2      -13.4290  -12.6990  -13.9290 N.am  346  GLN346     -0.0878
     62  N        -15.2480  -11.4060  -19.6380 N.am  347  ARG347     -0.1980
     63  CA       -15.0240  -12.3830  -20.7130 C.3   347  ARG347      0.1597
     64  C        -14.2160  -11.8510  -21.9090 C.2   347  ARG347      0.2287
     65  O        -13.7340  -12.6490  -22.7050 O.2   347  ARG347     -0.2864
     66  CB       -16.3590  -12.9660  -21.2180 C.3   347  ARG347      0.0334
     67  CG       -17.0440  -13.8910  -20.2190 C.3   347  ARG347      0.0492
     68  CD       -18.1130  -14.7520  -20.8750 C.3   347  ARG347      0.2205
     69  NE       -18.9670  -13.9720  -21.7630 N.pl3 347  ARG347     -0.0865
     70  CZ       -19.8080  -13.0330  -21.3470 C.cat 347  ARG347      0.5346
     71  NH1      -19.9110  -12.7540  -20.0520 N.pl3 347  ARG347      0.1354
     72  NH2      -20.5420  -12.3680  -22.2290 N.pl3 347  ARG347      0.1354
     73  N         -9.2790  -11.7420  -21.6960 N.3   350  ALA350     -0.1231
     74  CA        -8.2300  -12.6520  -22.1560 C.3   350  ALA350      0.1694
     75  C         -8.6050  -13.2100  -23.5110 C.2   350  ALA350      0.2592
     76  O         -9.7910  -13.2780  -23.8640 O.2   350  ALA350     -0.2718
     77  CB        -8.0050  -13.7740  -21.1580 C.3   350  ALA350      0.0304
     78  N         -7.5780  -13.5920  -24.2660 N.am  351  TYR351     -0.1976
     79  CA        -7.7220  -14.1910  -25.5980 C.3   351  TYR351      0.1639
     80  C         -8.2030  -13.2090  -26.6770 C.2   351  TYR351      0.2290
     81  O         -8.6800  -13.6350  -27.7330 O.2   351  TYR351     -0.2864
     82  CB        -8.6220  -15.4430  -25.5540 C.3   351  TYR351      0.0560
     83  CG        -8.2980  -16.3960  -24.4220 C.ar  351  TYR351     -0.0198
     84  CD1       -7.1080  -17.1220  -24.4140 C.ar  351  TYR351     -0.0009
     85  CD2       -9.1770  -16.5690  -23.3560 C.ar  351  TYR351     -0.0009
     86  CE1       -6.8080  -17.9930  -23.3740 C.ar  351  TYR351      0.0417
     87  CE2       -8.8860  -17.4320  -22.3120 C.ar  351  TYR351      0.0417
     88  CZ        -7.7060  -18.1460  -22.3270 C.ar  351  TYR351      0.1957
     89  OH        -7.4220  -19.0180  -21.2970 O.3   351  TYR351     -0.2866
     90  N        -13.9780  -13.5070  -31.7760 N.3   356  ARG356     -0.1231
     91  CA       -14.5730  -14.6600  -31.0640 C.3   356  ARG356      0.1694
     92  C        -15.9250  -14.3790  -30.4020 C.2   356  ARG356      0.2592
     93  O        -16.3420  -13.2260  -30.2720 O.2   356  ARG356     -0.2718
     94  CB       -13.5790  -15.2160  -30.0340 C.3   356  ARG356      0.0321
     95  CG       -13.2400  -14.2540  -28.9090 C.3   356  ARG356      0.0489
     96  CD       -12.1200  -14.7620  -28.0190 C.3   356  ARG356      0.2205
     97  NE       -11.8980  -13.8020  -26.9420 N.pl3 356  ARG356     -0.0865
     98  CZ       -12.6480  -13.6650  -25.8460 C.cat 356  ARG356      0.5346
     99  NH1      -13.6880  -14.4510  -25.5970 N.pl3 356  ARG356      0.1354
    100  NH2      -12.3360  -12.7250  -24.9700 N.pl3 356  ARG356      0.1354
    101  N        -16.6220  -15.4560  -30.0350 N.am  357  ASP357     -0.1974
    102  CA       -17.8480  -15.4110  -29.1920 C.3   357  ASP357      0.1709
    103  C        -19.0550  -14.5900  -29.7150 C.2   357  ASP357      0.2293
    104  O        -20.0360  -14.4110  -28.9820 O.2   357  ASP357     -0.2864
    105  CB       -17.5000  -14.9510  -27.7550 C.3   357  ASP357      0.1436
    106  CG       -16.5770  -15.9310  -27.0150 C.2   357  ASP357      0.3671
    107  OD1      -15.8250  -16.6930  -27.6640 O.co2 357  ASP357     -0.2456
    108  OD2      -16.5930  -15.9260  -25.7650 O.co2 357  ASP357     -0.2456
@<TRIPOS>BOND
     1    90    91    1
     2    91    92    1
     3    91    94    1
     4    92    93    2
     5    92   101   am
     6   101   102    1
     7    94    95    1
     8   103   102    1
     9   103   104    2
    10   102   105    1
    11    95    96    1
    12    96    97    1
    13   105   106    1
    14    81    80    2
    15   107   106   ar
    16   106   108   ar
    17    97    98    2
    18    80    79    1
    19    98    99    1
    20    98   100    1
    21    41    38    1
    22    79    82    1
    23    79    78    1
    24    82    83    1
    25    37    38    1
    26    38    39    1
    27    39    40    2
    28    83    84   ar
    29    83    85   ar
    30    84    86   ar
    31    78    75   am
    32    76    75    2
    33    75    74    1
    34    86    88   ar
    35    85    87   ar
    36    65    64    2
    37    88    87   ar
    38    88    89    1
    39    72    70    1
    40    74    73    1
    41    74    77    1
    42    64    63    1
    43    69    70    2
    44    69    68    1
    45    70    71    1
    46    66    63    1
    47    66    67    1
    48    68    67    1
    49    63    62    1
    50    62    55   am
    51     1     2    1
    52     9     7   ar
    53    56    55    2
    54    55    54    1
    55     6     7    1
    56     6     5    1
    57     7     8   ar
    58    53    54    1
    59     2     5    1
    60     2     3    1
    61    51    50    1
    62    54    57    1
    63    25    24   ar
    64     3     4    2
    65    42    43    1
    66    50    52    1
    67    50    49    2
    68    48    47    1
    69    48    49    1
    70    46    47    1
    71    46    43    1
    72    57    58    1
    73    26    24   ar
    74    18    16   am
    75    10    11    1
    76    24    23    1
    77    44    43    1
    78    44    45    2
    79    36    35   ar
    80    36    34   ar
    81    15    14    1
    82    15    16    1
    83    11    14    1
    84    11    12    1
    85    16    17    2
    86    58    59    1
    87    35    33   ar
    88    34    32   ar
    89    23    20    1
    90    12    13    2
    91    59    60    2
    92    59    61   am
    93    20    19    1
    94    20    21    1
    95    33    32   ar
    96    32    31    1
    97    30    29    2
    98    22    21    2
    99    29    28    1
   100    31    28    1
   101    28    27    1
