@<TRIPOS>MOLECULE
tmp/5a1jA00.pdb
 132 125 0 0 0
SMALL
GASTEIGER

@<TRIPOS>ATOM
      1  N         -9.9390    7.7850   13.6420 N.3    57  LYS57      -0.1231
      2  CA       -10.9670    7.2720   12.6860 C.3    57  LYS57       0.1693
      3  C        -10.4620    6.0830   11.8790 C.2    57  LYS57       0.2592
      4  O        -11.2070    5.1720   11.5580 O.2    57  LYS57      -0.2718
      5  CB       -11.3080    8.3490   11.6780 C.3    57  LYS57       0.0285
      6  CG       -12.2230    7.8400   10.5290 C.3    57  LYS57       0.0035
      7  CD       -13.0500    9.0040   10.0160 C.3    57  LYS57       0.0206
      8  CE       -14.0520    8.5940    8.9380 C.3    57  LYS57       0.1093
      9  NZ       -13.5680    8.7650    7.5350 N.3    57  LYS57      -0.1314
     10  N         -9.2050    6.2230   11.4740 N.am   58  ASN58      -0.1974
     11  CA        -8.4900    5.2830   10.6840 C.3    58  ASN58       0.1688
     12  C         -7.2900    4.7700   11.4920 C.2    58  ASN58       0.2292
     13  O         -6.1570    4.9050   11.0150 O.2    58  ASN58      -0.2864
     14  CB        -7.9900    5.9660    9.3700 C.3    58  ASN58       0.1181
     15  CG        -9.1110    6.5750    8.5300 C.2    58  ASN58       0.2629
     16  OD1       -9.1430    7.7920    8.2520 O.2    58  ASN58      -0.2716
     17  ND2      -10.0560    5.7410    8.1390 N.am   58  ASN58      -0.0877
     18  N         -7.9210   10.6900    7.3900 N.3    75  VAL75      -0.1231
     19  CA        -6.8860   11.1650    6.4520 C.3    75  VAL75       0.1692
     20  C         -7.3270   12.1310    5.2830 C.2    75  VAL75       0.2591
     21  O         -6.4920   12.7920    4.6300 O.2    75  VAL75      -0.2718
     22  CB        -6.1450    9.9430    5.8810 C.3    75  VAL75       0.0266
     23  CG1       -5.5310    9.0790    6.9900 C.3    75  VAL75       0.0020
     24  CG2       -7.1090    9.1390    5.0160 C.3    75  VAL75       0.0020
     25  N         -8.6240   12.1670    4.9540 N.am   76  GLN76      -0.1979
     26  CA        -9.1720   13.3280    4.1940 C.3    76  GLN76       0.1601
     27  C        -10.3820   13.8910    4.9170 C.2    76  GLN76       0.2287
     28  O        -11.2130   14.5610    4.2980 O.2    76  GLN76      -0.2864
     29  CB        -9.5510   13.0200    2.7210 C.3    76  GLN76       0.0394
     30  CG        -8.4710   12.3800    1.8110 C.3    76  GLN76       0.0908
     31  CD        -8.7900   10.9240    1.5550 C.2    76  GLN76       0.2608
     32  OE1       -7.9890   10.1400    1.0310 O.2    76  GLN76      -0.2717
     33  NE2       -9.9860   10.5460    1.9750 N.am   76  GLN76      -0.0878
     34  N          0.3830   11.9870    0.5880 N.3    95  GLY95      -0.1210
     35  CA        -0.3300   12.4020   -0.5660 C.3    95  GLY95       0.1956
     36  C         -1.7650   12.8020   -0.4060 C.2    95  GLY95       0.2611
     37  O         -2.2660   13.6620   -1.1500 O.2    95  GLY95      -0.2717
     38  N         -2.4010   12.2140    0.6090 N.am   96  ARG96      -0.1979
     39  CA        -3.8280   12.4210    0.8220 C.3    96  ARG96       0.1597
     40  C         -4.1290   13.7890    1.4290 C.2    96  ARG96       0.2287
     41  O         -5.3020   14.1630    1.5340 O.2    96  ARG96      -0.2864
     42  CB        -4.4030   11.3450    1.7160 C.3    96  ARG96       0.0334
     43  CG        -4.6490    9.9590    1.1410 C.3    96  ARG96       0.0492
     44  CD        -5.2530    9.1610    2.2850 C.3    96  ARG96       0.2205
     45  NE        -5.8540    7.8830    1.9430 N.pl3  96  ARG96      -0.0865
     46  CZ        -5.2420    6.7160    2.0040 C.cat  96  ARG96       0.5346
     47  NH1       -3.9720    6.6580    2.4060 N.pl3  96  ARG96       0.1354
     48  NH2       -5.8460    5.5800    1.6620 N.pl3  96  ARG96       0.1354
     49  N         -3.2370   18.5910   -0.7070 N.3    99  LYS99      -0.1245
     50  CA        -4.1550   19.6730   -1.0190 C.3    99  LYS99       0.1561
     51  C         -4.3320   20.7030    0.1440 C.2    99  LYS99       0.2260
     52  O         -4.6080   21.8680   -0.1580 O.2    99  LYS99      -0.2867
     53  CB        -5.5050   19.0860   -1.5250 C.3    99  LYS99       0.0271
     54  CG        -6.3510   18.3940   -0.4530 C.3    99  LYS99       0.0035
     55  CD        -7.5110   17.5140   -0.9300 C.3    99  LYS99       0.0206
     56  CE        -8.1400   16.8120    0.2900 C.3    99  LYS99       0.1093
     57  NZ        -8.8360   15.5060    0.0970 N.3    99  LYS99      -0.1314
     58  N          0.1570    2.3670   -6.6420 N.3   183  ARG183     -0.1301
     59  CA         0.2650    2.4570   -5.1760 C.3   183  ARG183      0.1248
     60  C          0.4720    1.0870   -4.4590 C.3   183  ARG183      0.2009
     61  O          0.7510    1.0620   -3.1580 O.3   183  ARG183     -0.2188
     62  CB        -1.0360    3.0460   -4.5910 C.3   183  ARG183      0.0254
     63  CG        -2.2840    2.2120   -4.7190 C.3   183  ARG183      0.0485
     64  CD        -3.4880    3.0880   -4.3750 C.3   183  ARG183      0.2205
     65  NE        -3.4830    3.5660   -2.9340 N.pl3 183  ARG183     -0.0865
     66  CZ        -4.4040    4.4280   -2.4420 C.cat 183  ARG183      0.5346
     67  NH1       -5.4410    4.9350   -3.1420 N.pl3 183  ARG183      0.1354
     68  NH2       -4.3260    4.7580   -1.1720 N.pl3 183  ARG183      0.1354
     69  N         -4.8670    6.6560   -9.0480 N.3   204  THR204     -0.1203
     70  CA        -4.9010    6.6490   -7.5660 C.3   204  THR204      0.1994
     71  C         -5.8860    5.6330   -7.0490 C.2   204  THR204      0.2617
     72  O         -5.6060    4.9490   -6.0620 O.2   204  THR204     -0.2717
     73  CB        -5.2800    8.0260   -7.0430 C.3   204  THR204      0.1784
     74  OG1       -4.2550    8.9930   -7.3380 O.3   204  THR204     -0.2211
     75  CG2       -5.4180    7.9160   -5.5350 C.3   204  THR204      0.0376
     76  N         -7.0550    5.4920   -7.6980 N.am  205  HIS205     -0.1975
     77  CA        -7.9980    4.4390   -7.3320 C.3   205  HIS205      0.1656
     78  C         -8.2190    3.3610   -8.3890 C.2   205  HIS205      0.2291
     79  O         -9.0900    2.5060   -8.3160 O.2   205  HIS205     -0.2864
     80  CB        -9.2830    5.0440   -6.7930 C.3   205  HIS205      0.0771
     81  CG        -9.0990    5.8160   -5.5130 C.ar  205  HIS205      0.0820
     82  ND1       -8.9780    7.1710   -5.4480 N.ar  205  HIS205     -0.2267
     83  CD2       -8.9890    5.3740   -4.2540 C.ar  205  HIS205      0.1154
     84  CE1       -8.8780    7.5700   -4.1900 C.ar  205  HIS205      0.1986
     85  NE2       -8.8280    6.4900   -3.4400 N.ar  205  HIS205     -0.2212
     86  N        -11.3740   -1.9340   -0.2590 N.3   227  ARG227     -0.1245
     87  CA       -11.4860   -0.5230    0.1360 C.3   227  ARG227      0.1563
     88  C        -12.7200   -0.3000    1.0110 C.2   227  ARG227      0.2260
     89  O        -12.8530    0.7360    1.7130 O.2   227  ARG227     -0.2867
     90  CB       -11.3940    0.4340   -1.0630 C.3   227  ARG227      0.0307
     91  CG       -11.6460    1.8960   -0.6800 C.3   227  ARG227      0.0489
     92  CD       -11.3490    2.7870   -1.8930 C.3   227  ARG227      0.2205
     93  NE       -11.5280    4.1990   -1.6620 N.pl3 227  ARG227     -0.0865
     94  CZ       -12.6800    4.8710   -1.7120 C.cat 227  ARG227      0.5346
     95  NH1      -13.8360    4.2900   -2.0330 N.pl3 227  ARG227      0.1354
     96  NH2      -12.6700    6.1530   -1.4720 N.pl3 227  ARG227      0.1354
     97  N        -12.0060    0.1590    5.0410 N.3   230  ILE230     -0.1231
     98  CA       -11.5170    1.4600    5.3870 C.3   230  ILE230      0.1692
     99  C        -12.6400    2.4950    5.3920 C.2   230  ILE230      0.2591
    100  O        -12.7590    3.2820    6.3300 O.2   230  ILE230     -0.2718
    101  CB       -10.4390    1.8670    4.3550 C.3   230  ILE230      0.0266
    102  CG1       -9.3100    0.8040    4.2620 C.3   230  ILE230      0.0019
    103  CG2       -9.9260    3.2680    4.6260 C.3   230  ILE230      0.0020
    104  CD1       -8.8980    0.1530    5.5710 C.3   230  ILE230      0.0001
    105  N        -13.4850    2.4460    4.3620 N.am  231  LEU231     -0.1980
    106  CA       -14.4550    3.4790    4.0360 C.3   231  LEU231      0.1596
    107  C        -15.8130    3.2640    4.6680 C.2   231  LEU231      0.2287
    108  O        -16.6130    4.1680    4.6370 O.2   231  LEU231     -0.2864
    109  CB       -14.6210    3.6100    2.5270 C.3   231  LEU231      0.0297
    110  CG       -13.8300    4.6630    1.7170 C.3   231  LEU231      0.0022
    111  CD1      -14.4620    6.0440    1.8010 C.3   231  LEU231      0.0001
    112  CD2      -12.3380    4.6910    2.0870 C.3   231  LEU231      0.0001
    113  N         -3.8370   -0.1650    1.7900 N.3   266  TYR266     -0.1227
    114  CA        -4.5890    1.0210    1.4010 C.3   266  TYR266      0.1736
    115  C         -4.3940    2.2600    2.2670 C.2   266  TYR266      0.2595
    116  O         -4.2980    3.4120    1.8010 O.2   266  TYR266     -0.2718
    117  CB        -6.1240    0.7290    1.3780 C.3   266  TYR266      0.0548
    118  CG        -6.8530    1.8220    0.6490 C.ar  266  TYR266     -0.0200
    119  CD1       -6.6870    1.9980   -0.6970 C.ar  266  TYR266     -0.0009
    120  CD2       -7.6840    2.7300    1.3140 C.ar  266  TYR266     -0.0009
    121  CE1       -7.3230    3.0460   -1.3610 C.ar  266  TYR266      0.0417
    122  CE2       -8.3540    3.7610    0.6870 C.ar  266  TYR266      0.0417
    123  CZ        -8.1500    3.9640   -0.6920 C.ar  266  TYR266      0.1957
    124  OH        -8.7290    5.0160   -1.3510 O.3   266  TYR266     -0.2866
    125  N         -4.4720    2.0070    3.5840 N.am  267  LEU267     -0.1980
    126  CA        -4.2130    3.0450    4.5260 C.3   267  LEU267      0.1596
    127  C         -2.6950    3.3260    4.6010 C.2   267  LEU267      0.2287
    128  O         -2.2640    4.3520    4.0710 O.2   267  LEU267     -0.2864
    129  CB        -4.8770    2.7040    5.8770 C.3   267  LEU267      0.0297
    130  CG        -6.3730    2.8720    6.1980 C.3   267  LEU267      0.0022
    131  CD1       -6.5710    2.6410    7.6860 C.3   267  LEU267      0.0001
    132  CD2       -6.8140    4.2640    5.8940 C.3   267  LEU267      0.0001
@<TRIPOS>BOND
     1    69    70    1
     2    78    79    2
     3    78    77    1
     4    76    77    1
     5    76    71   am
     6    70    71    1
     7    70    73    1
     8    74    73    1
     9    77    80    1
    10    71    72    2
    11    73    75    1
    12    80    81    1
    13    58    59    1
    14    81    82   ar
    15    81    83   ar
    16    82    84   ar
    17    59    62    1
    18    59    60    1
    19    63    62    1
    20    63    64    1
    21    60    61    1
    22    64    65    1
    23    83    85   ar
    24    84    85   ar
    25    67    66    1
    26    65    66    2
    27    66    68    1
    28    95    94    1
    29    92    93    1
    30    92    91    1
    31    94    93    2
    32    94    96    1
    33    53    50    1
    34    53    54    1
    35   121   119   ar
    36   121   123   ar
    37   124   123    1
    38    37    36    2
    39    90    91    1
    40    90    87    1
    41    50    49    1
    42    50    51    1
    43    55    54    1
    44    55    56    1
    45   119   118   ar
    46   123   122   ar
    47    35    36    1
    48    35    34    1
    49    36    38   am
    50    86    87    1
    51    52    51    2
    52    57    56    1
    53    87    88    1
    54    38    39    1
    55   118   120   ar
    56   118   117    1
    57   122   120   ar
    58    39    40    1
    59    39    42    1
    60    88    89    2
    61    32    31    2
    62    43    42    1
    63    43    44    1
    64   117   114    1
    65   114   113    1
    66   114   115    1
    67    40    41    2
    68    31    30    1
    69    31    33   am
    70    48    46    1
    71   110   111    1
    72   110   112    1
    73   110   109    1
    74   116   115    2
    75    30    29    1
    76    45    46    2
    77    45    44    1
    78    46    47    1
    79   115   125   am
    80   109   106    1
    81    29    26    1
    82   125   126    1
    83   106   105    1
    84   106   107    1
    85   128   127    2
    86    26    27    1
    87    26    25    1
    88   102   101    1
    89   102   104    1
    90    28    27    2
    91   101   103    1
    92   101    98    1
    93   105    99   am
    94   126   127    1
    95   126   129    1
    96    21    20    2
    97   108   107    2
    98    25    20   am
    99    24    22    1
   100    97    98    1
   101    20    19    1
   102    98    99    1
   103    99   100    2
   104   129   130    1
   105    22    19    1
   106    22    23    1
   107   132   130    1
   108   130   131    1
   109    19    18    1
   110     9     8    1
   111    17    15   am
   112    16    15    2
   113    15    14    1
   114     8     7    1
   115    14    11    1
   116     7     6    1
   117     6     5    1
   118    11    10    1
   119    11    12    1
   120    13    12    2
   121    10     3   am
   122     4     3    2
   123     5     2    1
   124     3     2    1
   125     2     1    1
