@<TRIPOS>MOLECULE
tmp/5a1lA00.pdb
 201 191 0 0 0
SMALL
GASTEIGER

@<TRIPOS>ATOM
      1  N        -10.3210   60.5330   33.0380 N.3    69  ARG69      -0.1245
      2  CA        -9.9990   61.3510   31.9030 C.3    69  ARG69       0.1563
      3  C        -10.8470   62.6200   31.9720 C.2    69  ARG69       0.2260
      4  O        -12.0920   62.5420   31.9620 O.2    69  ARG69      -0.2867
      5  CB       -10.2730   60.5890   30.6130 C.3    69  ARG69       0.0307
      6  CG        -9.3290   59.4450   30.3860 C.3    69  ARG69       0.0489
      7  CD        -7.9730   59.9730   29.9250 C.3    69  ARG69       0.2205
      8  NE        -7.0040   58.8990   29.7490 N.pl3  69  ARG69      -0.0865
      9  CZ        -5.8660   59.0030   29.0540 C.cat  69  ARG69       0.5346
     10  NH1       -5.5150   60.1440   28.4500 N.pl3  69  ARG69       0.1354
     11  NH2       -5.0640   57.9470   28.9670 N.pl3  69  ARG69       0.1354
     12  N        -12.2130   65.9340   30.2440 N.3    71  GLN71      -0.1245
     13  CA       -12.5180   66.2400   28.8300 C.3    71  GLN71       0.1566
     14  C        -13.4380   67.4290   28.7820 C.2    71  GLN71       0.2260
     15  O        -14.0560   67.7790   29.7940 O.2    71  GLN71      -0.2867
     16  CB       -13.2630   65.0670   28.1430 C.3    71  GLN71       0.0367
     17  CG       -12.6070   63.7140   28.2710 C.3    71  GLN71       0.0905
     18  CD       -13.3940   62.6200   27.5730 C.2    71  GLN71       0.2608
     19  OE1      -14.5650   62.3600   27.8890 O.2    71  GLN71      -0.2717
     20  NE2      -12.7640   61.9850   26.6080 N.am   71  GLN71      -0.0878
     21  N         -7.1960   65.4300   26.4180 N.3    93  SER93      -0.1217
     22  CA        -7.6380   64.7890   27.6470 C.3    93  SER93       0.1889
     23  C         -6.5440   64.4280   28.6470 C.2    93  SER93       0.2288
     24  O         -5.7790   63.4900   28.4130 O.2    93  SER93      -0.2866
     25  CB        -8.3890   63.5130   27.3280 C.3    93  SER93       0.2089
     26  OG        -8.7990   62.9410   28.5420 O.3    93  SER93      -0.2183
     27  N        -14.5170   61.4930   33.0650 N.3   129  PHE129     -0.1241
     28  CA       -14.9400   60.1740   32.6000 C.3   129  PHE129      0.1605
     29  C        -14.1410   59.1710   33.4250 C.2   129  PHE129      0.2264
     30  O        -12.8950   59.2080   33.4530 O.2   129  PHE129     -0.2867
     31  CB       -14.6480   60.1440   31.0880 C.3   129  PHE129      0.0534
     32  CG       -14.8900   58.8320   30.3660 C.ar  129  PHE129     -0.0203
     33  CD1      -15.5220   57.7440   30.9290 C.ar  129  PHE129     -0.0042
     34  CD2      -14.4960   58.7450   29.0240 C.ar  129  PHE129     -0.0042
     35  CE1      -15.7150   56.5760   30.1880 C.ar  129  PHE129     -0.0003
     36  CE2      -14.6910   57.5990   28.2840 C.ar  129  PHE129     -0.0003
     37  CZ       -15.3090   56.5150   28.8620 C.ar  129  PHE129     -0.0000
     38  N        -12.5520   55.8350   33.7490 N.3   131  THR131     -0.1203
     39  CA       -12.1300   54.8010   32.7760 C.3   131  THR131      0.1994
     40  C        -11.2880   53.6610   33.3400 C.2   131  THR131      0.2617
     41  O        -10.6700   53.7750   34.4110 O.2   131  THR131     -0.2717
     42  CB       -11.3820   55.4370   31.5630 C.3   131  THR131      0.1784
     43  OG1      -10.0170   55.7230   31.8900 O.3   131  THR131     -0.2211
     44  CG2      -12.0330   56.7200   31.1200 C.3   131  THR131      0.0376
     45  N        -11.2820   52.5390   32.6050 N.am  132  ASN132     -0.1974
     46  CA       -10.3310   51.4510   32.7810 C.3   132  ASN132      0.1688
     47  C        -10.2880   50.8570   34.1800 C.2   132  ASN132      0.2292
     48  O         -9.2060   50.5930   34.7320 O.2   132  ASN132     -0.2864
     49  CB        -8.9350   51.9110   32.3650 C.3   132  ASN132      0.1181
     50  CG        -8.8260   52.1980   30.8720 C.2   132  ASN132      0.2629
     51  OD1       -9.7070   51.8680   30.0620 O.2   132  ASN132     -0.2716
     52  ND2       -7.7150   52.7780   30.4990 N.am  132  ASN132     -0.0877
     53  N        -13.0210   45.2020   31.9420 N.3   178  GLN178     -0.1245
     54  CA       -12.9040   46.5800   32.3840 C.3   178  GLN178      0.1566
     55  C        -14.2440   47.2650   32.4300 C.2   178  GLN178      0.2260
     56  O        -15.1320   46.9880   31.6080 O.2   178  GLN178     -0.2867
     57  CB       -11.9630   47.3200   31.4740 C.3   178  GLN178      0.0367
     58  CG       -10.5540   46.8080   31.6760 C.3   178  GLN178      0.0905
     59  CD        -9.5590   47.7650   31.1480 C.2   178  GLN178      0.2608
     60  OE1       -8.9830   48.5390   31.8910 O.2   178  GLN178     -0.2717
     61  NE2       -9.4000   47.7720   29.8300 N.am  178  GLN178     -0.0878
     62  N        -16.3410   51.0610   32.9250 N.3   180  TYR180     -0.1241
     63  CA       -16.3060   52.4840   32.6110 C.3   180  TYR180      0.1605
     64  C        -17.5110   53.1250   33.2770 C.2   180  TYR180      0.2264
     65  O        -18.6320   52.5790   33.2050 O.2   180  TYR180     -0.2867
     66  CB       -16.3330   52.7030   31.0900 C.3   180  TYR180      0.0534
     67  CG       -15.1380   52.0610   30.4390 C.ar  180  TYR180     -0.0201
     68  CD1      -15.1040   50.6870   30.2080 C.ar  180  TYR180     -0.0009
     69  CD2      -14.0130   52.8050   30.1230 C.ar  180  TYR180     -0.0009
     70  CE1      -13.9840   50.0830   29.6600 C.ar  180  TYR180      0.0417
     71  CE2      -12.8890   52.2140   29.5530 C.ar  180  TYR180      0.0417
     72  CZ       -12.8720   50.8530   29.3380 C.ar  180  TYR180      0.1957
     73  OH       -11.7520   50.2600   28.7980 O.3   180  TYR180     -0.2866
     74  N        -19.5920   56.7100   33.5350 N.3   182  LYS182     -0.1245
     75  CA       -19.7330   57.8230   32.6250 C.3   182  LYS182      0.1561
     76  C        -20.7210   58.8730   33.0700 C.2   182  LYS182      0.2260
     77  O        -21.6970   58.5630   33.7590 O.2   182  LYS182     -0.2867
     78  CB       -20.1630   57.3380   31.2340 C.3   182  LYS182      0.0271
     79  CG       -19.3610   56.1850   30.7120 C.3   182  LYS182      0.0035
     80  CD       -19.5940   55.9830   29.2180 C.3   182  LYS182      0.0206
     81  CE       -18.8950   54.7260   28.7180 C.3   182  LYS182      0.1093
     82  NZ       -19.1460   54.5090   27.2560 N.3   182  LYS182     -0.1314
     83  N        -16.3720   60.7610   26.3680 N.3   187  ARG187     -0.1231
     84  CA       -16.0340   60.3480   25.0090 C.3   187  ARG187      0.1694
     85  C        -14.8920   59.3440   24.9490 C.2   187  ARG187      0.2593
     86  O        -13.8760   59.5070   25.6180 O.2   187  ARG187     -0.2718
     87  CB       -15.6920   61.5550   24.1410 C.3   187  ARG187      0.0321
     88  CG       -16.9200   62.2070   23.5410 C.3   187  ARG187      0.0489
     89  CD       -16.5810   63.3440   22.6040 C.3   187  ARG187      0.2205
     90  NE       -17.7980   63.8020   21.9520 N.pl3 187  ARG187     -0.0865
     91  CZ       -17.8650   64.7250   21.0010 C.cat 187  ARG187      0.5346
     92  NH1      -16.7600   65.3340   20.5720 N.pl3 187  ARG187      0.1354
     93  NH2      -19.0560   65.0520   20.4950 N.pl3 187  ARG187      0.1354
     94  N        -15.0990   58.3180   24.1310 N.am  188  THR188     -0.1940
     95  CA       -14.1000   57.3260   23.7760 C.3   188  THR188      0.2013
     96  C        -13.6110   57.6920   22.3840 C.2   188  THR188      0.2484
     97  O        -14.3750   57.5800   21.4130 O.2   188  THR188     -0.2729
     98  CB       -14.7190   55.9240   23.8060 C.3   188  THR188      0.1807
     99  OG1      -15.1140   55.6200   25.1630 O.3   188  THR188     -0.2208
    100  CG2      -13.7220   54.8630   23.2970 C.3   188  THR188      0.0379
    101  N        -12.3500   58.1830   22.2700 N.am  189  PRO189     -0.2726
    102  CA       -11.8480   58.6200   20.9490 C.3   189  PRO189      0.1402
    103  C        -11.7040   57.4810   19.9430 C.2   189  PRO189      0.2269
    104  O        -11.6920   56.3010   20.3070 O.2   189  PRO189     -0.2865
    105  CB       -10.4720   59.2090   21.2610 C.3   189  PRO189      0.0296
    106  CG       -10.4590   59.4840   22.7290 C.3   189  PRO189      0.0237
    107  CD       -11.4150   58.5270   23.3640 C.3   189  PRO189      0.0939
    108  N        -10.5590   54.6310   17.5770 N.3   191  HIS191     -0.1226
    109  CA        -9.4950   53.6210   17.6830 C.3   191  HIS191      0.1752
    110  C         -9.9330   52.2870   17.0840 C.2   191  HIS191      0.2596
    111  O        -11.1190   52.0550   16.7920 O.2   191  HIS191     -0.2718
    112  CB        -9.0480   53.4310   19.1510 C.3   191  HIS191      0.0759
    113  CG       -10.0920   52.8110   20.0220 C.ar  191  HIS191      0.0818
    114  ND1      -11.2450   53.4720   20.3940 N.ar  191  HIS191     -0.2268
    115  CD2      -10.1650   51.5850   20.5900 C.ar  191  HIS191      0.1154
    116  CE1      -11.9670   52.6910   21.1700 C.ar  191  HIS191      0.1986
    117  NE2      -11.3420   51.5390   21.2970 N.ar  191  HIS191     -0.2212
    118  N         -8.9340   51.4410   16.8920 N.am  192  GLN192     -0.1965
    119  CA        -9.1090   50.0130   16.7280 C.3   192  GLN192      0.1733
    120  C         -8.6680   49.3060   18.0130 C.2   192  GLN192      0.2616
    121  O         -7.8210   49.7980   18.7570 O.2   192  GLN192     -0.2715
    122  CB        -8.2890   49.5400   15.5420 C.3   192  GLN192      0.0408
    123  CG        -8.8890   49.9930   14.2190 C.3   192  GLN192      0.0908
    124  CD        -7.9690   49.7410   13.0560 C.2   192  GLN192      0.2608
    125  OE1       -6.8460   50.2110   13.0480 O.2   192  GLN192     -0.2717
    126  NE2       -8.4350   49.0060   12.0700 N.am  192  GLN192     -0.0878
    127  N         -9.2450   48.1450   18.2490 N.am  193  GLU193     -0.1963
    128  CA        -8.8560   47.2950   19.3610 C.3   193  GLU193      0.1733
    129  C         -7.4130   46.8070   19.2810 C.2   193  GLU193      0.2616
    130  O         -6.8080   46.7610   18.1940 O.2   193  GLU193     -0.2715
    131  CB        -9.7890   46.0990   19.4520 C.3   193  GLU193      0.0429
    132  CG       -11.2110   46.4650   19.8270 C.3   193  GLU193      0.1163
    133  CD       -11.2530   47.1800   21.1710 C.2   193  GLU193      0.3649
    134  OE1      -11.1160   46.5050   22.2110 O.co2 193  GLU193     -0.2457
    135  OE2      -11.3580   48.4220   21.1840 O.co2 193  GLU193     -0.2457
    136  N         -6.8590   46.4580   20.4350 N.am  194  ASN194     -0.1972
    137  CA        -5.4940   45.8770   20.4750 C.3   194  ASN194      0.1688
    138  C         -5.4110   44.6610   19.5480 C.2   194  ASN194      0.2292
    139  O         -6.2270   43.7430   19.6210 O.2   194  ASN194     -0.2864
    140  CB        -5.1050   45.4480   21.8800 C.3   194  ASN194      0.1181
    141  CG        -4.9020   46.6030   22.8190 C.2   194  ASN194      0.2629
    142  OD1       -4.4720   47.6560   22.4250 O.2   194  ASN194     -0.2716
    143  ND2       -5.1460   46.3720   24.1000 N.am  194  ASN194     -0.0877
    144  N        -19.1560   44.8320   24.4650 N.3   201  ASN201     -0.1240
    145  CA       -19.4860   45.9540   25.3450 C.3   201  ASN201      0.1653
    146  C        -20.9490   45.8460   25.7590 C.2   201  ASN201      0.2266
    147  O        -21.8110   45.7140   24.8970 O.2   201  ASN201     -0.2867
    148  CB       -19.2580   47.2710   24.6080 C.3   201  ASN201      0.1155
    149  CG       -19.3880   48.5050   25.5150 C.2   201  ASN201      0.2627
    150  OD1      -20.4720   48.8350   26.0230 O.2   201  ASN201     -0.2716
    151  ND2      -18.2800   49.2080   25.6880 N.am  201  ASN201     -0.0877
    152  N        -22.8050   55.3920   19.4220 N.3   211  TRP211     -0.1241
    153  CA       -21.6600   54.7530   18.8040 C.3   211  TRP211      0.1605
    154  C        -21.5110   55.2030   17.3640 C.2   211  TRP211      0.2264
    155  O        -22.5070   55.4750   16.6810 O.2   211  TRP211     -0.2867
    156  CB       -21.8160   53.2390   18.8280 C.3   211  TRP211      0.0550
    157  CG       -21.6620   52.6380   20.1630 C.ar  211  TRP211      0.0003
    158  CD1      -22.5250   52.7460   21.2180 C.ar  211  TRP211      0.0946
    159  CD2      -20.5970   51.7710   20.5950 C.ar  211  TRP211      0.0152
    160  NE1      -22.0470   52.0260   22.2900 N.ar  211  TRP211     -0.2442
    161  CE2      -20.8640   51.4220   21.9320 C.ar  211  TRP211      0.0810
    162  CE3      -19.4200   51.2970   19.9920 C.ar  211  TRP211      0.0012
    163  CZ2      -20.0210   50.6200   22.6620 C.ar  211  TRP211      0.0191
    164  CZ3      -18.5830   50.4800   20.7170 C.ar  211  TRP211      0.0001
    165  CH2      -18.8800   50.1470   22.0360 C.ar  211  TRP211      0.0015
    166  N         -5.3420   60.9480   20.6500 N.3   237  SER237     -0.1217
    167  CA        -6.7860   61.0540   20.8140 C.3   237  SER237      0.1889
    168  C         -7.3920   61.9100   19.7110 C.2   237  SER237      0.2288
    169  O         -7.0380   63.0820   19.5690 O.2   237  SER237     -0.2866
    170  CB        -7.1260   61.6530   22.1720 C.3   237  SER237      0.2089
    171  OG        -6.9620   60.6550   23.1550 O.3   237  SER237     -0.2183
    172  N        -13.8520   52.7070   15.6370 N.3   271  HIS271     -0.1241
    173  CA       -15.0440   53.1520   16.3720 C.3   271  HIS271      0.1621
    174  C        -14.7240   54.2030   17.4280 C.2   271  HIS271      0.2264
    175  O        -13.5970   54.3060   17.8860 O.2   271  HIS271     -0.2867
    176  CB       -15.7710   51.9420   16.9870 C.3   271  HIS271      0.0745
    177  CG       -14.9870   51.2620   18.0630 C.ar  271  HIS271      0.0817
    178  ND1      -13.8930   50.4750   17.8040 N.ar  271  HIS271     -0.2268
    179  CD2      -15.1170   51.2890   19.4100 C.ar  271  HIS271      0.1154
    180  CE1      -13.3900   50.0360   18.9400 C.ar  271  HIS271      0.1986
    181  NE2      -14.1100   50.5240   19.9310 N.ar  271  HIS271     -0.2212
    182  N        -17.2030   56.5510   20.6490 N.3   273  VAL273     -0.1245
    183  CA       -18.4090   56.4090   21.4760 C.3   273  VAL273      0.1561
    184  C        -18.5620   57.6330   22.3850 C.2   273  VAL273      0.2260
    185  O        -17.5640   58.1670   22.9150 O.2   273  VAL273     -0.2867
    186  CB       -18.3400   55.1650   22.4160 C.3   273  VAL273      0.0252
    187  CG1      -19.7190   54.8030   22.9680 C.3   273  VAL273      0.0019
    188  CG2      -17.7130   53.9610   21.7130 C.3   273  VAL273      0.0019
    189  N        -20.5020   51.0250   31.7370 N.3   281  ASN281     -0.1240
    190  CA       -20.3330   50.0380   30.6590 C.3   281  ASN281      0.1653
    191  C        -19.2520   49.0830   31.0560 C.2   281  ASN281      0.2266
    192  O        -18.2830   49.4840   31.7360 O.2   281  ASN281     -0.2867
    193  CB       -19.8910   50.6860   29.3420 C.3   281  ASN281      0.1155
    194  CG       -20.9680   51.5170   28.6860 C.2   281  ASN281      0.2627
    195  OD1      -21.3470   52.5740   29.1960 O.2   281  ASN281     -0.2716
    196  ND2      -21.4420   51.0710   27.5130 N.am  281  ASN281     -0.0877
    197  N        -16.5800   46.0030   29.3360 N.3   283  ALA283     -0.1245
    198  CA       -16.0120   45.5650   28.0680 C.3   283  ALA283      0.1562
    199  C        -14.8350   44.6300   28.1970 C.2   283  ALA283      0.2260
    200  O        -14.0860   44.6610   29.1850 O.2   283  ALA283     -0.2867
    201  CB       -15.6330   46.7860   27.2110 C.3   283  ALA283      0.0290
@<TRIPOS>BOND
     1   126   124   am
     2   125   124    2
     3   124   123    1
     4   123   122    1
     5   122   119    1
     6   172   173    1
     7   173   176    1
     8   173   174    1
     9   155   154    2
    10   119   118    1
    11   119   120    1
    12   111   110    2
    13   118   110   am
    14   176   177    1
    15   110   109    1
    16   154   153    1
    17   174   175    2
    18   108   109    1
    19   109   112    1
    20   178   177   ar
    21   178   180   ar
    22   120   127   am
    23   120   121    2
    24   177   179   ar
    25   130   129    2
    26   127   128    1
    27   153   156    1
    28   153   152    1
    29   156   157    1
    30   180   181   ar
    31   112   113    1
    32   129   128    1
    33   129   136   am
    34   128   131    1
    35   179   181   ar
    36   131   132    1
    37   138   139    2
    38   138   137    1
    39   169   168    2
    40   168   167    1
    41   132   133    1
    42   103   104    2
    43   103   102    1
    44   162   159   ar
    45   162   164   ar
    46   113   114   ar
    47   113   115   ar
    48   157   159   ar
    49   157   158   ar
    50   114   116   ar
    51   136   137    1
    52   137   140    1
    53    93    91    1
    54    92    91    1
    55   115   117   ar
    56   159   161   ar
    57   182   183    1
    58   166   167    1
    59   164   165   ar
    60   167   170    1
    61   102   105    1
    62   102   101    1
    63    91    90    2
    64   116   117   ar
    65   133   135   ar
    66   133   134   ar
    67   158   160   ar
    68   105   106    1
    69    97    96    2
    70   183   184    1
    71   183   186    1
    72   188   186    1
    73   140   141    1
    74   161   160   ar
    75   161   163   ar
    76    90    89    1
    77   165   163   ar
    78   170   171    1
    79   101    96   am
    80   101   107    1
    81    96    95    1
    82   184   185    2
    83   186   187    1
    84   142   141    2
    85    89    88    1
    86   106   107    1
    87   141   143   am
    88   100    98    1
    89    88    87    1
    90    95    98    1
    91    95    94    1
    92    98    99    1
    93    94    85   am
    94    87    84    1
    95   144   145    1
    96   148   145    1
    97   148   149    1
    98   147   146    2
    99    85    84    1
   100    85    86    2
   101    84    83    1
   102   145   146    1
   103   149   151   am
   104   149   150    2
   105    21    22    1
   106    20    18   am
   107   201   198    1
   108    82    81    1
   109    25    22    1
   110    25    26    1
   111   196   194   am
   112    18    19    2
   113    18    17    1
   114    22    23    1
   115   198   199    1
   116   198   197    1
   117    16    17    1
   118    16    13    1
   119   199   200    2
   120    36    37   ar
   121    36    34   ar
   122    24    23    2
   123    10     9    1
   124   194   195    2
   125   194   193    1
   126    81    80    1
   127    14    13    1
   128    14    15    2
   129    73    72    1
   130    13    12    1
   131    37    35   ar
   132    11     9    1
   133    34    32   ar
   134     9     8    2
   135    80    79    1
   136    72    71   ar
   137    72    70   ar
   138   193   190    1
   139    71    69   ar
   140    70    68   ar
   141     8     7    1
   142    61    59   am
   143     7     6    1
   144    51    50    2
   145    69    67   ar
   146    35    33   ar
   147    68    67   ar
   148    32    33   ar
   149    32    31    1
   150     6     5    1
   151    67    66    1
   152    52    50   am
   153     5     2    1
   154   190   191    1
   155   190   189    1
   156    79    78    1
   157    50    49    1
   158   191   192    2
   159    31    28    1
   160    66    63    1
   161    44    42    1
   162    59    58    1
   163    59    60    2
   164    78    75    1
   165    57    58    1
   166    57    54    1
   167    42    43    1
   168    42    39    1
   169    56    55    2
   170     2     3    1
   171     2     1    1
   172    53    54    1
   173     4     3    2
   174    49    46    1
   175    54    55    1
   176    28    27    1
   177    28    29    1
   178    45    46    1
   179    45    40   am
   180    63    62    1
   181    63    64    1
   182    75    76    1
   183    75    74    1
   184    39    40    1
   185    39    38    1
   186    46    47    1
   187    76    77    2
   188    65    64    2
   189    40    41    2
   190    29    30    2
   191    47    48    2
