@<TRIPOS>MOLECULE
tmp/5a1rA00.pdb
 89 88 0 0 0
SMALL
GASTEIGER

@<TRIPOS>ATOM
      1  N        -29.3290  -25.4010   -6.5850 N.3   186  LEU186     -0.1231
      2  CA       -29.1060  -25.2400   -8.0230 C.3   186  LEU186      0.1693
      3  C        -28.4750  -23.8990   -8.3770 C.2   186  LEU186      0.2592
      4  O        -28.5000  -22.9470   -7.5900 O.2   186  LEU186     -0.2718
      5  CB       -30.4290  -25.4000   -8.7740 C.3   186  LEU186      0.0284
      6  CG       -31.1890  -26.6750   -8.4000 C.3   186  LEU186      0.0019
      7  CD1      -32.6770  -26.4130   -8.2360 C.3   186  LEU186      0.0001
      8  CD2      -30.9440  -27.7580   -9.4360 C.3   186  LEU186      0.0001
      9  N        -27.9110  -23.8230   -9.5740 N.am  187  ARG187     -0.1966
     10  CA       -27.3220  -22.5750  -10.0440 C.3   187  ARG187      0.1729
     11  C        -28.4140  -21.5350  -10.3180 C.2   187  ARG187      0.2616
     12  O        -29.5520  -21.8690  -10.6550 O.2   187  ARG187     -0.2715
     13  CB       -26.4550  -22.8340  -11.2780 C.3   187  ARG187      0.0348
     14  CG       -24.9860  -23.1910  -10.9360 C.3   187  ARG187      0.0492
     15  CD       -24.2970  -22.0890  -10.0750 C.3   187  ARG187      0.2205
     16  NE       -22.8460  -22.0370  -10.2740 N.pl3 187  ARG187     -0.0865
     17  CZ       -22.0950  -20.9430  -10.1220 C.cat 187  ARG187      0.5346
     18  NH1      -22.6530  -19.7940   -9.7630 N.pl3 187  ARG187      0.1354
     19  NH2      -20.7810  -20.9920  -10.3270 N.pl3 187  ARG187      0.1354
     20  N        -28.0790  -20.2690  -10.1280 N.am  188  PHE188     -0.1960
     21  CA       -29.0710  -19.2040  -10.2290 C.3   188  PHE188      0.1771
     22  C        -29.3950  -18.8500  -11.6690 C.2   188  PHE188      0.2619
     23  O        -28.5000  -18.7030  -12.4890 O.2   188  PHE188     -0.2715
     24  CB       -28.5760  -17.9500   -9.5070 C.3   188  PHE188      0.0574
     25  CG       -28.3380  -18.1510   -8.0360 C.ar  188  PHE188     -0.0200
     26  CD1      -29.2430  -18.8740   -7.2670 C.ar  188  PHE188     -0.0042
     27  CD2      -27.2200  -17.5980   -7.4220 C.ar  188  PHE188     -0.0042
     28  CE1      -29.0360  -19.0500   -5.9150 C.ar  188  PHE188     -0.0003
     29  CE2      -26.9950  -17.7700   -6.0720 C.ar  188  PHE188     -0.0003
     30  CZ       -27.9120  -18.5020   -5.3070 C.ar  188  PHE188     -0.0000
     31  N        -30.6790  -18.7030  -11.9680 N.am  189  ASP189     -0.1971
     32  CA       -31.0990  -18.1690  -13.2550 C.3   189  ASP189      0.1709
     33  C        -31.2730  -16.6540  -13.1080 C.2   189  ASP189      0.2293
     34  O        -32.2540  -16.1810  -12.5300 O.2   189  ASP189     -0.2864
     35  CB       -32.3930  -18.8540  -13.7330 C.3   189  ASP189      0.1436
     36  CG       -32.8680  -18.3490  -15.0990 C.2   189  ASP189      0.3671
     37  OD1      -32.1570  -17.5370  -15.7110 O.co2 189  ASP189     -0.2456
     38  OD2      -33.9560  -18.7600  -15.5610 O.co2 189  ASP189     -0.2456
     39  N        -34.5290  -14.8950  -14.3910 N.3   192  ASP192     -0.1239
     40  CA       -35.7400  -15.1690  -13.6370 C.3   192  ASP192      0.1674
     41  C        -36.3980  -13.8340  -13.2420 C.2   192  ASP192      0.2266
     42  O        -35.6870  -12.8300  -13.0980 O.2   192  ASP192     -0.2867
     43  CB       -35.3810  -16.0170  -12.4080 C.3   192  ASP192      0.1410
     44  CG       -36.5710  -16.3100  -11.5260 C.2   192  ASP192      0.3668
     45  OD1      -37.2840  -17.3000  -11.7940 O.co2 192  ASP192     -0.2456
     46  OD2      -36.7910  -15.5530  -10.5590 O.co2 192  ASP192     -0.2456
     47  N        -37.3440  -12.7020  -10.5120 N.3   194  PHE194     -0.1227
     48  CA       -36.7620  -12.2040   -9.2770 C.3   194  PHE194      0.1736
     49  C        -35.4650  -11.4450   -9.5120 C.2   194  PHE194      0.2595
     50  O        -35.2720  -10.3770   -8.9490 O.2   194  PHE194     -0.2718
     51  CB       -36.5130  -13.3460   -8.2880 C.3   194  PHE194      0.0547
     52  CG       -35.9090  -12.8920   -7.0120 C.ar  194  PHE194     -0.0202
     53  CD1      -36.6860  -12.2030   -6.0810 C.ar  194  PHE194     -0.0042
     54  CD2      -34.5500  -13.0880   -6.7540 C.ar  194  PHE194     -0.0042
     55  CE1      -36.1340  -11.7640   -4.8950 C.ar  194  PHE194     -0.0003
     56  CE2      -33.9910  -12.6540   -5.5750 C.ar  194  PHE194     -0.0003
     57  CZ       -34.7800  -11.9840   -4.6400 C.ar  194  PHE194     -0.0000
     58  N        -34.5750  -11.9790  -10.3370 N.am  195  PHE195     -0.1976
     59  CA       -33.2900  -11.3060  -10.5420 C.3   195  PHE195      0.1639
     60  C        -33.3850  -10.0770  -11.4700 C.2   195  PHE195      0.2290
     61  O        -32.6670   -9.0990  -11.2850 O.2   195  PHE195     -0.2864
     62  CB       -32.2500  -12.3100  -11.0590 C.3   195  PHE195      0.0560
     63  CG       -31.7260  -13.2060   -9.9820 C.ar  195  PHE195     -0.0200
     64  CD1      -31.0210  -12.6750   -8.9100 C.ar  195  PHE195     -0.0042
     65  CD2      -31.9880  -14.5650   -9.9970 C.ar  195  PHE195     -0.0042
     66  CE1      -30.5530  -13.4940   -7.8770 C.ar  195  PHE195     -0.0003
     67  CE2      -31.5300  -15.3910   -8.9890 C.ar  195  PHE195     -0.0003
     68  CZ       -30.8040  -14.8530   -7.9240 C.ar  195  PHE195     -0.0000
     69  N        -34.7090  -12.5540    3.8510 N.3   213  ILE213     -0.1231
     70  CA       -34.9680  -13.2760    2.6240 C.3   213  ILE213      0.1692
     71  C        -33.6870  -13.3970    1.8300 C.2   213  ILE213      0.2592
     72  O        -33.0550  -12.3950    1.5190 O.2   213  ILE213     -0.2718
     73  CB       -36.0260  -12.5800    1.7840 C.3   213  ILE213      0.0266
     74  CG1      -37.3670  -12.6170    2.5240 C.3   213  ILE213      0.0019
     75  CG2      -36.0900  -13.2110    0.3830 C.3   213  ILE213      0.0020
     76  CD1      -38.4490  -11.8520    1.8150 C.3   213  ILE213      0.0001
     77  N        -33.3280  -14.6310    1.4910 N.am  214  CYS214     -0.1956
     78  CA       -32.0160  -14.9550    0.9470 C.3   214  CYS214      0.1843
     79  C        -32.1460  -15.8120   -0.3260 C.2   214  CYS214      0.2625
     80  O        -33.1030  -16.5760   -0.4730 O.2   214  CYS214     -0.2714
     81  CB       -31.1960  -15.6830    2.0340 C.3   214  CYS214      0.0997
     82  SG       -29.4550  -16.0640    1.6430 S.3   214  CYS214     -0.0797
     83  N        -31.1970  -15.6910   -1.2500 N.am  215  VAL215     -0.1977
     84  CA       -31.2490  -16.4560   -2.4970 C.3   215  VAL215      0.1596
     85  C        -30.8100  -17.9300   -2.2820 C.2   215  VAL215      0.2287
     86  O        -31.1440  -18.8330   -3.0530 O.2   215  VAL215     -0.2864
     87  CB       -30.3790  -15.7860   -3.6060 C.3   215  VAL215      0.0276
     88  CG1      -30.8890  -14.3900   -3.8990 C.3   215  VAL215      0.0022
     89  CG2      -28.9150  -15.7460   -3.2180 C.3   215  VAL215      0.0022
@<TRIPOS>BOND
     1    37    36   ar
     2    38    36   ar
     3    36    35    1
     4    39    40    1
     5    35    32    1
     6    40    41    1
     7    40    43    1
     8    32    33    1
     9    32    31    1
    10    41    42    2
    11    33    34    2
    12    23    22    2
    13    43    44    1
    14    31    22   am
    15    45    44   ar
    16    22    21    1
    17    44    46   ar
    18    60    61    2
    19    60    59    1
    20    13    14    1
    21    13    10    1
    22    62    59    1
    23    62    63    1
    24    14    15    1
    25    12    11    2
    26    59    58    1
    27    47    48    1
    28    58    49   am
    29    19    17    1
    30    11    20   am
    31    11    10    1
    32    16    17    2
    33    16    15    1
    34    21    20    1
    35    21    24    1
    36    17    18    1
    37    10     9    1
    38    65    63   ar
    39    65    67   ar
    40    63    64   ar
    41     9     3   am
    42    49    48    1
    43    49    50    2
    44    24    25    1
    45     8     6    1
    46    48    51    1
    47    67    68   ar
    48    64    66   ar
    49     5     6    1
    50     5     2    1
    51     6     7    1
    52     3     2    1
    53     3     4    2
    54    51    52    1
    55    25    27   ar
    56    25    26   ar
    57     2     1    1
    58    68    66   ar
    59    27    29   ar
    60    26    28   ar
    61    52    54   ar
    62    52    53   ar
    63    54    56   ar
    64    53    55   ar
    65    29    30   ar
    66    28    30   ar
    67    56    57   ar
    68    55    57   ar
    69    88    87    1
    70    87    89    1
    71    87    84    1
    72    86    85    2
    73    84    85    1
    74    84    83    1
    75    83    79   am
    76    80    79    2
    77    79    78    1
    78    75    73    1
    79    78    77    1
    80    78    81    1
    81    77    71   am
    82    72    71    2
    83    82    81    1
    84    73    74    1
    85    73    70    1
    86    76    74    1
    87    71    70    1
    88    70    69    1
