@<TRIPOS>MOLECULE
tmp/5a1sD00.pdb
 107 101 0 0 0
SMALL
GASTEIGER

@<TRIPOS>ATOM
      1  N        -56.2140   -5.7800   61.1980 N.3    69  PRO69      -0.2116
      2  CA       -54.9550   -5.0980   60.8710 C.3    69  PRO69       0.1372
      3  C        -54.1320   -4.7180   62.1050 C.2    69  PRO69       0.2244
      4  O        -52.9010   -4.7690   62.0530 O.2    69  PRO69      -0.2868
      5  CB       -55.4190   -3.8360   60.1320 C.3    69  PRO69       0.0268
      6  CG       -56.8250   -3.6160   60.5830 C.3    69  PRO69       0.0207
      7  CD       -57.3870   -4.9900   60.7740 C.3    69  PRO69       0.0892
      8  N        -49.0100    0.9610   47.3630 N.3   106  PHE106     -0.1241
      9  CA       -50.2470    0.7600   48.1060 C.3   106  PHE106      0.1605
     10  C        -50.9570    2.0890   48.3500 C.2   106  PHE106      0.2264
     11  O        -52.1410    2.2370   48.0440 O.2   106  PHE106     -0.2867
     12  CB       -49.9500    0.0670   49.4390 C.3   106  PHE106      0.0534
     13  CG       -51.1810   -0.3480   50.1970 C.ar  106  PHE106     -0.0203
     14  CD1      -51.8120    0.5340   51.0650 C.ar  106  PHE106     -0.0042
     15  CD2      -51.7040   -1.6240   50.0480 C.ar  106  PHE106     -0.0042
     16  CE1      -52.9480    0.1510   51.7650 C.ar  106  PHE106     -0.0003
     17  CE2      -52.8390   -2.0140   50.7450 C.ar  106  PHE106     -0.0003
     18  CZ       -53.4620   -1.1250   51.6040 C.ar  106  PHE106     -0.0000
     19  N        -54.5220    3.5300   46.8510 N.3   110  LEU110     -0.1245
     20  CA       -55.5940    3.9620   47.7470 C.3   110  LEU110      0.1561
     21  C        -56.0640    5.3810   47.4400 C.2   110  LEU110      0.2260
     22  O        -57.2570    5.6180   47.2550 O.2   110  LEU110     -0.2867
     23  CB       -55.1370    3.8680   49.2040 C.3   110  LEU110      0.0270
     24  CG       -55.7900    2.7770   50.0530 C.3   110  LEU110      0.0019
     25  CD1      -55.6030    1.4100   49.4160 C.3   110  LEU110      0.0001
     26  CD2      -55.2290    2.7920   51.4660 C.3   110  LEU110      0.0001
     27  N        -57.2990    9.8120   57.6230 N.3   170  GLY170     -0.1210
     28  CA       -58.1650    8.8010   57.0450 C.3   170  GLY170      0.1956
     29  C        -58.0100    7.4020   57.6170 C.2   170  GLY170      0.2612
     30  O        -58.2150    6.4150   56.9050 O.2   170  GLY170     -0.2717
     31  N        -57.6570    7.3050   58.8950 N.am  171  GLY171     -0.1942
     32  CA       -57.5310    6.0120   59.5430 C.3   171  GLY171      0.2014
     33  C        -56.1040    5.5240   59.7170 C.2   171  GLY171      0.2639
     34  O        -55.1810    6.3150   59.9210 O.2   171  GLY171     -0.2714
     35  N        -55.9310    4.2080   59.6420 N.am  172  ASN172     -0.1958
     36  CA       -54.6250    3.5800   59.8100 C.3   172  ASN172      0.1819
     37  C        -53.7880    3.6450   58.5320 C.2   172  ASN172      0.2622
     38  O        -52.9100    4.4990   58.3990 O.2   172  ASN172     -0.2715
     39  CB       -54.8010    2.1230   60.2520 C.3   172  ASN172      0.1195
     40  CG       -53.4980    1.4760   60.6940 C.2   172  ASN172      0.2630
     41  OD1      -52.4130    2.0280   60.5040 O.2   172  ASN172     -0.2716
     42  ND2      -53.6010    0.2880   61.2830 N.am  172  ASN172     -0.0877
     43  N        -54.0590    2.7350   57.5990 N.am  173  GLY173     -0.1940
     44  CA       -53.2890    2.6430   56.3700 C.3   173  GLY173      0.2014
     45  C        -53.4680    3.8160   55.4230 C.2   173  GLY173      0.2638
     46  O        -52.6520    4.0260   54.5230 O.2   173  GLY173     -0.2714
     47  N        -54.5360    4.5820   55.6200 N.am  174  ALA174     -0.1977
     48  CA       -54.8140    5.7290   54.7620 C.3   174  ALA174      0.1597
     49  C        -54.5820    7.0330   55.5130 C.2   174  ALA174      0.2287
     50  O        -54.8180    8.1180   54.9800 O.2   174  ALA174     -0.2864
     51  CB       -56.2350    5.6660   54.2340 C.3   174  ALA174      0.0319
     52  N        -57.1470   -2.7870   49.4510 N.3   319  SER319     -0.1217
     53  CA       -57.5800   -2.4860   50.8170 C.3   319  SER319      0.1889
     54  C        -58.2710   -3.6520   51.5280 C.2   319  SER319      0.2288
     55  O        -58.4450   -3.6220   52.7470 O.2   319  SER319     -0.2866
     56  CB       -58.4850   -1.2510   50.8360 C.3   319  SER319      0.2089
     57  OG       -59.7050   -1.5010   50.1640 O.3   319  SER319     -0.2183
     58  N        -54.2090   -5.5860   52.4750 N.3   323  LEU323     -0.1245
     59  CA       -54.0350   -4.8040   53.6980 C.3   323  LEU323      0.1561
     60  C        -53.3570   -5.6050   54.8070 C.2   323  LEU323      0.2260
     61  O        -52.5590   -5.0630   55.5740 O.2   323  LEU323     -0.2867
     62  CB       -55.3830   -4.2660   54.1890 C.3   323  LEU323      0.0270
     63  CG       -55.3720   -3.4640   55.4920 C.3   323  LEU323      0.0019
     64  CD1      -54.4740   -2.2540   55.3520 C.3   323  LEU323      0.0001
     65  CD2      -56.7760   -3.0390   55.8880 C.3   323  LEU323      0.0001
     66  N        -61.8800    6.1370   62.4600 N.3   388  ARG388     -0.1231
     67  CA       -60.8350    5.3860   61.7710 C.3   388  ARG388      0.1694
     68  C        -61.2520    4.9810   60.3560 C.2   388  ARG388      0.2593
     69  O        -61.5640    3.8150   60.1000 O.2   388  ARG388     -0.2718
     70  CB       -60.4740    4.1380   62.5810 C.3   388  ARG388      0.0321
     71  CG       -59.2140    3.4180   62.1240 C.3   388  ARG388      0.0489
     72  CD       -59.3830    1.9040   62.2110 C.3   388  ARG388      0.2205
     73  NE       -59.8950    1.4620   63.5070 N.pl3 388  ARG388     -0.0865
     74  CZ       -61.1120    0.9620   63.6990 C.cat 388  ARG388      0.5346
     75  NH1      -61.9440    0.8370   62.6760 N.pl3 388  ARG388      0.1354
     76  NH2      -61.4970    0.5840   64.9100 N.pl3 388  ARG388      0.1354
     77  N        -61.2550    5.9460   59.4420 N.am  389  GLY389     -0.1942
     78  CA       -61.5270    5.6780   58.0390 C.3   389  GLY389      0.2014
     79  C        -62.8960    5.0940   57.7340 C.2   389  GLY389      0.2639
     80  O        -63.8640    5.3380   58.4580 O.2   389  GLY389     -0.2714
     81  N        -62.9680    4.3170   56.6550 N.am  390  GLY390     -0.1939
     82  CA       -64.2170    3.7370   56.1950 C.3   390  GLY390      0.2014
     83  C        -64.8670    2.7780   57.1740 C.2   390  GLY390      0.2639
     84  O        -66.0920    2.7440   57.2880 O.2   390  GLY390     -0.2714
     85  N        -64.0530    1.9940   57.8760 N.am  391  SER391     -0.1949
     86  CA       -64.5690    1.0580   58.8690 C.3   391  SER391      0.1924
     87  C        -65.1950    1.8190   60.0300 C.2   391  SER391      0.2314
     88  O        -66.1930    1.3820   60.6080 O.2   391  SER391     -0.2863
     89  CB       -63.4570    0.1420   59.3780 C.3   391  SER391      0.2116
     90  OG       -62.4330    0.8860   60.0110 O.3   391  SER391     -0.2180
     91  N        -63.9390   10.6120   54.7500 N.3   413  SER413     -0.1202
     92  CA       -62.8730    9.6180   54.8510 C.3   413  SER413      0.2020
     93  C        -61.8870    9.6740   53.6840 C.2   413  SER413      0.2618
     94  O        -60.7060    9.3700   53.8510 O.2   413  SER413     -0.2717
     95  CB       -63.4620    8.2070   54.9490 C.3   413  SER413      0.2103
     96  OG       -64.1610    8.0200   56.1630 O.3   413  SER413     -0.2182
     97  N        -62.3710   10.0610   52.5080 N.am  414  ARG414     -0.1979
     98  CA       -61.5510   10.0240   51.2980 C.3   414  ARG414      0.1597
     99  C        -60.9950   11.3910   50.9040 C.2   414  ARG414      0.2287
    100  O        -59.7810   11.5730   50.8380 O.2   414  ARG414     -0.2864
    101  CB       -62.3390    9.4040   50.1380 C.3   414  ARG414      0.0334
    102  CG       -62.8040    7.9790   50.4150 C.3   414  ARG414      0.0492
    103  CD       -63.7820    7.4750   49.3620 C.3   414  ARG414      0.2205
    104  NE       -64.4060    6.2170   49.7700 N.pl3 414  ARG414     -0.0865
    105  CZ       -65.2800    5.5350   49.0370 C.cat 414  ARG414      0.5346
    106  NH1      -65.6420    5.9820   47.8430 N.pl3 414  ARG414      0.1354
    107  NH2      -65.7910    4.4040   49.5010 N.pl3 414  ARG414      0.1354
@<TRIPOS>BOND
     1    19    20    1
     2    22    21    2
     3     8     9    1
     4    21    20    1
     5    20    23    1
     6   106   105    1
     7    11    10    2
     8     9    10    1
     9     9    12    1
    10   105   107    1
    11   105   104    2
    12    23    24    1
    13   103   104    1
    14   103   102    1
    15    25    24    1
    16    12    13    1
    17    52    53    1
    18    15    13   ar
    19    15    17   ar
    20    24    26    1
    21   101   102    1
    22   101    98    1
    23    57    56    1
    24    13    14   ar
    25    17    18   ar
    26    53    56    1
    27    53    54    1
    28   100    99    2
    29    99    98    1
    30    14    16   ar
    31    98    97    1
    32    54    55    2
    33    18    16   ar
    34    58    59    1
    35    97    93   am
    36    93    94    2
    37    93    92    1
    38    59    62    1
    39    59    60    1
    40    62    63    1
    41    51    48    1
    42    46    45    2
    43    91    92    1
    44    48    49    1
    45    48    47    1
    46    60    61    2
    47    92    95    1
    48    95    96    1
    49    50    49    2
    50    64    63    1
    51    45    47   am
    52    45    44    1
    53    63    65    1
    54    82    81    1
    55    82    83    1
    56    44    43    1
    57    81    79   am
    58    30    29    2
    59    28    29    1
    60    28    27    1
    61    83    84    2
    62    83    85   am
    63    43    37   am
    64    29    31   am
    65    79    78    1
    66    79    80    2
    67    85    86    1
    68    78    77    1
    69    38    37    2
    70    37    36    1
    71    86    89    1
    72    86    87    1
    73    31    32    1
    74    89    90    1
    75    77    68   am
    76    32    33    1
    77    35    33   am
    78    35    36    1
    79    33    34    2
    80    36    39    1
    81    87    88    2
    82    69    68    2
    83     5     6    1
    84     5     2    1
    85    39    40    1
    86    68    67    1
    87    41    40    2
    88     6     7    1
    89    40    42   am
    90     7     1    1
    91     2     1    1
    92     2     3    1
    93    67    66    1
    94    67    70    1
    95     4     3    2
    96    71    72    1
    97    71    70    1
    98    72    73    1
    99    75    74    1
   100    73    74    2
   101    74    76    1
