@<TRIPOS>MOLECULE
tmp/5a1sD02.pdb
 77 70 0 0 0
SMALL
GASTEIGER

@<TRIPOS>ATOM
      1  N        -40.3810   -9.3720   65.9970 N.3    80  VAL80      -0.1245
      2  CA       -39.1010   -8.6880   65.8660 C.3    80  VAL80       0.1561
      3  C        -38.4850   -8.4770   67.2420 C.2    80  VAL80       0.2260
      4  O        -37.3020   -8.7370   67.4510 O.2    80  VAL80      -0.2867
      5  CB       -39.2620   -7.3240   65.1630 C.3    80  VAL80       0.0252
      6  CG1      -37.9290   -6.5940   65.0920 C.3    80  VAL80       0.0019
      7  CG2      -39.8320   -7.5150   63.7700 C.3    80  VAL80       0.0019
      8  N        -37.0500  -10.7820   58.0940 N.3    90  ILE90      -0.1245
      9  CA       -37.0860   -9.3340   58.2760 C.3    90  ILE90       0.1561
     10  C        -36.6230   -8.6230   57.0040 C.2    90  ILE90       0.2260
     11  O        -37.2190   -7.6270   56.5890 O.2    90  ILE90      -0.2867
     12  CB       -36.2340   -8.8920   59.4870 C.3    90  ILE90       0.0252
     13  CG1      -36.8750   -9.3840   60.7860 C.3    90  ILE90       0.0019
     14  CG2      -36.0860   -7.3830   59.5310 C.3    90  ILE90       0.0019
     15  CD1      -36.0960   -9.0190   62.0330 C.3    90  ILE90       0.0001
     16  N        -38.9370   -6.0740   54.7820 N.3    94  SER94      -0.1217
     17  CA       -38.3970   -4.7310   54.5940 C.3    94  SER94       0.1889
     18  C        -38.1620   -4.4140   53.1210 C.2    94  SER94       0.2288
     19  O        -38.4580   -3.3090   52.6650 O.2    94  SER94      -0.2866
     20  CB       -37.0930   -4.5680   55.3760 C.3    94  SER94       0.2089
     21  OG       -37.2900   -4.8340   56.7500 O.3    94  SER94      -0.2183
     22  N        -40.0250   -1.2460   51.6140 N.3    98  ASP98      -0.1239
     23  CA       -39.2250   -0.0500   51.3560 C.3    98  ASP98       0.1674
     24  C        -38.3510   -0.1350   50.1060 C.2    98  ASP98       0.2266
     25  O        -38.3300    0.7940   49.3000 O.2    98  ASP98      -0.2867
     26  CB       -38.3690    0.2900   52.5810 C.3    98  ASP98       0.1410
     27  CG       -39.1900    0.8540   53.7270 C.2    98  ASP98       0.3668
     28  OD1      -40.1470    1.6100   53.4540 O.co2  98  ASP98      -0.2456
     29  OD2      -38.8780    0.5450   54.8970 O.co2  98  ASP98      -0.2456
     30  N        -40.0990    7.2410   61.5120 N.3   191  ARG191     -0.1231
     31  CA       -41.5380    7.1330   61.3320 C.3   191  ARG191      0.1694
     32  C        -42.1290    6.2590   62.4300 C.2   191  ARG191      0.2591
     33  O        -43.3170    6.3510   62.7340 O.2   191  ARG191     -0.2718
     34  CB       -41.8710    6.5600   59.9530 C.3   191  ARG191      0.0321
     35  CG       -41.2860    5.1820   59.6910 C.3   191  ARG191      0.0489
     36  CD       -40.1950    5.2480   58.6420 C.3   191  ARG191      0.2205
     37  NE       -40.5710    4.5690   57.4050 N.pl3 191  ARG191     -0.0865
     38  CZ       -40.1770    3.3420   57.0780 C.cat 191  ARG191      0.5346
     39  NH1      -39.3900    2.6570   57.8950 N.pl3 191  ARG191      0.1354
     40  NH2      -40.5650    2.8000   55.9320 N.pl3 191  ARG191      0.1354
     41  N        -41.2860    5.4210   63.0310 N.am  192  GLU192     -0.1979
     42  CA       -41.7240    4.5090   64.0820 C.3   192  GLU192      0.1602
     43  C        -42.1850    5.2480   65.3340 C.2   192  GLU192      0.2287
     44  O        -43.0550    4.7660   66.0590 O.2   192  GLU192     -0.2864
     45  CB       -40.6060    3.5290   64.4430 C.3   192  GLU192      0.0415
     46  CG       -39.8870    2.9370   63.2450 C.3   192  GLU192      0.1163
     47  CD       -38.5170    3.5470   63.0290 C.2   192  GLU192      0.3649
     48  OE1      -37.8140    3.8020   64.0300 O.co2 192  GLU192     -0.2457
     49  OE2      -38.1420    3.7700   61.8580 O.co2 192  GLU192     -0.2457
     50  N        -43.2990   -4.4310   61.2460 N.3   332  VAL332     -0.1231
     51  CA       -41.8530   -4.5870   61.1420 C.3   332  VAL332      0.1692
     52  C        -41.1170   -3.2490   60.9960 C.2   332  VAL332      0.2592
     53  O        -40.0370   -3.0640   61.5570 O.2   332  VAL332     -0.2718
     54  CB       -41.4890   -5.5310   59.9680 C.3   332  VAL332      0.0266
     55  CG1      -40.0240   -5.4030   59.5830 C.3   332  VAL332      0.0020
     56  CG2      -41.8130   -6.9680   60.3270 C.3   332  VAL332      0.0020
     57  N        -41.7180   -2.3130   60.2670 N.am  333  CYS333     -0.1970
     58  CA       -41.0220   -1.0890   59.8700 C.3   333  CYS333      0.1712
     59  C        -41.5240    0.2070   60.5150 C.2   333  CYS333      0.2296
     60  O        -40.8460    1.2310   60.4490 O.2   333  CYS333     -0.2864
     61  CB       -41.0700   -0.9400   58.3470 C.3   333  CYS333      0.0983
     62  SG       -40.4000   -2.3390   57.4240 S.3   333  CYS333     -0.0798
     63  N        -43.5150    0.1610   63.7140 N.3   335  THR335     -0.1203
     64  CA       -44.0660   -0.0760   65.0420 C.3   335  THR335      0.1994
     65  C        -43.0230   -0.2200   66.1440 C.2   335  THR335      0.2617
     66  O        -42.1630   -1.1040   66.0950 O.2   335  THR335     -0.2717
     67  CB       -44.9750   -1.3180   65.0470 C.3   335  THR335      0.1784
     68  OG1      -46.0240   -1.1470   64.0850 O.3   335  THR335     -0.2211
     69  CG2      -45.5780   -1.5220   66.4270 C.3   335  THR335      0.0376
     70  N        -43.1120    0.6610   67.1370 N.am  336  ASP336     -0.1973
     71  CA       -42.3620    0.5060   68.3750 C.3   336  ASP336      0.1709
     72  C        -43.3620    0.2370   69.4920 C.2   336  ASP336      0.2293
     73  O        -44.1520    1.1120   69.8570 O.2   336  ASP336     -0.2864
     74  CB       -41.5420    1.7590   68.6800 C.3   336  ASP336      0.1436
     75  CG       -40.5910    1.5650   69.8490 C.2   336  ASP336      0.3671
     76  OD1      -40.3990    0.4100   70.2910 O.co2 336  ASP336     -0.2456
     77  OD2      -40.0200    2.5700   70.3190 O.co2 336  ASP336     -0.2456
@<TRIPOS>BOND
     1    25    24    2
     2    24    23    1
     3    23    22    1
     4    23    26    1
     5    26    27    1
     6    19    18    2
     7    18    17    1
     8    28    27   ar
     9    27    29   ar
    10    17    16    1
    11    17    20    1
    12    20    21    1
    13    40    38    1
    14    11    10    2
    15    10     9    1
    16    38    37    2
    17    38    39    1
    18    37    36    1
    19    62    61    1
    20     8     9    1
    21     9    12    1
    22    61    58    1
    23    36    35    1
    24    12    14    1
    25    12    13    1
    26    55    54    1
    27    35    34    1
    28    58    57    1
    29    58    59    1
    30    34    31    1
    31    54    56    1
    32    54    51    1
    33    57    52   am
    34    60    59    2
    35    13    15    1
    36    52    51    1
    37    52    53    2
    38    51    50    1
    39    31    30    1
    40    31    32    1
    41    49    47   ar
    42    32    33    2
    43    32    41   am
    44    47    46    1
    45    47    48   ar
    46    41    42    1
    47    46    45    1
    48    63    64    1
    49     7     5    1
    50    42    45    1
    51    42    43    1
    52    68    67    1
    53    64    67    1
    54    64    65    1
    55    67    69    1
    56     6     5    1
    57     5     2    1
    58    43    44    2
    59     2     1    1
    60     2     3    1
    61    66    65    2
    62    65    70   am
    63    70    71    1
    64     3     4    2
    65    71    74    1
    66    71    72    1
    67    74    75    1
    68    72    73    2
    69    75    76   ar
    70    75    77   ar
