@<TRIPOS>MOLECULE
tmp/5a1sA05.pdb
 98 93 0 0 0
SMALL
GASTEIGER

@<TRIPOS>ATOM
      1  N        -16.0810  -40.3110   49.0240 N.3   119  ARG119     -0.1231
      2  CA       -14.6680  -40.2760   48.6430 C.3   119  ARG119      0.1694
      3  C        -14.3750  -39.5850   47.3100 C.2   119  ARG119      0.2591
      4  O        -13.2120  -39.4080   46.9450 O.2   119  ARG119     -0.2718
      5  CB       -14.0960  -41.6980   48.6220 C.3   119  ARG119      0.0321
      6  CG       -14.8140  -42.6370   47.6610 C.3   119  ARG119      0.0489
      7  CD       -14.2540  -44.0500   47.7280 C.3   119  ARG119      0.2205
      8  NE       -14.8470  -44.9180   46.7140 N.pl3 119  ARG119     -0.0865
      9  CZ       -15.9650  -45.6160   46.8850 C.cat 119  ARG119      0.5346
     10  NH1      -16.6190  -45.5540   48.0370 N.pl3 119  ARG119      0.1354
     11  NH2      -16.4290  -46.3780   45.9040 N.pl3 119  ARG119      0.1354
     12  N        -15.4220  -39.1930   46.5910 N.am  120  LYS120     -0.1980
     13  CA       -15.2580  -38.5790   45.2770 C.3   120  LYS120      0.1596
     14  C        -14.8480  -37.1050   45.3340 C.2   120  LYS120      0.2287
     15  O        -14.1160  -36.6320   44.4650 O.2   120  LYS120     -0.2864
     16  CB       -16.5270  -38.7570   44.4370 C.3   120  LYS120      0.0298
     17  CG       -16.7940  -40.1960   44.0180 C.3   120  LYS120      0.0038
     18  CD       -18.1010  -40.3230   43.2510 C.3   120  LYS120      0.0206
     19  CE       -18.0700  -39.5330   41.9530 C.3   120  LYS120      0.1093
     20  NZ       -19.3500  -39.6630   41.2000 N.3   120  LYS120     -0.1314
     21  N        -13.2380  -35.7430   47.9690 N.3   122  LEU122     -0.1231
     22  CA       -12.0990  -35.6140   48.8770 C.3   122  LEU122      0.1693
     23  C        -10.8870  -34.9650   48.2130 C.2   122  LEU122      0.2592
     24  O        -10.3920  -33.9360   48.6740 O.2   122  LEU122     -0.2718
     25  CB       -11.7010  -36.9830   49.4360 C.3   122  LEU122      0.0284
     26  CG       -12.6150  -37.6020   50.4920 C.3   122  LEU122      0.0019
     27  CD1      -12.0780  -38.9510   50.9450 C.3   122  LEU122      0.0001
     28  CD2      -12.7450  -36.6600   51.6710 C.3   122  LEU122      0.0001
     29  N        -10.4230  -35.5720   47.1260 N.am  123  LEU123     -0.1966
     30  CA        -9.1920  -35.1510   46.4630 C.3   123  LEU123      0.1728
     31  C         -9.2450  -33.7220   45.9230 C.2   123  LEU123      0.2616
     32  O         -8.3910  -32.8970   46.2530 O.2   123  LEU123     -0.2715
     33  CB        -8.8420  -36.1220   45.3310 C.3   123  LEU123      0.0311
     34  CG        -7.4370  -35.9800   44.7480 C.3   123  LEU123      0.0022
     35  CD1       -6.3990  -36.2130   45.8340 C.3   123  LEU123      0.0001
     36  CD2       -7.2260  -36.9390   43.5850 C.3   123  LEU123      0.0001
     37  N        -10.2480  -33.4340   45.0980 N.am  124  LYS124     -0.1977
     38  CA       -10.3440  -32.1360   44.4310 C.3   124  LYS124      0.1596
     39  C        -10.6890  -30.9810   45.3740 C.2   124  LYS124      0.2287
     40  O        -10.5300  -29.8170   45.0130 O.2   124  LYS124     -0.2864
     41  CB       -11.3370  -32.1990   43.2650 C.3   124  LYS124      0.0298
     42  CG       -10.9190  -33.1500   42.1520 C.3   124  LYS124      0.0038
     43  CD       -11.9350  -33.1770   41.0200 C.3   124  LYS124      0.0206
     44  CE       -11.5520  -34.2080   39.9690 C.3   124  LYS124      0.1093
     45  NZ       -12.5640  -34.3170   38.8800 N.3   124  LYS124     -0.1314
     46  N         -9.2160  -30.7280   48.5060 N.3   126  LEU126     -0.1245
     47  CA        -7.9000  -30.4290   49.0560 C.3   126  LEU126      0.1561
     48  C         -7.0240  -29.6700   48.0600 C.2   126  LEU126      0.2260
     49  O         -6.2290  -28.8130   48.4490 O.2   126  LEU126     -0.2867
     50  CB        -7.2140  -31.7290   49.4870 C.3   126  LEU126      0.0270
     51  CG        -5.7620  -31.6680   49.9640 C.3   126  LEU126      0.0019
     52  CD1       -5.6470  -30.8430   51.2330 C.3   126  LEU126      0.0001
     53  CD2       -5.2050  -33.0680   50.1810 C.3   126  LEU126      0.0001
     54  N         -1.7030  -34.9350   59.3480 N.3   288  TRP288     -0.1241
     55  CA        -1.6440  -36.3490   59.0060 C.3   288  TRP288      0.1605
     56  C         -2.9570  -37.0620   59.3040 C.2   288  TRP288      0.2264
     57  O         -3.3380  -37.9860   58.5890 O.2   288  TRP288     -0.2867
     58  CB        -0.4940  -37.0410   59.7410 C.3   288  TRP288      0.0550
     59  CG         0.7880  -37.0380   58.9730 C.ar  288  TRP288      0.0003
     60  CD1        1.9830  -36.5150   59.3700 C.ar  288  TRP288      0.0946
     61  CD2        1.0020  -37.5810   57.6640 C.ar  288  TRP288      0.0152
     62  NE1        2.9290  -36.7020   58.3900 N.ar  288  TRP288     -0.2442
     63  CE2        2.3510  -37.3540   57.3320 C.ar  288  TRP288      0.0810
     64  CE3        0.1830  -38.2400   56.7410 C.ar  288  TRP288      0.0012
     65  CZ2        2.8990  -37.7620   56.1160 C.ar  288  TRP288      0.0191
     66  CZ3        0.7270  -38.6420   55.5370 C.ar  288  TRP288      0.0001
     67  CH2        2.0720  -38.4030   55.2340 C.ar  288  TRP288      0.0015
     68  N         -5.5960  -36.5350   56.5280 N.3   291  LEU291     -0.1231
     69  CA        -5.2770  -37.3680   55.3740 C.3   291  LEU291      0.1693
     70  C         -5.5380  -38.8520   55.6430 C.2   291  LEU291      0.2591
     71  O         -6.0020  -39.5760   54.7620 O.2   291  LEU291     -0.2718
     72  CB        -3.8240  -37.1510   54.9460 C.3   291  LEU291      0.0284
     73  CG        -3.4460  -35.7170   54.5670 C.3   291  LEU291      0.0019
     74  CD1       -1.9850  -35.6200   54.1490 C.3   291  LEU291      0.0001
     75  CD2       -4.3460  -35.2120   53.4580 C.3   291  LEU291      0.0001
     76  N         -5.2450  -39.2970   56.8620 N.am  292  ILE292     -0.1980
     77  CA        -5.4620  -40.6900   57.2550 C.3   292  ILE292      0.1595
     78  C         -6.9470  -41.0660   57.2580 C.2   292  ILE292      0.2287
     79  O         -7.3280  -42.1140   56.7330 O.2   292  ILE292     -0.2864
     80  CB        -4.8300  -40.9890   58.6340 C.3   292  ILE292      0.0276
     81  CG1       -3.3170  -41.1490   58.4930 C.3   292  ILE292      0.0022
     82  CG2       -5.4160  -42.2450   59.2460 C.3   292  ILE292      0.0022
     83  CD1       -2.6080  -41.3550   59.8040 C.3   292  ILE292      0.0001
     84  N         -9.2240  -39.4960   55.6210 N.3   294  ALA294     -0.1231
     85  CA        -9.6290  -39.4030   54.2210 C.3   294  ALA294      0.1694
     86  C         -9.2750  -40.6860   53.4750 C.2   294  ALA294      0.2591
     87  O        -10.0910  -41.2290   52.7310 O.2   294  ALA294     -0.2718
     88  CB        -8.9760  -38.2080   53.5580 C.3   294  ALA294      0.0304
     89  N         -8.0500  -41.1610   53.6760 N.am  295  ALA295     -0.1980
     90  CA        -7.5990  -42.4080   53.0750 C.3   295  ALA295      0.1597
     91  C         -8.4420  -43.5750   53.5790 C.2   295  ALA295      0.2287
     92  O         -8.6920  -44.5330   52.8490 O.2   295  ALA295     -0.2864
     93  CB        -6.1320  -42.6390   53.3850 C.3   295  ALA295      0.0319
     94  N        -11.7450  -43.4720   51.7300 N.3   298  ALA298     -0.1245
     95  CA       -11.5850  -43.9150   50.3500 C.3   298  ALA298      0.1562
     96  C        -11.3350  -45.4190   50.2520 C.2   298  ALA298      0.2260
     97  O        -11.5850  -46.0280   49.2140 O.2   298  ALA298     -0.2867
     98  CB       -10.4590  -43.1460   49.6770 C.3   298  ALA298      0.0290
@<TRIPOS>BOND
     1    45    44    1
     2    44    43    1
     3    43    42    1
     4    20    19    1
     5    19    18    1
     6    42    41    1
     7    18    17    1
     8    41    38    1
     9    36    34    1
    10    17    16    1
    11    38    37    1
    12    38    39    1
    13    16    13    1
    14    15    14    2
    15    34    33    1
    16    34    35    1
    17    40    39    2
    18    37    31   am
    19    13    14    1
    20    13    12    1
    21    33    30    1
    22    11     9    1
    23    31    32    2
    24    31    30    1
    25    30    29    1
    26    12     3   am
    27     8     9    2
    28     8     7    1
    29     9    10    1
    30     4     3    2
    31    29    23   am
    32     3     2    1
    33     6     7    1
    34     6     5    1
    35    21    22    1
    36    48    49    2
    37    48    47    1
    38    23    24    2
    39    23    22    1
    40    46    47    1
    41     5     2    1
    42     2     1    1
    43    22    25    1
    44    47    50    1
    45    97    96    2
    46    25    26    1
    47    50    51    1
    48    98    95    1
    49    51    53    1
    50    51    52    1
    51    96    95    1
    52    95    94    1
    53    26    27    1
    54    26    28    1
    55    87    86    2
    56    92    91    2
    57    90    93    1
    58    90    91    1
    59    90    89    1
    60    75    73    1
    61    86    89   am
    62    86    85    1
    63    88    85    1
    64    74    73    1
    65    85    84    1
    66    73    72    1
    67    71    70    2
    68    72    69    1
    69    67    66   ar
    70    67    65   ar
    71    69    70    1
    72    69    68    1
    73    66    64   ar
    74    70    76   am
    75    65    63   ar
    76    79    78    2
    77    64    61   ar
    78    76    77    1
    79    77    78    1
    80    77    80    1
    81    63    61   ar
    82    63    62   ar
    83    61    59   ar
    84    62    60   ar
    85    81    80    1
    86    81    83    1
    87    57    56    2
    88    80    82    1
    89    59    60   ar
    90    59    58    1
    91    55    56    1
    92    55    54    1
    93    55    58    1
