@<TRIPOS>MOLECULE
tmp/5a1sA04.pdb
 130 124 0 0 0
SMALL
GASTEIGER

@<TRIPOS>ATOM
      1  N        -15.4220  -39.1930   46.5910 N.3   120  LYS120     -0.1231
      2  CA       -15.2580  -38.5790   45.2770 C.3   120  LYS120      0.1693
      3  C        -14.8480  -37.1050   45.3340 C.2   120  LYS120      0.2591
      4  O        -14.1160  -36.6320   44.4650 O.2   120  LYS120     -0.2718
      5  CB       -16.5270  -38.7570   44.4370 C.3   120  LYS120      0.0285
      6  CG       -16.7940  -40.1960   44.0180 C.3   120  LYS120      0.0035
      7  CD       -18.1010  -40.3230   43.2510 C.3   120  LYS120      0.0206
      8  CE       -18.0700  -39.5330   41.9530 C.3   120  LYS120      0.1093
      9  NZ       -19.3500  -39.6630   41.2000 N.3   120  LYS120     -0.1314
     10  N        -15.3110  -36.3810   46.3500 N.am  121  LEU121     -0.1980
     11  CA       -14.9870  -34.9580   46.4640 C.3   121  LEU121      0.1596
     12  C        -13.7880  -34.6880   47.3750 C.2   121  LEU121      0.2287
     13  O        -13.3730  -33.5410   47.5290 O.2   121  LEU121     -0.2864
     14  CB       -16.2120  -34.1350   46.9000 C.3   121  LEU121      0.0297
     15  CG       -16.8260  -34.2730   48.2980 C.3   121  LEU121      0.0022
     16  CD1      -16.1180  -33.3910   49.3130 C.3   121  LEU121      0.0001
     17  CD2      -18.3070  -33.9320   48.2600 C.3   121  LEU121      0.0001
     18  N        -10.2480  -33.4340   45.0980 N.3   124  LYS124     -0.1231
     19  CA       -10.3440  -32.1360   44.4310 C.3   124  LYS124      0.1693
     20  C        -10.6890  -30.9810   45.3740 C.2   124  LYS124      0.2593
     21  O        -10.5300  -29.8170   45.0130 O.2   124  LYS124     -0.2718
     22  CB       -11.3370  -32.1990   43.2650 C.3   124  LYS124      0.0285
     23  CG       -10.9190  -33.1500   42.1520 C.3   124  LYS124      0.0035
     24  CD       -11.9350  -33.1770   41.0200 C.3   124  LYS124      0.0206
     25  CE       -11.5520  -34.2080   39.9690 C.3   124  LYS124      0.1093
     26  NZ       -12.5640  -34.3170   38.8800 N.3   124  LYS124     -0.1314
     27  N        -11.1620  -31.3020   46.5740 N.am  125  SER125     -0.1938
     28  CA       -11.4030  -30.2820   47.5880 C.3   125  SER125      0.2055
     29  C        -10.0720  -29.7830   48.1330 C.2   125  SER125      0.2643
     30  O         -9.8300  -28.5780   48.2130 O.2   125  SER125     -0.2714
     31  CB       -12.2440  -30.8430   48.7340 C.3   125  SER125      0.2130
     32  OG       -13.4420  -31.4210   48.2530 O.3   125  SER125     -0.2179
     33  N         -9.2160  -30.7280   48.5060 N.am  126  LEU126     -0.1963
     34  CA        -7.9000  -30.4290   49.0560 C.3   126  LEU126      0.1728
     35  C         -7.0240  -29.6700   48.0600 C.2   126  LEU126      0.2616
     36  O         -6.2290  -28.8130   48.4490 O.2   126  LEU126     -0.2715
     37  CB        -7.2140  -31.7290   49.4870 C.3   126  LEU126      0.0311
     38  CG        -5.7620  -31.6680   49.9640 C.3   126  LEU126      0.0022
     39  CD1       -5.6470  -30.8430   51.2330 C.3   126  LEU126      0.0001
     40  CD2       -5.2050  -33.0680   50.1810 C.3   126  LEU126      0.0001
     41  N         -7.1840  -29.9810   46.7770 N.am  127  LEU127     -0.1963
     42  CA        -6.3580  -29.3890   45.7260 C.3   127  LEU127      0.1728
     43  C         -6.7090  -27.9310   45.4400 C.2   127  LEU127      0.2616
     44  O         -5.8790  -27.1760   44.9350 O.2   127  LEU127     -0.2715
     45  CB        -6.4620  -30.2050   44.4360 C.3   127  LEU127      0.0311
     46  CG        -5.9040  -31.6280   44.4760 C.3   127  LEU127      0.0022
     47  CD1       -6.0470  -32.2970   43.1170 C.3   127  LEU127      0.0001
     48  CD2       -4.4510  -31.6180   44.9200 C.3   127  LEU127      0.0001
     49  N         -7.9400  -27.5410   45.7560 N.am  128  GLY128     -0.1955
     50  CA        -8.3730  -26.1730   45.5450 C.3   128  GLY128      0.1869
     51  C         -8.3390  -25.3560   46.8220 C.2   128  GLY128      0.2309
     52  O         -8.3210  -24.1250   46.7810 O.2   128  GLY128     -0.2863
     53  N         -5.8980  -25.5010   49.2330 N.3   130  ILE130     -0.1231
     54  CA        -4.5330  -25.0290   49.4670 C.3   130  ILE130      0.1678
     55  C         -4.2150  -23.7020   48.7530 C.2   130  ILE130      0.2434
     56  O         -3.6260  -22.8070   49.3620 O.2   130  ILE130     -0.2733
     57  CB        -3.4770  -26.1250   49.1470 C.3   130  ILE130      0.0265
     58  CG1       -3.7070  -27.3490   50.0330 C.3   130  ILE130      0.0019
     59  CG2       -2.0680  -25.6020   49.3450 C.3   130  ILE130      0.0020
     60  CD1       -2.7180  -28.4710   49.8060 C.3   130  ILE130      0.0001
     61  N         -4.5970  -23.5630   47.4660 N.am  131  PRO131     -0.2729
     62  CA        -4.4200  -22.2460   46.8440 C.3   131  PRO131      0.1401
     63  C         -5.2670  -21.1700   47.5210 C.2   131  PRO131      0.2269
     64  O         -4.8830  -20.0000   47.5160 O.2   131  PRO131     -0.2865
     65  CB        -4.9100  -22.4680   45.4090 C.3   131  PRO131      0.0296
     66  CG        -4.7140  -23.9200   45.1640 C.3   131  PRO131      0.0237
     67  CD        -5.0060  -24.5790   46.4770 C.3   131  PRO131      0.0939
     68  N         -3.2650  -19.9260   50.3840 N.3   134  LEU134     -0.1245
     69  CA        -2.2310  -19.0360   49.8670 C.3   134  LEU134      0.1561
     70  C         -2.8060  -17.6660   49.5130 C.2   134  LEU134      0.2260
     71  O         -2.1500  -16.6430   49.7020 O.2   134  LEU134     -0.2867
     72  CB        -1.5580  -19.6660   48.6450 C.3   134  LEU134      0.0270
     73  CG        -0.7890  -20.9660   48.8950 C.3   134  LEU134      0.0019
     74  CD1       -0.3200  -21.5930   47.5890 C.3   134  LEU134      0.0001
     75  CD2        0.3960  -20.7060   49.8070 C.3   134  LEU134      0.0001
     76  N        -17.7200  -26.2150   49.2000 N.3   232  VAL232     -0.1245
     77  CA       -17.7190  -26.6070   47.7930 C.3   232  VAL232      0.1561
     78  C        -19.1000  -26.4230   47.1650 C.2   232  VAL232      0.2260
     79  O        -20.1120  -26.8290   47.7420 O.2   232  VAL232     -0.2867
     80  CB       -17.2810  -28.0720   47.6250 C.3   232  VAL232      0.0252
     81  CG1      -17.1190  -28.4110   46.1550 C.3   232  VAL232      0.0019
     82  CG2      -15.9810  -28.3170   48.3660 C.3   232  VAL232      0.0019
     83  N        -20.2090  -27.7480   44.2690 N.3   234  LYS234     -0.1245
     84  CA       -20.6930  -29.0140   43.7210 C.3   234  LYS234      0.1561
     85  C        -21.5390  -29.7820   44.7320 C.2   234  LYS234      0.2260
     86  O        -22.6220  -30.2700   44.4070 O.2   234  LYS234     -0.2867
     87  CB       -19.5190  -29.8840   43.2670 C.3   234  LYS234      0.0271
     88  CG       -19.0760  -29.6570   41.8280 C.3   234  LYS234      0.0035
     89  CD       -20.1270  -30.1480   40.8440 C.3   234  LYS234      0.0206
     90  CE       -19.5560  -30.2890   39.4410 C.3   234  LYS234      0.1093
     91  NZ       -18.4810  -31.3200   39.3800 N.3   234  LYS234     -0.1314
     92  N          7.0460  -34.0100   54.7700 N.3   278  ILE278     -0.1245
     93  CA         7.0580  -34.5570   53.4140 C.3   278  ILE278      0.1561
     94  C          7.6370  -33.5580   52.4130 C.2   278  ILE278      0.2260
     95  O          7.5560  -33.7530   51.2000 O.2   278  ILE278     -0.2867
     96  CB         5.6550  -35.0220   52.9530 C.3   278  ILE278      0.0252
     97  CG1        4.7260  -33.8290   52.7100 C.3   278  ILE278      0.0019
     98  CG2        5.0510  -35.9820   53.9650 C.3   278  ILE278      0.0019
     99  CD1        3.4220  -34.2040   52.0200 C.3   278  ILE278      0.0001
    100  N        -12.6400  -17.6870   43.0080 N.3   368  LEU368     -0.1231
    101  CA       -12.0680  -17.9890   41.6980 C.3   368  LEU368      0.1693
    102  C        -11.8560  -19.4920   41.5280 C.2   368  LEU368      0.2592
    103  O        -11.8400  -20.0060   40.4090 O.2   368  LEU368     -0.2718
    104  CB       -10.7410  -17.2510   41.5000 C.3   368  LEU368      0.0284
    105  CG       -10.7580  -15.7210   41.4620 C.3   368  LEU368      0.0019
    106  CD1       -9.3490  -15.1720   41.3010 C.3   368  LEU368      0.0001
    107  CD2      -11.6510  -15.2150   40.3440 C.3   368  LEU368      0.0001
    108  N        -11.6890  -20.1870   42.6490 N.am  369  ILE369     -0.1966
    109  CA       -11.4980  -21.6320   42.6450 C.3   369  ILE369      0.1727
    110  C        -12.8390  -22.3370   42.4440 C.2   369  ILE369      0.2617
    111  O        -12.9100  -23.4080   41.8380 O.2   369  ILE369     -0.2715
    112  CB       -10.8250  -22.1030   43.9560 C.3   369  ILE369      0.0290
    113  CG1       -9.4080  -21.5370   44.0580 C.3   369  ILE369      0.0022
    114  CG2      -10.7710  -23.6170   44.0340 C.3   369  ILE369      0.0023
    115  CD1       -8.4630  -22.0630   42.9960 C.3   369  ILE369      0.0001
    116  N        -13.9080  -21.7210   42.9370 N.am  370  GLY370     -0.1940
    117  CA       -15.2310  -22.3040   42.8190 C.3   370  GLY370      0.2014
    118  C        -15.8360  -22.6580   44.1610 C.2   370  GLY370      0.2638
    119  O        -16.7880  -23.4390   44.2400 O.2   370  GLY370     -0.2714
    120  N        -15.2750  -22.0890   45.2220 N.am  371  PHE371     -0.1973
    121  CA       -15.8210  -22.2540   46.5590 C.3   371  PHE371      0.1639
    122  C        -16.7850  -21.1150   46.8470 C.2   371  PHE371      0.2290
    123  O        -16.7940  -20.1090   46.1360 O.2   371  PHE371     -0.2864
    124  CB       -14.7000  -22.2350   47.5990 C.3   371  PHE371      0.0560
    125  CG       -13.8100  -23.4440   47.5660 C.ar  371  PHE371     -0.0200
    126  CD1      -14.2870  -24.6700   47.1220 C.ar  371  PHE371     -0.0042
    127  CD2      -12.4930  -23.3540   47.9890 C.ar  371  PHE371     -0.0042
    128  CE1      -13.4600  -25.7850   47.0990 C.ar  371  PHE371     -0.0003
    129  CE2      -11.6610  -24.4620   47.9680 C.ar  371  PHE371     -0.0003
    130  CZ       -12.1450  -25.6790   47.5230 C.ar  371  PHE371     -0.0000
@<TRIPOS>BOND
     1    26    25    1
     2    91    90    1
     3    90    89    1
     4    25    24    1
     5   107   105    1
     6   103   102    2
     7    89    88    1
     8    24    23    1
     9     9     8    1
    10   106   105    1
    11   105   104    1
    12   104   101    1
    13   102   101    1
    14   102   108   am
    15   101   100    1
    16    88    87    1
    17   111   110    2
    18     8     7    1
    19    23    22    1
    20   110   109    1
    21   110   116   am
    22   109   108    1
    23   109   112    1
    24   117   116    1
    25   117   118    1
    26   115   113    1
    27    47    46    1
    28     7     6    1
    29    22    19    1
    30    87    84    1
    31    84    83    1
    32    84    85    1
    33   112   114    1
    34   112   113    1
    35     6     5    1
    36   118   119    2
    37   118   120   am
    38    86    85    2
    39    19    18    1
    40    19    20    1
    41    45    46    1
    42    45    42    1
    43     5     2    1
    44     4     3    2
    45    46    48    1
    46    44    43    2
    47    21    20    2
    48    66    65    1
    49    66    67    1
    50   120   121    1
    51     2     3    1
    52     2     1    1
    53     3    10   am
    54    20    27   am
    55    65    62    1
    56    43    42    1
    57    43    49   am
    58    50    49    1
    59    50    51    1
    60    42    41    1
    61   123   122    2
    62    81    80    1
    63    10    11    1
    64    11    14    1
    65    11    12    1
    66    67    61    1
    67   121   122    1
    68   121   124    1
    69    27    28    1
    70    41    35   am
    71    52    51    2
    72    62    61    1
    73    62    63    1
    74    14    15    1
    75   128   126   ar
    76   128   130   ar
    77   126   125   ar
    78    78    79    2
    79    78    77    1
    80    12    13    2
    81    61    55   am
    82    64    63    2
    83   130   129   ar
    84   125   124    1
    85   125   127   ar
    86    28    29    1
    87    28    31    1
    88    74    73    1
    89    80    77    1
    90    80    82    1
    91    77    76    1
    92   129   127   ar
    93    35    36    2
    94    35    34    1
    95    29    30    2
    96    29    33   am
    97    32    31    1
    98    17    15    1
    99    15    16    1
   100    33    34    1
   101    72    73    1
   102    72    69    1
   103    55    56    2
   104    55    54    1
   105    73    75    1
   106    34    37    1
   107    57    59    1
   108    57    54    1
   109    57    58    1
   110    53    54    1
   111    37    38    1
   112    70    71    2
   113    70    69    1
   114    60    58    1
   115    69    68    1
   116    38    40    1
   117    38    39    1
   118    95    94    2
   119    99    97    1
   120    94    93    1
   121    97    96    1
   122    96    93    1
   123    96    98    1
   124    93    92    1
