@<TRIPOS>MOLECULE
tmp/5a1sD01.pdb
 112 107 0 0 0
SMALL
GASTEIGER

@<TRIPOS>ATOM
      1  N        -40.1500  -10.1180   46.1360 N.3    37  LEU37      -0.1245
      2  CA       -41.6020   -9.9990   46.2410 C.3    37  LEU37       0.1561
      3  C        -42.2980  -11.3400   46.4750 C.2    37  LEU37       0.2260
      4  O        -43.3540  -11.3900   47.1010 O.2    37  LEU37      -0.2867
      5  CB       -42.1800   -9.3060   45.0040 C.3    37  LEU37       0.0270
      6  CG       -41.9310   -7.8010   44.9150 C.3    37  LEU37       0.0019
      7  CD1      -42.5800   -7.2060   43.6770 C.3    37  LEU37       0.0001
      8  CD2      -42.4530   -7.1170   46.1640 C.3    37  LEU37       0.0001
      9  N        -44.1850  -11.6760   50.0400 N.3    41  PHE41      -0.1241
     10  CA       -45.6390  -11.7870   49.9780 C.3    41  PHE41       0.1605
     11  C        -46.1300  -13.1020   50.5710 C.2    41  PHE41       0.2264
     12  O        -47.1310  -13.1260   51.2820 O.2    41  PHE41      -0.2867
     13  CB       -46.1400  -11.6320   48.5370 C.3    41  PHE41       0.0534
     14  CG       -46.2950  -10.2000   48.0970 C.ar   41  PHE41      -0.0203
     15  CD1      -46.7460   -9.2310   48.9830 C.ar   41  PHE41      -0.0042
     16  CD2      -45.9970   -9.8230   46.7940 C.ar   41  PHE41      -0.0042
     17  CE1      -46.8930   -7.9120   48.5780 C.ar   41  PHE41      -0.0003
     18  CE2      -46.1400   -8.5070   46.3850 C.ar   41  PHE41      -0.0003
     19  CZ       -46.5890   -7.5510   47.2780 C.ar   41  PHE41      -0.0000
     20  N        -43.4260   -1.2880   48.1250 N.3   102  PHE102     -0.1241
     21  CA       -44.8150   -1.7000   47.9720 C.3   102  PHE102      0.1605
     22  C        -45.7270   -0.7690   48.7670 C.2   102  PHE102      0.2264
     23  O        -46.9230   -0.6680   48.4880 O.2   102  PHE102     -0.2867
     24  CB       -44.9840   -3.1520   48.4330 C.3   102  PHE102      0.0534
     25  CG       -46.4140   -3.6150   48.5000 C.ar  102  PHE102     -0.0203
     26  CD1      -47.0930   -3.9960   47.3500 C.ar  102  PHE102     -0.0042
     27  CD2      -47.0760   -3.6860   49.7180 C.ar  102  PHE102     -0.0042
     28  CE1      -48.4120   -4.4280   47.4120 C.ar  102  PHE102     -0.0003
     29  CE2      -48.3950   -4.1170   49.7880 C.ar  102  PHE102     -0.0003
     30  CZ       -49.0630   -4.4890   48.6350 C.ar  102  PHE102     -0.0000
     31  N        -46.6480    2.2340   46.4980 N.3   105  LEU105     -0.1245
     32  CA       -47.6170    1.7270   45.5320 C.3   105  LEU105      0.1561
     33  C        -48.9860    1.5710   46.1810 C.2   105  LEU105      0.2260
     34  O        -49.9940    2.0060   45.6270 O.2   105  LEU105     -0.2867
     35  CB       -47.1590    0.3880   44.9520 C.3   105  LEU105      0.0270
     36  CG       -48.0870   -0.2050   43.8900 C.3   105  LEU105      0.0019
     37  CD1      -48.1160    0.6970   42.6780 C.3   105  LEU105      0.0001
     38  CD2      -47.6530   -1.6060   43.5000 C.3   105  LEU105      0.0001
     39  N        -60.8760   -6.3370   33.2350 N.3   251  HIS251     -0.1241
     40  CA       -59.5460   -6.2810   33.8280 C.3   251  HIS251      0.1621
     41  C        -58.7470   -5.1060   33.2710 C.2   251  HIS251      0.2264
     42  O        -57.8260   -4.6050   33.9200 O.2   251  HIS251     -0.2867
     43  CB       -58.7900   -7.5860   33.5660 C.3   251  HIS251      0.0745
     44  CG       -59.1080   -8.6820   34.5350 C.ar  251  HIS251      0.0817
     45  ND1      -58.5980   -9.9560   34.4080 N.ar  251  HIS251     -0.2268
     46  CD2      -59.8720   -8.6930   35.6530 C.ar  251  HIS251      0.1154
     47  CE1      -59.0380  -10.7060   35.4020 C.ar  251  HIS251      0.1986
     48  NE2      -59.8130   -9.9650   36.1710 N.ar  251  HIS251     -0.2212
     49  N        -59.3830   -1.8680   35.3500 N.3   254  THR254     -0.1218
     50  CA       -58.7300   -1.9330   36.6540 C.3   254  THR254      0.1862
     51  C        -57.2210   -1.8160   36.4930 C.2   254  THR254      0.2287
     52  O        -56.5230   -1.3470   37.3920 O.2   254  THR254     -0.2866
     53  CB       -59.0750   -3.2320   37.4060 C.3   254  THR254      0.1770
     54  OG1      -58.6270   -4.3610   36.6450 O.3   254  THR254     -0.2211
     55  CG2      -60.5730   -3.3320   37.6250 C.3   254  THR254      0.0375
     56  N        -54.4570    1.1510   37.6470 N.3   258  MET258     -0.1245
     57  CA       -53.0950    0.9050   38.1030 C.3   258  MET258      0.1570
     58  C        -52.1270    1.8420   37.3840 C.2   258  MET258      0.2261
     59  O        -51.1560    2.3140   37.9780 O.2   258  MET258     -0.2867
     60  CB       -52.7090   -0.5620   37.8870 C.3   258  MET258      0.0387
     61  CG       -51.4620   -1.0040   38.6430 C.3   258  MET258      0.0595
     62  SD       -51.2180   -2.7960   38.5960 S.3   258  MET258     -0.1393
     63  CE       -49.6790   -2.9530   39.5070 C.3   258  MET258      0.0692
     64  N        -62.0310   -0.4150   41.9480 N.3   313  ARG313     -0.1231
     65  CA       -61.9210   -1.8660   42.0430 C.3   313  ARG313      0.1694
     66  C        -60.5150   -2.2720   42.4680 C.2   313  ARG313      0.2591
     67  O        -60.3450   -3.1440   43.3190 O.2   313  ARG313     -0.2718
     68  CB       -62.2890   -2.5230   40.7090 C.3   313  ARG313      0.0321
     69  CG       -63.4250   -3.5310   40.8060 C.3   313  ARG313      0.0489
     70  CD       -63.9420   -3.9300   39.4340 C.3   313  ARG313      0.2205
     71  NE       -65.1260   -4.7810   39.5250 N.pl3 313  ARG313     -0.0865
     72  CZ       -66.3720   -4.3240   39.6000 C.cat 313  ARG313      0.5346
     73  NH1      -66.6060   -3.0180   39.5960 N.pl3 313  ARG313      0.1354
     74  NH2      -67.3870   -5.1730   39.6800 N.pl3 313  ARG313      0.1354
     75  N        -59.5110   -1.6340   41.8750 N.am  314  LEU314     -0.1980
     76  CA       -58.1260   -1.8800   42.2580 C.3   314  LEU314      0.1596
     77  C        -57.8940   -1.4430   43.6980 C.2   314  LEU314      0.2287
     78  O        -57.1960   -2.1180   44.4560 O.2   314  LEU314     -0.2864
     79  CB       -57.1620   -1.1390   41.3320 C.3   314  LEU314      0.0297
     80  CG       -55.6850   -1.4350   41.5980 C.3   314  LEU314      0.0022
     81  CD1      -55.3250   -2.8210   41.0940 C.3   314  LEU314      0.0001
     82  CD2      -54.7850   -0.3820   40.9760 C.3   314  LEU314      0.0001
     83  N        -59.3920   -4.0060   45.9460 N.3   317  PHE317     -0.1227
     84  CA       -58.5570   -5.1980   45.9920 C.3   317  PHE317      0.1736
     85  C        -57.4180   -5.0060   46.9870 C.2   317  PHE317      0.2595
     86  O        -57.1920   -5.8460   47.8520 O.2   317  PHE317     -0.2718
     87  CB       -58.0010   -5.5330   44.6060 C.3   317  PHE317      0.0547
     88  CG       -57.2090   -6.8110   44.5650 C.ar  317  PHE317     -0.0202
     89  CD1      -57.8490   -8.0320   44.4040 C.ar  317  PHE317     -0.0042
     90  CD2      -55.8260   -6.7950   44.6900 C.ar  317  PHE317     -0.0042
     91  CE1      -57.1250   -9.2160   44.3680 C.ar  317  PHE317     -0.0003
     92  CE2      -55.0940   -7.9760   44.6570 C.ar  317  PHE317     -0.0003
     93  CZ       -55.7460   -9.1870   44.4940 C.ar  317  PHE317     -0.0000
     94  N        -56.7100   -3.8900   46.8640 N.am  318  PHE318     -0.1976
     95  CA       -55.5950   -3.5900   47.7550 C.3   318  PHE318      0.1639
     96  C        -56.0290   -3.4670   49.2130 C.2   318  PHE318      0.2290
     97  O        -55.3660   -3.9890   50.1050 O.2   318  PHE318     -0.2864
     98  CB       -54.8870   -2.3080   47.3090 C.3   318  PHE318      0.0560
     99  CG       -53.7820   -2.5360   46.3150 C.ar  318  PHE318     -0.0200
    100  CD1      -54.0580   -3.0130   45.0410 C.ar  318  PHE318     -0.0042
    101  CD2      -52.4640   -2.2590   46.6520 C.ar  318  PHE318     -0.0042
    102  CE1      -53.0390   -3.2190   44.1240 C.ar  318  PHE318     -0.0003
    103  CE2      -51.4380   -2.4610   45.7400 C.ar  318  PHE318     -0.0003
    104  CZ       -51.7270   -2.9420   44.4740 C.ar  318  PHE318     -0.0000
    105  N        -54.9180   -7.0470   50.2980 N.3   322  LEU322     -0.1245
    106  CA       -53.4880   -6.8130   50.4940 C.3   322  LEU322      0.1561
    107  C        -53.1720   -6.0250   51.7670 C.2   322  LEU322      0.2260
    108  O        -52.0040   -5.8210   52.0990 O.2   322  LEU322     -0.2867
    109  CB       -52.8920   -6.1020   49.2750 C.3   322  LEU322      0.0270
    110  CG       -52.9860   -6.8380   47.9370 C.3   322  LEU322      0.0019
    111  CD1      -52.3940   -6.0050   46.8060 C.3   322  LEU322      0.0001
    112  CD2      -52.2950   -8.1880   48.0270 C.3   322  LEU322      0.0001
@<TRIPOS>BOND
     1    39    40    1
     2    41    40    1
     3    41    42    2
     4    43    40    1
     5    43    44    1
     6    45    44   ar
     7    45    47   ar
     8    44    46   ar
     9    49    50    1
    10    47    48   ar
    11    46    48   ar
    12    51    50    1
    13    51    52    2
    14    54    53    1
    15    50    53    1
    16    58    59    2
    17    58    57    1
    18    53    55    1
    19    56    57    1
    20    60    57    1
    21    60    61    1
    22    62    61    1
    23    62    63    1
    24    70    71    1
    25    70    69    1
    26    71    72    2
    27    73    72    1
    28    72    74    1
    29    68    69    1
    30    68    65    1
    31    82    80    1
    32    81    80    1
    33    79    80    1
    34    79    76    1
    35    75    76    1
    36    75    66   am
    37    64    65    1
    38    65    66    1
    39    76    77    1
    40    66    67    2
    41    37    36    1
    42    38    36    1
    43     7     6    1
    44    77    78    2
    45    36    35    1
    46   102   104   ar
    47   102   100   ar
    48    91    89   ar
    49    91    93   ar
    50    89    88   ar
    51   104   103   ar
    52    93    92   ar
    53    88    87    1
    54    88    90   ar
    55    87    84    1
    56    92    90   ar
    57     6     5    1
    58     6     8    1
    59    35    32    1
    60     5     2    1
    61   100    99   ar
    62    32    33    1
    63    32    31    1
    64    34    33    2
    65   103   101   ar
    66    83    84    1
    67    84    85    1
    68     1     2    1
    69     2     3    1
    70    99   101   ar
    71    99    98    1
    72    18    16   ar
    73    18    19   ar
    74     3     4    2
    75    16    14   ar
    76   111   110    1
    77    94    85   am
    78    94    95    1
    79    85    86    2
    80    19    17   ar
    81    98    95    1
    82    26    28   ar
    83    26    25   ar
    84    28    30   ar
    85    95    96    1
    86   110   112    1
    87   110   109    1
    88    21    20    1
    89    21    24    1
    90    21    22    1
    91    14    13    1
    92    14    15   ar
    93    24    25    1
    94    23    22    2
    95    25    27   ar
    96    13    10    1
    97    17    15   ar
    98    30    29   ar
    99    96    97    2
   100   109   106    1
   101    27    29   ar
   102    10     9    1
   103    10    11    1
   104   105   106    1
   105   106   107    1
   106    11    12    2
   107   107   108    2
