@<TRIPOS>MOLECULE
tmp/5a1sC02.pdb
 162 150 0 0 0
SMALL
GASTEIGER

@<TRIPOS>ATOM
      1  N        -52.2690  -21.9310   35.4230 N.3   116  ALA116     -0.1231
      2  CA       -52.3640  -22.9100   34.3440 C.3   116  ALA116      0.1694
      3  C        -52.5970  -24.3300   34.8600 C.2   116  ALA116      0.2591
      4  O        -53.4420  -25.0600   34.3380 O.2   116  ALA116     -0.2718
      5  CB       -51.1180  -22.8610   33.4780 C.3   116  ALA116      0.0304
      6  N        -51.8370  -24.7180   35.8790 N.am  117  ILE117     -0.1980
      7  CA       -51.8790  -26.0820   36.3980 C.3   117  ILE117      0.1595
      8  C        -53.1150  -26.3620   37.2660 C.2   117  ILE117      0.2287
      9  O        -53.7030  -27.4400   37.1790 O.2   117  ILE117     -0.2864
     10  CB       -50.5730  -26.4330   37.1530 C.3   117  ILE117      0.0276
     11  CG1      -49.3680  -26.2820   36.2200 C.3   117  ILE117      0.0022
     12  CG2      -50.6240  -27.8450   37.7080 C.3   117  ILE117      0.0022
     13  CD1      -48.0530  -26.7110   36.8360 C.3   117  ILE117      0.0001
     14  N        -55.9150  -25.0860   36.8730 N.3   119  SER119     -0.1202
     15  CA       -57.0890  -25.0180   36.0080 C.3   119  SER119      0.2020
     16  C        -57.3290  -26.3300   35.2690 C.2   119  SER119      0.2618
     17  O        -58.4190  -26.5680   34.7480 O.2   119  SER119     -0.2717
     18  CB       -56.9360  -23.8850   34.9950 C.3   119  SER119      0.2103
     19  OG       -55.9310  -24.1910   34.0440 O.3   119  SER119     -0.2182
     20  N        -56.3090  -27.1800   35.2250 N.am  120  VAL120     -0.1979
     21  CA       -56.3950  -28.4320   34.4820 C.3   120  VAL120      0.1595
     22  C        -56.9830  -29.5550   35.3390 C.2   120  VAL120      0.2287
     23  O        -56.9860  -29.4710   36.5690 O.2   120  VAL120     -0.2864
     24  CB       -55.0150  -28.8470   33.9390 C.3   120  VAL120      0.0276
     25  CG1      -54.2820  -29.7040   34.9460 C.3   120  VAL120      0.0022
     26  CG2      -55.1630  -29.5890   32.6290 C.3   120  VAL120      0.0022
     27  N        -55.3310  -35.5880   34.1810 N.3   124  LEU124     -0.1231
     28  CA       -54.6350  -35.2290   32.9520 C.3   124  LEU124      0.1693
     29  C        -53.1600  -34.9120   33.1870 C.2   124  LEU124      0.2592
     30  O        -52.3590  -34.9170   32.2510 O.2   124  LEU124     -0.2718
     31  CB       -55.3250  -34.0210   32.3200 C.3   124  LEU124      0.0284
     32  CG       -55.1370  -33.7610   30.8280 C.3   124  LEU124      0.0019
     33  CD1      -55.8050  -34.8550   30.0100 C.3   124  LEU124      0.0001
     34  CD2      -55.7090  -32.4030   30.4830 C.3   124  LEU124      0.0001
     35  N        -52.8130  -34.6470   34.4430 N.am  125  LEU125     -0.1966
     36  CA       -51.4860  -34.1560   34.8160 C.3   125  LEU125      0.1728
     37  C        -50.3230  -35.1020   34.5120 C.2   125  LEU125      0.2616
     38  O        -49.4630  -34.7920   33.6860 O.2   125  LEU125     -0.2715
     39  CB       -51.4710  -33.7940   36.3020 C.3   125  LEU125      0.0311
     40  CG       -52.2060  -32.5090   36.6740 C.3   125  LEU125      0.0022
     41  CD1      -52.4600  -32.4430   38.1690 C.3   125  LEU125      0.0001
     42  CD2      -51.3870  -31.3180   36.2210 C.3   125  LEU125      0.0001
     43  N        -50.2970  -36.2430   35.1950 N.am  126  LEU126     -0.1977
     44  CA       -49.1760  -37.1770   35.1140 C.3   126  LEU126      0.1596
     45  C        -48.9380  -37.7140   33.7030 C.2   126  LEU126      0.2287
     46  O        -47.8030  -38.0110   33.3300 O.2   126  LEU126     -0.2864
     47  CB       -49.3820  -38.3390   36.0910 C.3   126  LEU126      0.0297
     48  CG       -48.2060  -39.2990   36.2840 C.3   126  LEU126      0.0022
     49  CD1      -47.0300  -38.5810   36.9310 C.3   126  LEU126      0.0001
     50  CD2      -48.6220  -40.5100   37.1060 C.3   126  LEU126      0.0001
     51  N        -49.5250  -36.1070   30.7400 N.3   128  SER128     -0.1202
     52  CA       -48.9150  -35.0760   29.9090 C.3   128  SER128      0.2020
     53  C        -47.4020  -35.0400   30.1020 C.2   128  SER128      0.2618
     54  O        -46.6470  -34.9900   29.1310 O.2   128  SER128     -0.2717
     55  CB       -49.5120  -33.7080   30.2380 C.3   128  SER128      0.2103
     56  OG       -50.9260  -33.7450   30.1910 O.3   128  SER128     -0.2182
     57  N        -46.9730  -35.0730   31.3610 N.am  129  LEU129     -0.1979
     58  CA       -45.5540  -35.0220   31.7070 C.3   129  LEU129      0.1596
     59  C        -44.7770  -36.2100   31.1470 C.2   129  LEU129      0.2287
     60  O        -43.6360  -36.0630   30.7060 O.2   129  LEU129     -0.2864
     61  CB       -45.3780  -34.9580   33.2270 C.3   129  LEU129      0.0297
     62  CG       -43.9410  -34.9780   33.7560 C.3   129  LEU129      0.0022
     63  CD1      -43.1960  -33.7210   33.3380 C.3   129  LEU129      0.0001
     64  CD2      -43.9150  -35.1440   35.2690 C.3   129  LEU129      0.0001
     65  N        -53.9390  -25.5010   22.3730 N.3   233  GLU233     -0.1245
     66  CA       -53.8340  -26.7650   23.0950 C.3   233  GLU233      0.1567
     67  C        -52.6800  -27.6340   22.5870 C.2   233  GLU233      0.2260
     68  O        -52.3450  -27.6040   21.4010 O.2   233  GLU233     -0.2867
     69  CB       -55.1570  -27.5280   23.0010 C.3   233  GLU233      0.0388
     70  CG       -55.2560  -28.7210   23.9270 C.3   233  GLU233      0.1160
     71  CD       -54.9220  -28.3750   25.3620 C.2   233  GLU233      0.3649
     72  OE1      -55.6580  -27.5670   25.9670 O.co2 233  GLU233     -0.2457
     73  OE2      -53.9220  -28.9110   25.8840 O.co2 233  GLU233     -0.2457
     74  N        -52.4070  -31.0610   24.0300 N.3   235  VAL235     -0.1245
     75  CA       -52.8890  -32.4290   24.2130 C.3   235  VAL235      0.1561
     76  C        -54.2590  -32.6530   23.5660 C.2   235  VAL235      0.2260
     77  O        -55.1540  -31.8170   23.6920 O.2   235  VAL235     -0.2867
     78  CB       -52.9530  -32.7940   25.7130 C.3   235  VAL235      0.0252
     79  CG1      -53.5690  -34.1690   25.9150 C.3   235  VAL235      0.0019
     80  CG2      -51.5650  -32.7430   26.3220 C.3   235  VAL235      0.0019
     81  N        -58.3070  -32.0550   25.5240 N.3   238  ALA238     -0.1231
     82  CA       -57.9210  -31.8930   26.9180 C.3   238  ALA238      0.1694
     83  C        -58.2470  -30.4980   27.4390 C.2   238  ALA238      0.2592
     84  O        -57.5250  -29.5410   27.1510 O.2   238  ALA238     -0.2718
     85  CB       -56.4430  -32.1780   27.0770 C.3   238  ALA238      0.0304
     86  N        -59.3280  -30.3970   28.2090 N.am  239  SER239     -0.1952
     87  CA       -59.7670  -29.1320   28.8020 C.3   239  SER239      0.1924
     88  C        -59.9400  -28.0230   27.7660 C.2   239  SER239      0.2314
     89  O        -60.7120  -28.1620   26.8170 O.2   239  SER239     -0.2863
     90  CB       -58.8080  -28.6810   29.9110 C.3   239  SER239      0.2116
     91  OG       -58.8230  -29.5830   31.0050 O.3   239  SER239     -0.2180
     92  N        -43.6190  -26.6610   39.5360 N.3   288  VAL288     -0.1231
     93  CA       -44.5580  -27.3180   38.6340 C.3   288  VAL288      0.1692
     94  C        -45.1020  -28.5970   39.2620 C.2   288  VAL288      0.2591
     95  O        -46.3040  -28.8580   39.2220 O.2   288  VAL288     -0.2718
     96  CB       -43.8990  -27.6390   37.2790 C.3   288  VAL288      0.0266
     97  CG1      -44.7720  -28.5790   36.4610 C.3   288  VAL288      0.0020
     98  CG2      -43.6280  -26.3580   36.5100 C.3   288  VAL288      0.0020
     99  N        -44.2070  -29.3790   39.8570 N.am  289  LEU289     -0.1980
    100  CA       -44.5780  -30.6270   40.5160 C.3   289  LEU289      0.1596
    101  C        -45.4350  -30.3730   41.7570 C.2   289  LEU289      0.2287
    102  O        -46.3950  -31.0990   42.0200 O.2   289  LEU289     -0.2864
    103  CB       -43.3200  -31.4110   40.8950 C.3   289  LEU289      0.0297
    104  CG       -42.3610  -31.7120   39.7410 C.3   289  LEU289      0.0022
    105  CD1      -41.0490  -32.3020   40.2470 C.3   289  LEU289      0.0001
    106  CD2      -43.0130  -32.6450   38.7310 C.3   289  LEU289      0.0001
    107  N        -48.9170  -29.2430   40.7730 N.3   292  ALA292     -0.1245
    108  CA       -49.5770  -30.4470   40.2790 C.3   292  ALA292      0.1562
    109  C        -50.0720  -31.2970   41.4450 C.2   292  ALA292      0.2260
    110  O        -51.1920  -31.8030   41.4260 O.2   292  ALA292     -0.2867
    111  CB       -48.6330  -31.2460   39.4070 C.3   292  ALA292      0.0290
    112  N        -56.7710  -18.7040   38.1500 N.3   309  LYS309     -0.1245
    113  CA       -56.8390  -18.4950   36.7090 C.3   309  LYS309      0.1561
    114  C        -57.1140  -17.0270   36.3980 C.2   309  LYS309      0.2260
    115  O        -56.5480  -16.4620   35.4600 O.2   309  LYS309     -0.2867
    116  CB       -57.9280  -19.3780   36.0950 C.3   309  LYS309      0.0271
    117  CG       -57.9770  -19.3480   34.5760 C.3   309  LYS309      0.0035
    118  CD       -56.7010  -19.9210   33.9740 C.3   309  LYS309      0.0206
    119  CE       -56.7300  -19.8760   32.4540 C.3   309  LYS309      0.1093
    120  NZ       -55.5050  -20.4920   31.8650 N.3   309  LYS309     -0.1314
    121  N        -50.7060  -19.7800   27.8090 N.3   401  ASN401     -0.1225
    122  CA       -51.2820  -20.8570   28.6040 C.3   401  ASN401      0.1785
    123  C        -50.3500  -22.0650   28.6980 C.2   401  ASN401      0.2597
    124  O        -50.4740  -22.8880   29.6040 O.2   401  ASN401     -0.2718
    125  CB       -52.6350  -21.2720   28.0230 C.3   401  ASN401      0.1169
    126  CG       -52.5490  -21.6310   26.5490 C.2   401  ASN401      0.2627
    127  OD1      -52.5300  -20.7540   25.6850 O.2   401  ASN401     -0.2716
    128  ND2      -52.5000  -22.9270   26.2570 N.am  401  ASN401     -0.0877
    129  N        -49.4110  -22.1570   27.7600 N.am  402  LEU402     -0.1980
    130  CA       -48.4620  -23.2640   27.7170 C.3   402  LEU402      0.1596
    131  C        -47.2090  -22.9710   28.5440 C.2   402  LEU402      0.2287
    132  O        -46.1770  -23.6190   28.3630 O.2   402  LEU402     -0.2864
    133  CB       -48.0680  -23.5640   26.2670 C.3   402  LEU402      0.0297
    134  CG       -49.1970  -23.9100   25.2920 C.3   402  LEU402      0.0022
    135  CD1      -48.6790  -23.9550   23.8650 C.3   402  LEU402      0.0001
    136  CD2      -49.8310  -25.2370   25.6610 C.3   402  LEU402      0.0001
    137  N        -46.4210  -23.6400   31.5400 N.3   404  SER404     -0.1202
    138  CA       -45.9750  -24.7540   32.3680 C.3   404  SER404      0.2020
    139  C        -45.0730  -25.7240   31.6050 C.2   404  SER404      0.2618
    140  O        -44.0490  -26.1630   32.1270 O.2   404  SER404     -0.2717
    141  CB       -47.1740  -25.4830   32.9700 C.3   404  SER404      0.2103
    142  OG       -47.9360  -24.6030   33.7750 O.3   404  SER404     -0.2182
    143  N        -45.4520  -26.0520   30.3730 N.am  405  TYR405     -0.1975
    144  CA       -44.6270  -26.9130   29.5310 C.3   405  TYR405      0.1639
    145  C        -43.3180  -26.2160   29.1780 C.2   405  TYR405      0.2290
    146  O        -42.2580  -26.8420   29.1480 O.2   405  TYR405     -0.2864
    147  CB       -45.3740  -27.3000   28.2530 C.3   405  TYR405      0.0560
    148  CG       -46.6100  -28.1400   28.4830 C.ar  405  TYR405     -0.0198
    149  CD1      -46.5100  -29.4910   28.7830 C.ar  405  TYR405     -0.0009
    150  CD2      -47.8780  -27.5860   28.3810 C.ar  405  TYR405     -0.0009
    151  CE1      -47.6390  -30.2640   28.9870 C.ar  405  TYR405      0.0417
    152  CE2      -49.0120  -28.3510   28.5830 C.ar  405  TYR405      0.0417
    153  CZ       -48.8850  -29.6880   28.8850 C.ar  405  TYR405      0.1957
    154  OH       -50.0090  -30.4520   29.0870 O.3   405  TYR405     -0.2866
    155  N        -41.1040  -26.5060   32.0750 N.3   408  ILE408     -0.1245
    156  CA       -40.5650  -27.8630   32.1240 C.3   408  ILE408      0.1561
    157  C        -39.4280  -27.9930   31.1090 C.2   408  ILE408      0.2260
    158  O        -38.4330  -28.6760   31.3550 O.2   408  ILE408     -0.2867
    159  CB       -41.6520  -28.9240   31.8530 C.3   408  ILE408      0.0252
    160  CG1      -42.7390  -28.8550   32.9260 C.3   408  ILE408      0.0019
    161  CG2      -41.0530  -30.3180   31.8310 C.3   408  ILE408      0.0019
    162  CD1      -43.9740  -29.6690   32.6000 C.3   408  ILE408      0.0001
@<TRIPOS>BOND
     1    68    67    2
     2    65    66    1
     3    67    66    1
     4    69    66    1
     5    69    70    1
     6    76    77    2
     7    76    75    1
     8   135   134    1
     9    70    71    1
    10    74    75    1
    11    75    78    1
    12   134   136    1
    13   134   133    1
    14    71    73   ar
    15    71    72   ar
    16    81    82    1
    17   127   126    2
    18    78    79    1
    19    78    80    1
    20   128   126   am
    21   133   130    1
    22   126   125    1
    23    89    88    2
    24    82    85    1
    25    82    83    1
    26    84    83    2
    27    83    86   am
    28   130   129    1
    29   130   131    1
    30   129   123   am
    31    88    87    1
    32   121   122    1
    33   125   122    1
    34    86    87    1
    35   147   148    1
    36   147   144    1
    37   132   131    2
    38   150   148   ar
    39   150   152   ar
    40   148   149   ar
    41   152   153   ar
    42   122   123    1
    43   123   124    2
    44   149   151   ar
    45    87    90    1
    46   153   151   ar
    47   153   154    1
    48    54    53    2
    49   146   145    2
    50   145   144    1
    51   144   143    1
    52    52    53    1
    53    52    55    1
    54    52    51    1
    55    90    91    1
    56    33    32    1
    57    53    57   am
    58    56    55    1
    59   143   139   am
    60    34    32    1
    61    60    59    2
    62    32    31    1
    63   157   158    2
    64   157   156    1
    65    59    58    1
    66    57    58    1
    67   137   138    1
    68   139   140    2
    69   139   138    1
    70    58    61    1
    71   161   159    1
    72   159   156    1
    73   159   160    1
    74   120   119    1
    75   155   156    1
    76    30    29    2
    77    31    28    1
    78   138   141    1
    79   119   118    1
    80   162   160    1
    81    26    24    1
    82    28    29    1
    83    28    27    1
    84   141   142    1
    85    29    35   am
    86    61    62    1
    87    46    45    2
    88    63    62    1
    89     5     2    1
    90    38    37    2
    91    45    44    1
    92    62    64    1
    93    24    21    1
    94    24    25    1
    95   118   117    1
    96    19    18    1
    97     4     3    2
    98     2     3    1
    99     2     1    1
   100    35    36    1
   101    21    20    1
   102    21    22    1
   103    37    36    1
   104    37    43   am
   105   117   116    1
   106    17    16    2
   107    36    39    1
   108     3     6   am
   109    18    15    1
   110    44    43    1
   111    44    47    1
   112    20    16   am
   113    16    15    1
   114    22    23    2
   115   115   114    2
   116     6     7    1
   117    15    14    1
   118    47    48    1
   119   116   113    1
   120    11    13    1
   121    11    10    1
   122    42    40    1
   123    48    49    1
   124    48    50    1
   125    39    40    1
   126   114   113    1
   127     7    10    1
   128     7     8    1
   129    97    96    1
   130    98    96    1
   131    40    41    1
   132   113   112    1
   133    10    12    1
   134     9     8    2
   135    96    93    1
   136    93    94    1
   137    93    92    1
   138   106   104    1
   139    95    94    2
   140    94    99   am
   141   111   108    1
   142   104   105    1
   143   104   103    1
   144    99   100    1
   145   108   107    1
   146   108   109    1
   147   100   103    1
   148   100   101    1
   149   110   109    2
   150   101   102    2
