@<TRIPOS>MOLECULE
tmp/5a24A00.pdb
 130 127 0 0 0
SMALL
GASTEIGER

@<TRIPOS>ATOM
      1  N         12.2960   32.8810    4.1900 N.3    19  GLN19      -0.1245
      2  CA        12.6030   31.6030    3.5490 C.3    19  GLN19       0.1566
      3  C         11.7160   31.3870    2.3160 C.2    19  GLN19       0.2260
      4  O         12.0140   30.5150    1.5040 O.2    19  GLN19      -0.2867
      5  CB        12.4260   30.4370    4.5200 C.3    19  GLN19       0.0367
      6  CG        10.9900   30.1620    4.9830 C.3    19  GLN19       0.0905
      7  CD        10.9570   28.9970    5.9080 C.2    19  GLN19       0.2608
      8  OE1       11.0950   29.1350    7.1280 O.2    19  GLN19      -0.2717
      9  NE2       10.7700   27.8150    5.3570 N.am   19  GLN19      -0.0878
     10  N         11.2240   24.6850    2.1140 N.3    23  GLY23      -0.1225
     11  CA        11.1090   24.0560    3.4230 C.3    23  GLY23       0.1811
     12  C         12.4500   23.9090    4.1140 C.2    23  GLY23       0.2280
     13  O         12.8390   22.8070    4.5390 O.2    23  GLY23      -0.2866
     14  N         13.4400   25.8730    6.9480 N.3    25  CYS25      -0.1221
     15  CA        13.3930   26.6110    8.2210 C.3    25  CYS25       0.1808
     16  C         14.5620   26.1820    9.1120 C.2    25  CYS25       0.2601
     17  O         15.1140   26.9940    9.8370 O.2    25  CYS25      -0.2717
     18  CB        12.0490   26.3750    8.9210 C.3    25  CYS25       0.0970
     19  SG        11.7450   24.6530    9.4040 S.3    25  CYS25      -0.0800
     20  N         14.9520   24.9070    9.0250 N.am   26  TRP26      -0.1976
     21  CA        16.0410   24.3390    9.8070 C.3    26  TRP26       0.1640
     22  C         17.3380   25.1340    9.6040 C.2    26  TRP26       0.2290
     23  O         18.0830   25.3630   10.5640 O.2    26  TRP26      -0.2864
     24  CB        16.2460   22.8630    9.4110 C.3    26  TRP26       0.0576
     25  CG        16.5700   22.6170    7.9630 C.ar   26  TRP26       0.0006
     26  CD1       15.6970   22.5180    6.9160 C.ar   26  TRP26       0.0946
     27  CD2       17.8740   22.3900    7.4250 C.ar   26  TRP26       0.0152
     28  NE1       16.3900   22.2990    5.7390 N.ar   26  TRP26      -0.2442
     29  CE2       17.7310   22.2140    6.0260 C.ar   26  TRP26       0.0810
     30  CE3       19.1570   22.3160    7.9900 C.ar   26  TRP26       0.0012
     31  CZ2       18.8280   21.9990    5.1840 C.ar   26  TRP26       0.0191
     32  CZ3       20.2330   22.0470    7.1580 C.ar   26  TRP26       0.0001
     33  CH2       20.0730   21.9730    5.7630 C.ar   26  TRP26       0.0015
     34  N         21.7360   14.0140    7.1960 N.3    61  ASN61      -0.1240
     35  CA        20.2840   13.8230    7.2840 C.3    61  ASN61       0.1653
     36  C         19.4850   15.0480    6.8120 C.2    61  ASN61       0.2266
     37  O         18.2470   15.0420    6.8770 O.2    61  ASN61      -0.2867
     38  CB        19.8910   13.4830    8.7330 C.3    61  ASN61       0.1155
     39  CG        20.5760   12.2510    9.2820 C.2    61  ASN61       0.2627
     40  OD1       20.4900   11.1640    8.7160 O.2    61  ASN61      -0.2716
     41  ND2       21.2860   12.3980   10.3920 N.am   61  ASN61      -0.0877
     42  N         13.5870   20.0900    1.4060 N.3    66  ASN66      -0.1225
     43  CA        12.7860   18.9460    1.8940 C.3    66  ASN66       0.1785
     44  C         12.9280   18.6960    3.4100 C.2    66  ASN66       0.2598
     45  O         12.4290   17.6810    3.9080 O.2    66  ASN66      -0.2718
     46  CB        13.1460   17.6750    1.1170 C.3    66  ASN66       0.1169
     47  CG        12.9660   17.8230   -0.3680 C.2    66  ASN66       0.2627
     48  OD1       12.0890   18.5620   -0.8360 O.2    66  ASN66      -0.2716
     49  ND2       13.7710   17.1020   -1.1450 N.am   66  ASN66      -0.0877
     50  N         13.5470   19.6350    4.1260 N.am   67  GLY67      -0.1942
     51  CA        13.6860   19.5670    5.5750 C.3    67  GLY67       0.2014
     52  C         15.0260   19.1150    6.1020 C.2    67  GLY67       0.2639
     53  O         15.8820   18.6160    5.3720 O.2    67  GLY67      -0.2714
     54  N         15.2130   19.3360    7.3880 N.am   68  GLY68      -0.1939
     55  CA        16.4270   18.9900    8.0960 C.3    68  GLY68       0.2014
     56  C         16.2720   19.3990    9.5460 C.2    68  GLY68       0.2640
     57  O         15.1500   19.5930   10.0310 O.2    68  GLY68      -0.2714
     58  N         17.3800   19.5270   10.2710 N.am   69  THR69      -0.1937
     59  CA        17.3000   19.9730   11.6540 C.3    69  THR69       0.2013
     60  C         18.3850   20.9930   11.9400 C.2    69  THR69       0.2484
     61  O         19.4860   20.9280   11.3390 O.2    69  THR69      -0.2729
     62  CB        17.4540   18.8220   12.6840 C.3    69  THR69       0.1807
     63  OG1       18.7750   18.3000   12.6440 O.3    69  THR69      -0.2208
     64  CG2       16.3960   17.7210   12.5650 C.3    69  THR69       0.0379
     65  N         18.1730   21.8840   12.9200 N.am   70  PRO70      -0.2726
     66  CA        19.2670   22.8000   13.3050 C.3    70  PRO70       0.1402
     67  C         20.5500   22.0690   13.7010 C.2    70  PRO70       0.2269
     68  O         21.6290   22.5140   13.2970 O.2    70  PRO70      -0.2865
     69  CB        18.6810   23.5770   14.4910 C.3    70  PRO70       0.0296
     70  CG        17.1770   23.5550   14.2470 C.3    70  PRO70       0.0237
     71  CD        16.9300   22.1490   13.6790 C.3    70  PRO70       0.0939
     72  N         12.2830   24.1110   17.9560 N.3   138  ALA138     -0.1245
     73  CA        11.2450   23.5570   17.0830 C.3   138  ALA138      0.1562
     74  C          9.8570   23.8170   17.6620 C.2   138  ALA138      0.2260
     75  O          9.6500   23.7370   18.8700 O.2   138  ALA138     -0.2867
     76  CB        11.4490   22.0340   16.9270 C.3   138  ALA138      0.0290
     77  N          5.5160   18.9790   15.8510 N.3   162  LEU162     -0.1231
     78  CA         6.6130   19.8750   15.4530 C.3   162  LEU162      0.1693
     79  C          6.8150   19.8810   13.9620 C.2   162  LEU162      0.2592
     80  O          6.8740   18.8110   13.3490 O.2   162  LEU162     -0.2718
     81  CB         7.9170   19.5390   16.1420 C.3   162  LEU162      0.0284
     82  CG         7.8570   19.5200   17.6780 C.3   162  LEU162      0.0019
     83  CD1        9.1590   18.9930   18.2470 C.3   162  LEU162      0.0001
     84  CD2        7.5030   20.8730   18.2600 C.3   162  LEU162      0.0001
     85  N          6.9040   21.0920   13.3690 N.am  163  ASP163     -0.1960
     86  CA         7.0640   21.1800   11.9060 C.3   163  ASP163      0.1840
     87  C          7.8270   22.4140   11.4740 C.2   163  ASP163      0.2622
     88  O          7.9920   22.6360   10.2690 O.2   163  ASP163     -0.2715
     89  CB         5.6820   21.1440   11.2160 C.3   163  ASP163      0.1450
     90  CG         4.7050   22.2740   11.5380 C.2   163  ASP163      0.3671
     91  OD1        5.0800   23.2030   12.3010 O.co2 163  ASP163     -0.2456
     92  OD2        3.5570   22.2190   11.0500 O.co2 163  ASP163     -0.2456
     93  N          8.3040   23.2310   12.4180 N.am  164  HIS164     -0.1959
     94  CA         8.9650   24.4690   11.9980 C.3   164  HIS164      0.1787
     95  C         10.0340   24.8430   12.9980 C.2   164  HIS164      0.2620
     96  O          9.7670   24.8900   14.1940 O.2   164  HIS164     -0.2715
     97  CB         7.8860   25.5770   11.9080 C.3   164  HIS164      0.0785
     98  CG         8.3330   26.8830   11.3630 C.ar  164  HIS164      0.0821
     99  ND1        8.9280   26.9950   10.1120 N.ar  164  HIS164     -0.2267
    100  CD2        8.1560   28.1210   11.8670 C.ar  164  HIS164      0.1154
    101  CE1        9.2080   28.2820    9.9640 C.ar  164  HIS164      0.1986
    102  NE2        8.7600   28.9980   10.9860 N.ar  164  HIS164     -0.2212
    103  N         11.2050   25.2290   12.5100 N.am  165  ALA165     -0.1977
    104  CA        12.2820   25.7010   13.3670 C.3   165  ALA165      0.1597
    105  C         12.3530   27.2350   13.3460 C.2   165  ALA165      0.2287
    106  O         12.2220   27.8680   12.2750 O.2   165  ALA165     -0.2864
    107  CB        13.6040   25.1060   12.9140 C.3   165  ALA165      0.0319
    108  N          9.7390   34.3130    8.1290 N.3   188  TRP188     -0.1241
    109  CA         8.6240   34.5270    7.1680 C.3   188  TRP188      0.1605
    110  C          8.5370   36.0050    6.7370 C.2   188  TRP188      0.2264
    111  O          7.4810   36.4780    6.2860 O.2   188  TRP188     -0.2867
    112  CB         7.2900   34.0650    7.7680 C.3   188  TRP188      0.0550
    113  CG         7.1470   32.5720    7.9280 C.ar  188  TRP188      0.0003
    114  CD1        7.9770   31.6050    7.4430 C.ar  188  TRP188      0.0946
    115  CD2        6.1390   31.8890    8.6900 C.ar  188  TRP188      0.0152
    116  NE1        7.5330   30.3590    7.8370 N.ar  188  TRP188     -0.2442
    117  CE2        6.3950   30.5070    8.5790 C.ar  188  TRP188      0.0810
    118  CE3        4.9910   32.3100    9.3840 C.ar  188  TRP188      0.0012
    119  CZ2        5.5870   29.5450    9.2020 C.ar  188  TRP188      0.0191
    120  CZ3        4.1610   31.3550    9.9500 C.ar  188  TRP188      0.0001
    121  CH2        4.4870   29.9940    9.8960 C.ar  188  TRP188      0.0015
    122  N         12.6800   20.5830   21.4800 N.3   216  GLN216     -0.1245
    123  CA        13.8760   20.2530   20.6810 C.3   216  GLN216      0.1566
    124  C         14.6620   21.5180   20.4450 C.2   216  GLN216      0.2260
    125  O         14.4220   22.2270   19.4600 O.2   216  GLN216     -0.2867
    126  CB        13.4550   19.6130   19.3460 C.3   216  GLN216      0.0367
    127  CG        12.7830   18.2480   19.4620 C.3   216  GLN216      0.0905
    128  CD        12.4720   17.6080   18.1150 C.2   216  GLN216      0.2608
    129  OE1       12.8800   18.0790   17.0530 O.2   216  GLN216     -0.2717
    130  NE2       11.7670   16.4900   18.1360 N.am  216  GLN216     -0.0878
@<TRIPOS>BOND
     1    49    47   am
     2    48    47    2
     3    47    46    1
     4    46    43    1
     5    42    43    1
     6     4     3    2
     7    43    44    1
     8    10    11    1
     9     3     2    1
    10    44    45    2
    11    44    50   am
    12    11    12    1
    13     2     1    1
    14     2     5    1
    15    12    13    2
    16    50    51    1
    17     5     6    1
    18     6     7    1
    19    31    33   ar
    20    31    29   ar
    21     9     7   am
    22    53    52    2
    23    51    52    1
    24    28    29   ar
    25    28    26   ar
    26    33    32   ar
    27     7     8    2
    28    29    27   ar
    29    52    54   am
    30   111   110    2
    31   110   109    1
    32    36    37    2
    33    36    35    1
    34    26    25   ar
    35    14    15    1
    36    32    30   ar
    37   109   112    1
    38   109   108    1
    39    34    35    1
    40    35    38    1
    41    54    55    1
    42    27    25   ar
    43    27    30   ar
    44   114   116   ar
    45   114   113   ar
    46   112   113    1
    47   116   117   ar
    48   113   115   ar
    49    25    24    1
    50    55    56    1
    51    15    18    1
    52    15    16    1
    53   117   115   ar
    54   117   119   ar
    55   115   118   ar
    56    40    39    2
    57    38    39    1
    58    18    19    1
    59    20    16   am
    60    20    21    1
    61    16    17    2
    62   119   121   ar
    63    39    41   am
    64   118   120   ar
    65    24    21    1
    66    56    57    2
    67    56    58   am
    68    22    21    1
    69    22    23    2
    70   121   120   ar
    71   101    99   ar
    72   101   102   ar
    73    99    98   ar
    74    88    87    2
    75    58    59    1
    76   102   100   ar
    77    92    90   ar
    78    89    90    1
    79    89    86    1
    80    61    60    2
    81    98   100   ar
    82    98    97    1
    83    87    86    1
    84    87    93   am
    85    90    91   ar
    86    59    60    1
    87    59    62    1
    88    86    85    1
    89    97    94    1
    90    60    65   am
    91    94    93    1
    92    94    95    1
    93   106   105    2
    94   103    95   am
    95   103   104    1
    96    64    62    1
    97    63    62    1
    98   107   104    1
    99    65    66    1
   100    65    71    1
   101    95    96    2
   102    68    67    2
   103    66    67    1
   104    66    69    1
   105   105   104    1
   106    80    79    2
   107    85    79   am
   108    71    70    1
   109    79    78    1
   110    70    69    1
   111    78    77    1
   112    78    81    1
   113    81    82    1
   114    76    73    1
   115   129   128    2
   116    73    74    1
   117    73    72    1
   118    74    75    2
   119    82    83    1
   120    82    84    1
   121   128   130   am
   122   128   127    1
   123   126   127    1
   124   126   123    1
   125   125   124    2
   126   124   123    1
   127   123   122    1
