@<TRIPOS>MOLECULE
tmp/5a25B00.pdb
 127 124 0 0 0
SMALL
GASTEIGER

@<TRIPOS>ATOM
      1  N         19.9190   -3.8700   18.4760 N.3     1  HIS1       -0.1241
      2  CA        21.1050   -3.0390   18.9300 C.3     1  HIS1        0.1621
      3  C         20.9160   -2.3510   20.3010 C.2     1  HIS1        0.2264
      4  O         19.9810   -1.6000   20.4740 O.2     1  HIS1       -0.2867
      5  CB        21.4210   -1.9460   17.9190 C.3     1  HIS1        0.0745
      6  CG        21.7740   -2.4510   16.5570 C.ar    1  HIS1        0.0817
      7  ND1       22.9790   -3.0700   16.2820 N.ar    1  HIS1       -0.2268
      8  CD2       21.1020   -2.3840   15.3830 C.ar    1  HIS1        0.1154
      9  CE1       23.0260   -3.3770   15.0000 C.ar    1  HIS1        0.1986
     10  NE2       21.8970   -2.9760   14.4330 N.ar    1  HIS1       -0.2212
     11  N         21.1300    0.1940   23.1600 N.3     3  TRP3       -0.1241
     12  CA        21.2590    1.6120   23.1950 C.3     3  TRP3        0.1605
     13  C         20.8600    2.0650   24.5800 C.2     3  TRP3        0.2264
     14  O         20.1760    1.3500   25.3200 O.2     3  TRP3       -0.2867
     15  CB        20.4020    2.3010   22.1250 C.3     3  TRP3        0.0550
     16  CG        18.9010    2.1150   22.2870 C.ar    3  TRP3        0.0003
     17  CD1       18.1210    1.1390   21.7560 C.ar    3  TRP3        0.0946
     18  CD2       18.0270    2.9870   23.0130 C.ar    3  TRP3        0.0152
     19  NE1       16.8060    1.3140   22.1610 N.ar    3  TRP3       -0.2442
     20  CE2       16.7320    2.4470   22.9400 C.ar    3  TRP3        0.0810
     21  CE3       18.2340    4.1490   23.7720 C.ar    3  TRP3        0.0012
     22  CZ2       15.6230    3.0670   23.5820 C.ar    3  TRP3        0.0191
     23  CZ3       17.1480    4.7660   24.3800 C.ar    3  TRP3        0.0001
     24  CH2       15.8580    4.2140   24.3000 C.ar    3  TRP3        0.0015
     25  N         21.6270    3.4060   14.2170 N.3    18  PHE18      -0.1241
     26  CA        20.3560    3.9230   13.6750 C.3    18  PHE18       0.1605
     27  C         20.6910    5.1640   12.8700 C.2    18  PHE18       0.2264
     28  O         20.6950    6.2710   13.4160 O.2    18  PHE18      -0.2867
     29  CB        19.3760    4.2470   14.8160 C.3    18  PHE18       0.0534
     30  CG        19.1420    3.0950   15.7310 C.ar   18  PHE18      -0.0203
     31  CD1       18.1670    2.1700   15.4270 C.ar   18  PHE18      -0.0042
     32  CD2       19.9110    2.9250   16.8570 C.ar   18  PHE18      -0.0042
     33  CE1       17.9350    1.1060   16.2660 C.ar   18  PHE18      -0.0003
     34  CE2       19.7000    1.8640   17.6950 C.ar   18  PHE18      -0.0003
     35  CZ        18.7220    0.9420   17.3900 C.ar   18  PHE18      -0.0000
     36  N          4.7030    0.3940   32.8750 N.3    58  VAL58      -0.1245
     37  CA         5.7660   -0.5380   32.5420 C.3    58  VAL58       0.1561
     38  C          7.1430    0.1250   32.5670 C.2    58  VAL58       0.2260
     39  O          7.3200    1.2000   32.0240 O.2    58  VAL58      -0.2867
     40  CB         5.6190   -1.0590   31.1130 C.3    58  VAL58       0.0252
     41  CG1        6.7230   -2.0510   30.7590 C.3    58  VAL58       0.0019
     42  CG2        4.2640   -1.7200   30.9380 C.3    58  VAL58       0.0019
     43  N         10.4770    0.0050   30.9040 N.3    60  ASN60      -0.1240
     44  CA        11.0340   -0.5960   29.6900 C.3    60  ASN60       0.1653
     45  C         12.5550   -0.5870   29.6350 C.2    60  ASN60       0.2266
     46  O         13.1110   -0.8560   28.6100 O.2    60  ASN60      -0.2867
     47  CB        10.4070    0.0430   28.4550 C.3    60  ASN60       0.1155
     48  CG        10.7790    1.4920   28.2370 C.2    60  ASN60       0.2627
     49  OD1       11.6820    2.0850   28.8650 O.2    60  ASN60      -0.2716
     50  ND2       10.1050    2.0690   27.2390 N.am   60  ASN60      -0.0877
     51  N         14.4810    2.0470   29.7520 N.3    62  HIS62      -0.1241
     52  CA        14.9810    3.3720   29.3460 C.3    62  HIS62       0.1621
     53  C         14.2040    4.4720   30.1320 C.2    62  HIS62       0.2264
     54  O         14.8030    5.4590   30.5960 O.2    62  HIS62      -0.2867
     55  CB        14.8770    3.5400   27.8430 C.3    62  HIS62       0.0745
     56  CG        15.5840    2.4640   27.0680 C.ar   62  HIS62       0.0817
     57  ND1       14.9130    1.4220   26.4630 N.ar   62  HIS62      -0.2268
     58  CD2       16.9000    2.2630   26.7940 C.ar   62  HIS62       0.1154
     59  CE1       15.7740    0.6210   25.8560 C.ar   62  HIS62       0.1986
     60  NE2       16.9870    1.1180   26.0310 N.ar   62  HIS62      -0.2212
     61  N          6.4370    3.7430   30.8780 N.3    65  ASN65      -0.1240
     62  CA         5.2460    4.1360   30.1740 C.3    65  ASN65       0.1653
     63  C          3.9840    3.8970   30.9490 C.2    65  ASN65       0.2266
     64  O          3.8840    2.8860   31.6260 O.2    65  ASN65      -0.2867
     65  CB         5.0670    3.3260   28.8750 C.3    65  ASN65       0.1155
     66  CG         6.2540    3.4380   27.9480 C.2    65  ASN65       0.2627
     67  OD1        6.9750    4.4250   27.9730 O.2    65  ASN65      -0.2716
     68  ND2        6.4520    2.4200   27.1070 N.am   65  ASN65      -0.0877
     69  N         -0.0030    5.9300   24.9350 N.3    90  GLN90      -0.1245
     70  CA         0.7830    5.8990   26.1410 C.3    90  GLN90       0.1566
     71  C          1.3960    7.2550   26.4120 C.2    90  GLN90       0.2260
     72  O          1.4330    8.0940   25.5480 O.2    90  GLN90      -0.2867
     73  CB         1.9370    4.8830   26.0570 C.3    90  GLN90       0.0367
     74  CG         2.8810    5.1330   24.8720 C.3    90  GLN90       0.0905
     75  CD         4.2480    5.7270   25.2110 C.2    90  GLN90       0.2608
     76  OE1        4.3790    6.6970   25.8990 O.2    90  GLN90      -0.2717
     77  NE2        5.2690    5.0940   24.7290 N.am   90  GLN90      -0.0878
     78  N          4.9990    8.9370   28.6570 N.3    92  HIS92      -0.1241
     79  CA         6.2500    8.6730   29.3800 C.3    92  HIS92       0.1621
     80  C          6.9540   10.0220   29.5680 C.2    92  HIS92       0.2264
     81  O          6.5050   11.0420   29.0570 O.2    92  HIS92      -0.2867
     82  CB         7.1430    7.7100   28.5930 C.3    92  HIS92       0.0745
     83  CG         7.5560    8.2340   27.2610 C.ar   92  HIS92       0.0817
     84  ND1        6.8270    8.0130   26.1160 N.ar   92  HIS92      -0.2268
     85  CD2        8.5590    9.0640   26.9110 C.ar   92  HIS92       0.1154
     86  CE1        7.3960    8.6390   25.0960 C.ar   92  HIS92       0.1986
     87  NE2        8.4340    9.2990   25.5600 N.ar   92  HIS92      -0.2212
     88  N         -1.3420    1.3870   16.2870 N.3   128  PHE128     -0.1241
     89  CA        -0.1270    2.1260   16.7190 C.3   128  PHE128      0.1605
     90  C          1.1050    1.7580   15.8810 C.2   128  PHE128      0.2264
     91  O          1.7830    2.6430   15.3520 O.2   128  PHE128     -0.2867
     92  CB         0.0990    1.8180   18.1760 C.3   128  PHE128      0.0534
     93  CG         1.2370    2.5510   18.8150 C.ar  128  PHE128     -0.0203
     94  CD1        1.7490    3.7660   18.3360 C.ar  128  PHE128     -0.0042
     95  CD2        1.7550    2.0310   19.9720 C.ar  128  PHE128     -0.0042
     96  CE1        2.7820    4.4140   18.9630 C.ar  128  PHE128     -0.0003
     97  CE2        2.7900    2.6900   20.6370 C.ar  128  PHE128     -0.0003
     98  CZ         3.3020    3.8670   20.1170 C.ar  128  PHE128     -0.0000
     99  N         10.5130   10.3340   16.7330 N.3   195  LEU195     -0.1245
    100  CA        10.6560    9.7710   18.0870 C.3   195  LEU195      0.1561
    101  C         12.0400   10.2470   18.5910 C.2   195  LEU195      0.2260
    102  O         12.9270   10.3800   17.8000 O.2   195  LEU195     -0.2867
    103  CB        10.6500    8.2570   18.0410 C.3   195  LEU195      0.0270
    104  CG         9.3730    7.6020   17.5110 C.3   195  LEU195      0.0019
    105  CD1        9.6400    6.1070   17.3260 C.3   195  LEU195      0.0001
    106  CD2        8.2440    7.8820   18.4910 C.3   195  LEU195      0.0001
    107  N         13.8300    8.5380   20.8520 N.3   197  THR197     -0.1204
    108  CA        14.5490    7.2930   21.1810 C.3   197  THR197      0.1979
    109  C         14.6230    6.3840   19.9490 C.2   197  THR197      0.2460
    110  O         13.6980    6.4260   19.1010 O.2   197  THR197     -0.2732
    111  CB        13.8070    6.4960   22.2790 C.3   197  THR197      0.1783
    112  OG1       12.4700    6.1680   21.8410 O.3   197  THR197     -0.2211
    113  CG2       13.6940    7.3160   23.5580 C.3   197  THR197      0.0376
    114  N         15.6820    5.5250   19.8700 N.am  198  PRO198     -0.2718
    115  CA        15.6840    4.5120   18.8220 C.3   198  PRO198      0.1520
    116  C         14.3530    3.7470   18.8140 C.2   198  PRO198      0.2440
    117  O         13.8620    3.4480   19.8730 O.2   198  PRO198     -0.2731
    118  CB        16.8880    3.6040   19.2240 C.3   198  PRO198      0.0310
    119  CG        17.8360    4.5580   19.8820 C.3   198  PRO198      0.0237
    120  CD        16.9300    5.4540   20.6930 C.3   198  PRO198      0.0939
    121  N         13.7340    3.4640   17.6610 N.am  199  PRO199     -0.2727
    122  CA        14.3200    3.6250   16.3250 C.3   199  PRO199      0.1402
    123  C         14.2710    5.0090   15.6520 C.2   199  PRO199      0.2269
    124  O         14.6560    5.1000   14.4880 O.2   199  PRO199     -0.2865
    125  CB        13.5010    2.6320   15.4970 C.3   199  PRO199      0.0296
    126  CG        12.1580    2.6780   16.1270 C.3   199  PRO199      0.0237
    127  CD        12.3850    2.8630   17.5990 C.3   199  PRO199      0.0939
@<TRIPOS>BOND
     1    27    28    2
     2    27    26    1
     3    26    25    1
     4    26    29    1
     5    10     9   ar
     6    10     8   ar
     7   124   123    2
     8    29    30    1
     9     9     7   ar
    10    91    90    2
    11     8     6   ar
    12    31    30   ar
    13    31    33   ar
    14   125   126    1
    15   125   122    1
    16   123   122    1
    17    30    32   ar
    18    90    89    1
    19   126   127    1
    20    33    35   ar
    21     7     6   ar
    22    88    89    1
    23   122   121    1
    24     6     5    1
    25    89    92    1
    26    99   100    1
    27    32    34   ar
    28   105   104    1
    29    35    34   ar
    30   104   103    1
    31   104   106    1
    32   127   121    1
    33   121   116   am
    34   102   101    2
    35     5     2    1
    36   103   100    1
    37   100   101    1
    38    92    93    1
    39    94    93   ar
    40    94    96   ar
    41     1     2    1
    42   116   115    1
    43   116   117    2
    44    93    95   ar
    45   115   118    1
    46   115   114    1
    47     2     3    1
    48    96    98   ar
    49   110   109    2
    50   118   119    1
    51   114   109   am
    52   114   120    1
    53   119   120    1
    54   109   108    1
    55    95    97   ar
    56    98    97   ar
    57     3     4    2
    58   107   108    1
    59   108   111    1
    60    17    19   ar
    61    17    16   ar
    62   112   111    1
    63    15    16    1
    64    15    12    1
    65    19    20   ar
    66   111   113    1
    67    16    18   ar
    68    20    18   ar
    69    20    22   ar
    70    18    21   ar
    71    11    12    1
    72    12    13    1
    73    22    24   ar
    74    21    23   ar
    75    24    23   ar
    76    13    14    2
    77    77    75   am
    78    74    75    1
    79    74    73    1
    80    69    70    1
    81    86    87   ar
    82    86    84   ar
    83    75    76    2
    84    72    71    2
    85    87    85   ar
    86    59    60   ar
    87    59    57   ar
    88    60    58   ar
    89    73    70    1
    90    84    83   ar
    91    70    71    1
    92    57    56   ar
    93    58    56   ar
    94    85    83   ar
    95    56    55    1
    96    68    66   am
    97    50    48   am
    98    83    82    1
    99    55    52    1
   100    66    67    2
   101    66    65    1
   102    48    47    1
   103    48    49    2
   104    47    44    1
   105    82    79    1
   106    46    45    2
   107    78    79    1
   108    65    62    1
   109    81    80    2
   110    52    51    1
   111    52    53    1
   112    79    80    1
   113    45    44    1
   114    44    43    1
   115    53    54    2
   116    62    61    1
   117    62    63    1
   118    41    40    1
   119    42    40    1
   120    63    64    2
   121    40    37    1
   122    39    38    2
   123    37    38    1
   124    37    36    1
