@<TRIPOS>MOLECULE
tmp/5a25B01.pdb
 107 99 0 0 0
SMALL
GASTEIGER

@<TRIPOS>ATOM
      1  N         -6.5520    2.0190   23.6170 N.3    70  ASP70      -0.1239
      2  CA        -6.7960    2.8450   22.4330 C.3    70  ASP70       0.1674
      3  C         -7.9310    2.2820   21.5770 C.2    70  ASP70       0.2266
      4  O         -7.9110    2.4850   20.3680 O.2    70  ASP70      -0.2867
      5  CB        -5.4720    2.9950   21.6290 C.3    70  ASP70       0.1410
      6  CG        -4.9240    1.6670   21.1110 C.2    70  ASP70       0.3668
      7  OD1       -5.6910    0.6440   21.0910 O.co2  70  ASP70      -0.2456
      8  OD2       -3.7190    1.6770   20.7160 O.co2  70  ASP70      -0.2456
      9  N         -2.1870    6.4980   23.1880 N.3    89  VAL89      -0.1231
     10  CA        -1.7760    5.1150   23.4740 C.3    89  VAL89       0.1692
     11  C         -0.8960    4.9750   24.6910 C.2    89  VAL89       0.2591
     12  O         -1.0140    4.0020   25.4100 O.2    89  VAL89      -0.2718
     13  CB        -1.1590    4.3720   22.2590 C.3    89  VAL89       0.0266
     14  CG1        0.0680    5.0720   21.7110 C.3    89  VAL89       0.0020
     15  CG2       -0.8180    2.9100   22.6260 C.3    89  VAL89       0.0020
     16  N         -0.0030    5.9300   24.9350 N.am   90  GLN90      -0.1979
     17  CA         0.7830    5.8990   26.1410 C.3    90  GLN90       0.1601
     18  C          1.3960    7.2550   26.4120 C.2    90  GLN90       0.2287
     19  O          1.4330    8.0940   25.5480 O.2    90  GLN90      -0.2864
     20  CB         1.9370    4.8830   26.0570 C.3    90  GLN90       0.0394
     21  CG         2.8810    5.1330   24.8720 C.3    90  GLN90       0.0908
     22  CD         4.2480    5.7270   25.2110 C.2    90  GLN90       0.2608
     23  OE1        4.3790    6.6970   25.8990 O.2    90  GLN90      -0.2717
     24  NE2        5.2690    5.0940   24.7290 N.am   90  GLN90      -0.0878
     25  N          4.9990    8.9370   28.6570 N.3    92  HIS92      -0.1241
     26  CA         6.2500    8.6730   29.3800 C.3    92  HIS92       0.1621
     27  C          6.9540   10.0220   29.5680 C.2    92  HIS92       0.2264
     28  O          6.5050   11.0420   29.0570 O.2    92  HIS92      -0.2867
     29  CB         7.1430    7.7100   28.5930 C.3    92  HIS92       0.0745
     30  CG         7.5560    8.2340   27.2610 C.ar   92  HIS92       0.0817
     31  ND1        6.8270    8.0130   26.1160 N.ar   92  HIS92      -0.2268
     32  CD2        8.5590    9.0640   26.9110 C.ar   92  HIS92       0.1154
     33  CE1        7.3960    8.6390   25.0960 C.ar   92  HIS92       0.1986
     34  NE2        8.4340    9.2990   25.5600 N.ar   92  HIS92      -0.2212
     35  N          1.7660   10.2030   23.6920 N.3   119  VAL119     -0.1245
     36  CA         1.9420    9.6030   22.3730 C.3   119  VAL119      0.1561
     37  C          0.5920    9.1380   21.8150 C.2   119  VAL119      0.2260
     38  O         -0.1610    8.4070   22.4730 O.2   119  VAL119     -0.2867
     39  CB         2.8950    8.4030   22.4130 C.3   119  VAL119      0.0252
     40  CG1        3.0970    7.8440   21.0050 C.3   119  VAL119      0.0019
     41  CG2        4.2240    8.8080   23.0050 C.3   119  VAL119      0.0019
     42  N         -3.8130    1.1090   13.6030 N.3   127  ASP127     -0.1225
     43  CA        -3.2070    0.7840   14.8830 C.3   127  ASP127      0.1805
     44  C         -1.8670    1.5210   15.0810 C.2   127  ASP127      0.2598
     45  O         -1.3400    2.1290   14.1730 O.2   127  ASP127     -0.2718
     46  CB        -3.0460   -0.7180   15.0430 C.3   127  ASP127      0.1424
     47  CG        -1.9930   -1.3170   14.1350 C.2   127  ASP127      0.3668
     48  OD1       -1.4120   -0.6660   13.2540 O.co2 127  ASP127     -0.2456
     49  OD2       -1.7510   -2.5440   14.2870 O.co2 127  ASP127     -0.2456
     50  N         -1.3420    1.3870   16.2870 N.am  128  PHE128     -0.1962
     51  CA        -0.1270    2.1260   16.7190 C.3   128  PHE128      0.1771
     52  C          1.1050    1.7580   15.8810 C.2   128  PHE128      0.2620
     53  O          1.7830    2.6430   15.3520 O.2   128  PHE128     -0.2715
     54  CB         0.0990    1.8180   18.1760 C.3   128  PHE128      0.0574
     55  CG         1.2370    2.5510   18.8150 C.ar  128  PHE128     -0.0200
     56  CD1        1.7490    3.7660   18.3360 C.ar  128  PHE128     -0.0042
     57  CD2        1.7550    2.0310   19.9720 C.ar  128  PHE128     -0.0042
     58  CE1        2.7820    4.4140   18.9630 C.ar  128  PHE128     -0.0003
     59  CE2        2.7900    2.6900   20.6370 C.ar  128  PHE128     -0.0003
     60  CZ         3.3020    3.8670   20.1170 C.ar  128  PHE128     -0.0000
     61  N          1.3430    0.4490   15.6800 N.am  129  GLY129     -0.1954
     62  CA         2.5000   -0.0210   14.9240 C.3   129  GLY129      0.1869
     63  C          2.5240    0.3970   13.4600 C.2   129  GLY129      0.2309
     64  O          3.5640    0.8080   12.9190 O.2   129  GLY129     -0.2863
     65  N          3.0760    4.2860   13.3880 N.3   132  ALA132     -0.1245
     66  CA         4.4360    4.6610   13.7400 C.3   132  ALA132      0.1562
     67  C          5.4100    4.6920   12.5650 C.2   132  ALA132      0.2260
     68  O          6.4370    5.3410   12.6350 O.2   132  ALA132     -0.2867
     69  CB         4.9620    3.7290   14.8080 C.3   132  ALA132      0.0290
     70  N          2.0420    9.6800   13.8670 N.3   138  LEU138     -0.1245
     71  CA         1.9770    9.9690   15.2740 C.3   138  LEU138      0.1561
     72  C          1.8700   11.4170   15.5780 C.2   138  LEU138      0.2260
     73  O          2.3160   12.2460   14.8190 O.2   138  LEU138     -0.2867
     74  CB         3.2140    9.4040   15.9700 C.3   138  LEU138      0.0270
     75  CG         3.5340    7.9200   15.7260 C.3   138  LEU138      0.0019
     76  CD1        4.8180    7.5360   16.4230 C.3   138  LEU138      0.0001
     77  CD2        2.4090    6.9750   16.1260 C.3   138  LEU138      0.0001
     78  N         10.5130   10.3340   16.7330 N.3   195  LEU195     -0.1245
     79  CA        10.6560    9.7710   18.0870 C.3   195  LEU195      0.1561
     80  C         12.0400   10.2470   18.5910 C.2   195  LEU195      0.2260
     81  O         12.9270   10.3800   17.8000 O.2   195  LEU195     -0.2867
     82  CB        10.6500    8.2570   18.0410 C.3   195  LEU195      0.0270
     83  CG         9.3730    7.6020   17.5110 C.3   195  LEU195      0.0019
     84  CD1        9.6400    6.1070   17.3260 C.3   195  LEU195      0.0001
     85  CD2        8.2440    7.8820   18.4910 C.3   195  LEU195      0.0001
     86  N         13.8300    8.5380   20.8520 N.3   197  THR197     -0.1218
     87  CA        14.5490    7.2930   21.1810 C.3   197  THR197      0.1862
     88  C         14.6230    6.3840   19.9490 C.2   197  THR197      0.2287
     89  O         13.6980    6.4260   19.1010 O.2   197  THR197     -0.2866
     90  CB        13.8070    6.4960   22.2790 C.3   197  THR197      0.1770
     91  OG1       12.4700    6.1680   21.8410 O.3   197  THR197     -0.2211
     92  CG2       13.6940    7.3160   23.5580 C.3   197  THR197      0.0375
     93  N         13.7340    3.4640   17.6610 N.3   199  PRO199     -0.2116
     94  CA        14.3200    3.6250   16.3250 C.3   199  PRO199      0.1372
     95  C         14.2710    5.0090   15.6520 C.2   199  PRO199      0.2244
     96  O         14.6560    5.1000   14.4880 O.2   199  PRO199     -0.2868
     97  CB        13.5010    2.6320   15.4970 C.3   199  PRO199      0.0268
     98  CG        12.1580    2.6780   16.1270 C.3   199  PRO199      0.0207
     99  CD        12.3850    2.8630   17.5990 C.3   199  PRO199      0.0892
    100  N         12.1340    7.0670   14.3900 N.3   201  LEU201     -0.1245
    101  CA        11.3790    7.1560   13.1810 C.3   201  LEU201      0.1561
    102  C         10.8440    8.5580   12.9920 C.2   201  LEU201      0.2260
    103  O         10.3780    9.2090   13.9570 O.2   201  LEU201     -0.2867
    104  CB        10.1870    6.1940   13.2330 C.3   201  LEU201      0.0270
    105  CG        10.5980    4.7210   13.3860 C.3   201  LEU201      0.0019
    106  CD1        9.3810    3.8010   13.5090 C.3   201  LEU201      0.0001
    107  CD2       11.4470    4.2870   12.2370 C.3   201  LEU201      0.0001
@<TRIPOS>BOND
     1   107   105    1
     2    67    68    2
     3    67    66    1
     4    64    63    2
     5   102   101    1
     6   102   103    2
     7   101   104    1
     8   101   100    1
     9   104   105    1
    10    48    47   ar
    11   105   106    1
    12    65    66    1
    13    63    62    1
    14    42    43    1
    15    66    69    1
    16    70    71    1
    17    47    49   ar
    18    47    46    1
    19    45    44    2
    20    96    95    2
    21    73    72    2
    22    43    46    1
    23    43    44    1
    24    62    61    1
    25    44    50   am
    26    71    72    1
    27    71    74    1
    28    53    52    2
    29    97    98    1
    30    97    94    1
    31    95    94    1
    32    61    52   am
    33    75    74    1
    34    75    77    1
    35    75    76    1
    36    52    51    1
    37    98    99    1
    38    50    51    1
    39    94    93    1
    40    51    54    1
    41    78    79    1
    42    84    83    1
    43    83    82    1
    44    83    85    1
    45    99    93    1
    46    81    80    2
    47    82    79    1
    48    79    80    1
    49    54    55    1
    50    56    55   ar
    51    56    58   ar
    52    55    57   ar
    53    58    60   ar
    54    89    88    2
    55    88    87    1
    56    57    59   ar
    57    60    59   ar
    58     4     3    2
    59     8     6   ar
    60    86    87    1
    61    40    39    1
    62     7     6   ar
    63     6     5    1
    64    87    90    1
    65     3     2    1
    66     5     2    1
    67    14    13    1
    68    37    36    1
    69    37    38    2
    70    91    90    1
    71    13    15    1
    72    13    10    1
    73    90    92    1
    74    36    39    1
    75    36    35    1
    76    39    41    1
    77     2     1    1
    78     9    10    1
    79    10    11    1
    80    11    16   am
    81    11    12    2
    82    24    22   am
    83    21    22    1
    84    21    20    1
    85    16    17    1
    86    33    34   ar
    87    33    31   ar
    88    22    23    2
    89    19    18    2
    90    34    32   ar
    91    20    17    1
    92    31    30   ar
    93    17    18    1
    94    32    30   ar
    95    30    29    1
    96    29    26    1
    97    25    26    1
    98    28    27    2
    99    26    27    1
