@<TRIPOS>MOLECULE
tmp/5a27A01.pdb
 226 219 0 0 0
SMALL
GASTEIGER

@<TRIPOS>ATOM
      1  N          8.5540   38.6220   66.9950 N.3    70  TYR70      -0.1227
      2  CA         8.0740   39.2820   65.7460 C.3    70  TYR70       0.1736
      3  C          8.8970   40.5460   65.4550 C.2    70  TYR70       0.2595
      4  O         10.0220   40.6950   65.9480 O.2    70  TYR70      -0.2718
      5  CB         6.6000   39.5180   65.8570 C.3    70  TYR70       0.0548
      6  CG         5.8840   39.7740   64.5160 C.ar   70  TYR70      -0.0200
      7  CD1        6.0910   38.9260   63.4040 C.ar   70  TYR70      -0.0009
      8  CD2        4.9820   40.8160   64.4020 C.ar   70  TYR70      -0.0009
      9  CE1        5.4100   39.1330   62.2060 C.ar   70  TYR70       0.0417
     10  CE2        4.2380   41.0190   63.1840 C.ar   70  TYR70       0.0417
     11  CZ         4.6010   40.2060   62.1140 C.ar   70  TYR70       0.1957
     12  OH         3.9740   40.4380   60.8620 O.3    70  TYR70      -0.2866
     13  N          8.3910   41.4020   64.6020 N.am   71  VAL71      -0.1966
     14  CA         9.2340   42.4500   63.9810 C.3    71  VAL71       0.1727
     15  C          9.7950   43.4420   65.0580 C.2    71  VAL71       0.2616
     16  O          9.0330   43.8810   65.9670 O.2    71  VAL71      -0.2715
     17  CB         8.4420   43.2690   63.0060 C.3    71  VAL71       0.0290
     18  CG1        9.3770   44.1990   62.2280 C.3    71  VAL71       0.0023
     19  CG2        7.7110   42.4200   61.9540 C.3    71  VAL71       0.0023
     20  N         11.1000   43.7350   64.9570 N.am   72  GLU72      -0.1963
     21  CA        11.7560   44.7620   65.7800 C.3    72  GLU72       0.1733
     22  C         12.2770   45.8770   64.8870 C.2    72  GLU72       0.2616
     23  O         12.4000   45.6870   63.6840 O.2    72  GLU72      -0.2715
     24  CB        12.9830   44.2380   66.5120 C.3    72  GLU72       0.0429
     25  CG        12.6250   43.1010   67.3930 C.3    72  GLU72       0.1163
     26  CD        13.8720   42.4260   68.0540 C.2    72  GLU72       0.3649
     27  OE1       15.0010   42.9060   68.0190 O.co2  72  GLU72      -0.2457
     28  OE2       13.6460   41.4370   68.6750 O.co2  72  GLU72      -0.2457
     29  N         12.5640   47.0130   65.4800 N.am   73  ASP73      -0.1971
     30  CA        13.1970   48.0640   64.7030 C.3    73  ASP73       0.1709
     31  C         14.6310   47.6240   64.5020 C.2    73  ASP73       0.2293
     32  O         15.1700   46.6600   65.0040 O.2    73  ASP73      -0.2864
     33  CB        13.1230   49.4200   65.4510 C.3    73  ASP73       0.1436
     34  CG        14.0560   49.3930   66.6430 C.2    73  ASP73       0.3671
     35  OD1       13.8830   48.5400   67.5210 O.co2  73  ASP73      -0.2456
     36  OD2       15.1290   50.0760   66.7760 O.co2  73  ASP73      -0.2456
     37  N         12.6330   48.2050   70.0600 N.3    78  PHE78      -0.1241
     38  CA        11.1920   48.0250   70.1430 C.3    78  PHE78       0.1605
     39  C         10.8050   46.7770   69.4020 C.2    78  PHE78       0.2264
     40  O         11.4470   46.3890   68.4340 O.2    78  PHE78      -0.2867
     41  CB        10.4890   49.2150   69.3790 C.3    78  PHE78       0.0534
     42  CG        10.9440   50.5850   69.8310 C.ar   78  PHE78      -0.0203
     43  CD1       10.7730   51.0070   71.1320 C.ar   78  PHE78      -0.0042
     44  CD2       11.6610   51.4020   68.9640 C.ar   78  PHE78      -0.0042
     45  CE1       11.2640   52.2540   71.5320 C.ar   78  PHE78      -0.0003
     46  CE2       12.0900   52.6890   69.3940 C.ar   78  PHE78      -0.0003
     47  CZ        12.0030   53.0510   70.6780 C.ar   78  PHE78      -0.0000
     48  N          7.0930   44.6860   68.0720 N.3    80  PHE80      -0.1241
     49  CA         5.6410   44.6800   68.0690 C.3    80  PHE80       0.1605
     50  C          5.1010   43.7710   69.1520 C.2    80  PHE80       0.2264
     51  O          5.6000   42.6740   69.3180 O.2    80  PHE80      -0.2867
     52  CB         5.0490   44.1930   66.7050 C.3    80  PHE80       0.0534
     53  CG         5.1440   45.1720   65.5840 C.ar   80  PHE80      -0.0203
     54  CD1        4.8970   46.5300   65.7630 C.ar   80  PHE80      -0.0042
     55  CD2        5.4230   44.6770   64.2780 C.ar   80  PHE80      -0.0042
     56  CE1        4.9270   47.3860   64.6410 C.ar   80  PHE80      -0.0003
     57  CE2        5.4430   45.5300   63.1730 C.ar   80  PHE80      -0.0003
     58  CZ         5.2340   46.8780   63.3040 C.ar   80  PHE80      -0.0000
     59  N          1.4810   42.9200   69.3220 N.3    82  TYR82      -0.1241
     60  CA         0.0590   42.7820   68.9620 C.3    82  TYR82       0.1605
     61  C         -0.7390   42.0410   70.0900 C.2    82  TYR82       0.2264
     62  O         -0.2670   41.0000   70.5730 O.2    82  TYR82      -0.2867
     63  CB        -0.0990   41.8750   67.7240 C.3    82  TYR82       0.0534
     64  CG         0.2690   42.5520   66.4290 C.ar   82  TYR82      -0.0201
     65  CD1        1.5680   42.5200   65.9150 C.ar   82  TYR82      -0.0009
     66  CD2       -0.6960   43.1680   65.6530 C.ar   82  TYR82      -0.0009
     67  CE1        1.8910   43.1160   64.7120 C.ar   82  TYR82       0.0417
     68  CE2       -0.4080   43.7230   64.4120 C.ar   82  TYR82       0.0417
     69  CZ         0.8510   43.6530   63.9210 C.ar   82  TYR82       0.1957
     70  OH         1.1790   44.1390   62.6430 O.3    82  TYR82      -0.2866
     71  N          0.0970   37.6040   56.4020 N.3   157  ASN157     -0.1240
     72  CA         0.7320   38.4900   57.3750 C.3   157  ASN157      0.1653
     73  C          1.2120   37.5880   58.5110 C.2   157  ASN157      0.2266
     74  O          0.9590   36.3720   58.5260 O.2   157  ASN157     -0.2867
     75  CB        -0.3330   39.5370   57.8870 C.3   157  ASN157      0.1155
     76  CG         0.2690   40.8090   58.4180 C.2   157  ASN157      0.2627
     77  OD1        1.3870   40.8850   58.8310 O.2   157  ASN157     -0.2716
     78  ND2       -0.5760   41.8760   58.3500 N.am  157  ASN157     -0.0877
     79  N          2.8010   42.4940   52.4380 N.3   193  THR193     -0.1218
     80  CA         3.6930   43.6490   52.5550 C.3   193  THR193      0.1862
     81  C          4.9240   43.2350   53.3260 C.2   193  THR193      0.2287
     82  O          4.8940   42.2400   54.1190 O.2   193  THR193     -0.2866
     83  CB         3.0900   44.9100   53.1900 C.3   193  THR193      0.1770
     84  OG1        2.4310   44.5330   54.4140 O.3   193  THR193     -0.2211
     85  CG2        2.0310   45.4650   52.2680 C.3   193  THR193      0.0375
     86  N          8.5410   45.3590   55.3680 N.3   195  GLY195     -0.1285
     87  CA         9.4580   46.5500   55.5270 C.3   195  GLY195      0.1447
     88  C         10.8100   46.2500   54.9140 C.3   195  GLY195      0.2025
     89  O         11.7380   47.1020   55.1850 O.3   195  GLY195     -0.2188
     90  N          7.2860   55.3050   55.2510 N.3   207  TYR207     -0.1227
     91  CA         6.6450   55.4820   56.5520 C.3   207  TYR207      0.1736
     92  C          6.4970   56.9560   56.8910 C.2   207  TYR207      0.2595
     93  O          7.4230   57.7770   56.5590 O.2   207  TYR207     -0.2718
     94  CB         7.5880   54.9150   57.6110 C.3   207  TYR207      0.0548
     95  CG         7.7660   53.3790   57.6150 C.ar  207  TYR207     -0.0200
     96  CD1        6.9890   52.5140   56.8730 C.ar  207  TYR207     -0.0009
     97  CD2        8.7180   52.8750   58.4570 C.ar  207  TYR207     -0.0009
     98  CE1        7.2490   51.1330   56.9060 C.ar  207  TYR207      0.0417
     99  CE2        9.0050   51.4590   58.4920 C.ar  207  TYR207      0.0417
    100  CZ         8.2200   50.7020   57.7160 C.ar  207  TYR207      0.1957
    101  OH         8.3780   49.2770   57.6590 O.3   207  TYR207     -0.2866
    102  N          5.4400   57.2930   57.6220 N.am  208  PHE208     -0.1962
    103  CA         5.3090   58.6680   58.1840 C.3   208  PHE208      0.1771
    104  C          4.8650   58.5350   59.6460 C.2   208  PHE208      0.2619
    105  O          4.1120   57.5610   60.0200 O.2   208  PHE208     -0.2715
    106  CB         4.2360   59.4480   57.4440 C.3   208  PHE208      0.0574
    107  CG         4.7630   60.0240   56.1240 C.ar  208  PHE208     -0.0200
    108  CD1        4.8950   59.1960   55.0260 C.ar  208  PHE208     -0.0042
    109  CD2        5.1900   61.3460   56.0590 C.ar  208  PHE208     -0.0042
    110  CE1        5.4230   59.7380   53.8410 C.ar  208  PHE208     -0.0003
    111  CE2        5.6670   61.9070   54.8700 C.ar  208  PHE208     -0.0003
    112  CZ         5.7560   61.0430   53.7620 C.ar  208  PHE208     -0.0000
    113  N          5.3050   59.4320   60.4990 N.am  209  HIS209     -0.1973
    114  CA         4.9750   59.4050   61.9090 C.3   209  HIS209      0.1656
    115  C          4.5580   60.7730   62.3580 C.2   209  HIS209      0.2291
    116  O          5.0820   61.7840   61.9120 O.2   209  HIS209     -0.2864
    117  CB         6.2650   59.0520   62.7080 C.3   209  HIS209      0.0771
    118  CG         7.0050   57.8420   62.2360 C.ar  209  HIS209      0.0820
    119  ND1        6.4700   56.5820   62.3570 N.ar  209  HIS209     -0.2267
    120  CD2        8.1700   57.7080   61.5770 C.ar  209  HIS209      0.1154
    121  CE1        7.3270   55.6950   61.8640 C.ar  209  HIS209      0.1986
    122  NE2        8.3700   56.3400   61.3780 N.ar  209  HIS209     -0.2212
    123  N         12.6740   56.6130   70.6600 N.3   222  PHE222     -0.1241
    124  CA        12.0410   56.6100   69.2910 C.3   222  PHE222      0.1605
    125  C         12.3740   57.8710   68.4910 C.2   222  PHE222      0.2264
    126  O         12.5600   57.7720   67.2860 O.2   222  PHE222     -0.2867
    127  CB        10.5430   56.4260   69.4740 C.3   222  PHE222      0.0534
    128  CG         9.7500   56.4350   68.2090 C.ar  222  PHE222     -0.0203
    129  CD1        9.5710   55.2230   67.5260 C.ar  222  PHE222     -0.0042
    130  CD2        9.2410   57.6150   67.6740 C.ar  222  PHE222     -0.0042
    131  CE1        8.8300   55.2250   66.3050 C.ar  222  PHE222     -0.0003
    132  CE2        8.4640   57.6320   66.5050 C.ar  222  PHE222     -0.0003
    133  CZ         8.3020   56.4360   65.7950 C.ar  222  PHE222     -0.0000
    134  N         -6.0860   51.7260   63.9810 N.3   316  TYR316     -0.1241
    135  CA        -5.8820   50.5420   64.8190 C.3   316  TYR316      0.1605
    136  C         -4.6800   50.6960   65.7190 C.2   316  TYR316      0.2264
    137  O         -3.8130   51.5700   65.4960 O.2   316  TYR316     -0.2867
    138  CB        -5.8640   49.2330   63.9530 C.3   316  TYR316      0.0534
    139  CG        -4.7250   49.1120   62.9620 C.ar  316  TYR316     -0.0201
    140  CD1       -3.4370   48.7350   63.4130 C.ar  316  TYR316     -0.0009
    141  CD2       -4.9390   49.4050   61.5830 C.ar  316  TYR316     -0.0009
    142  CE1       -2.3780   48.5960   62.5410 C.ar  316  TYR316      0.0417
    143  CE2       -3.8130   49.2410   60.6870 C.ar  316  TYR316      0.0417
    144  CZ        -2.6120   48.8310   61.2110 C.ar  316  TYR316      0.1957
    145  OH        -1.5030   48.6210   60.3320 O.3   316  TYR316     -0.2866
    146  N         -1.3300   49.1150   67.6960 N.3   318  ILE318     -0.1245
    147  CA        -0.3230   48.0700   68.0000 C.3   318  ILE318      0.1561
    148  C          0.6360   48.6650   68.9770 C.2   318  ILE318      0.2260
    149  O          1.3450   49.6330   68.6700 O.2   318  ILE318     -0.2867
    150  CB         0.5410   47.6420   66.7730 C.3   318  ILE318      0.0252
    151  CG1       -0.3400   47.2820   65.5520 C.3   318  ILE318      0.0019
    152  CG2        1.3500   46.3730   67.2440 C.3   318  ILE318      0.0019
    153  CD1        0.4970   47.0930   64.2600 C.3   318  ILE318      0.0001
    154  N          4.0990   48.5020   71.0570 N.3   320  SER320     -0.1217
    155  CA         5.3980   47.7990   70.9490 C.3   320  SER320      0.1889
    156  C          6.0370   47.7370   72.3280 C.2   320  SER320      0.2288
    157  O          6.0030   48.7370   73.0680 O.2   320  SER320     -0.2866
    158  CB         6.3450   48.4890   69.9980 C.3   320  SER320      0.2089
    159  OG         5.8990   48.3100   68.6310 O.3   320  SER320     -0.2183
    160  N          5.3670   51.3230   73.8510 N.3   331  LEU331     -0.1245
    161  CA         5.1490   52.4500   72.9520 C.3   331  LEU331      0.1561
    162  C          3.7650   52.2300   72.3320 C.2   331  LEU331      0.2260
    163  O          3.5780   51.2180   71.6860 O.2   331  LEU331     -0.2867
    164  CB         6.2750   52.4530   71.8960 C.3   331  LEU331      0.0270
    165  CG         6.0660   53.2520   70.6230 C.3   331  LEU331      0.0019
    166  CD1        5.7510   54.6820   71.0550 C.3   331  LEU331      0.0001
    167  CD2        7.3200   53.2540   69.7460 C.3   331  LEU331      0.0001
    168  N         -2.3180   53.4930   64.1550 N.3   335  TYR335     -0.1241
    169  CA        -2.0000   53.3640   62.6860 C.3   335  TYR335      0.1605
    170  C         -3.2160   53.8210   61.9620 C.2   335  TYR335      0.2264
    171  O         -4.3300   53.3020   62.1640 O.2   335  TYR335     -0.2867
    172  CB        -1.6670   51.9000   62.3350 C.3   335  TYR335      0.0534
    173  CG        -0.3660   51.4740   62.9300 C.ar  335  TYR335     -0.0201
    174  CD1       -0.2650   51.1430   64.3030 C.ar  335  TYR335     -0.0009
    175  CD2        0.8060   51.4100   62.1450 C.ar  335  TYR335     -0.0009
    176  CE1        0.9710   50.8160   64.8930 C.ar  335  TYR335      0.0417
    177  CE2        2.0620   51.0320   62.7440 C.ar  335  TYR335      0.0417
    178  CZ         2.0640   50.7700   64.0660 C.ar  335  TYR335      0.1957
    179  OH         3.2720   50.4520   64.7170 O.3   335  TYR335     -0.2866
    180  N          1.0100   56.5760   63.1700 N.3   366  ASN366     -0.1225
    181  CA         1.8130   56.1030   61.9970 C.3   366  ASN366      0.1785
    182  C          0.9100   55.8510   60.8080 C.2   366  ASN366      0.2597
    183  O         -0.2650   55.5380   60.8900 O.2   366  ASN366     -0.2718
    184  CB         2.3950   54.7300   62.3640 C.3   366  ASN366      0.1169
    185  CG         3.4490   54.8340   63.4600 C.2   366  ASN366      0.2627
    186  OD1        4.1170   55.8420   63.6090 O.2   366  ASN366     -0.2716
    187  ND2        3.5400   53.7520   64.2770 N.am  366  ASN366     -0.0877
    188  N          1.5150   56.0230   59.6140 N.am  367  MET367     -0.1965
    189  CA         0.8210   55.6780   58.3550 C.3   367  MET367      0.1736
    190  C          1.8410   55.5060   57.2670 C.2   367  MET367      0.2616
    191  O          2.9650   55.9730   57.3860 O.2   367  MET367     -0.2715
    192  CB        -0.1890   56.7420   57.9790 C.3   367  MET367      0.0427
    193  CG         0.4950   58.0680   57.5490 C.3   367  MET367      0.0599
    194  SD        -0.7370   59.3590   57.2010 S.3   367  MET367     -0.1393
    195  CE         0.4010   60.6430   56.5730 C.3   367  MET367      0.0692
    196  N          1.4540   54.8350   56.1890 N.am  368  VAL368     -0.1977
    197  CA         2.2980   54.7720   54.9560 C.3   368  VAL368      0.1596
    198  C          1.6830   55.8310   54.0310 C.2   368  VAL368      0.2287
    199  O          0.4640   56.1120   54.1020 O.2   368  VAL368     -0.2864
    200  CB         2.2040   53.3370   54.3380 C.3   368  VAL368      0.0276
    201  CG1        3.1070   53.2320   53.1180 C.3   368  VAL368      0.0022
    202  CG2        2.6520   52.3290   55.4330 C.3   368  VAL368      0.0022
    203  N          7.1480   50.6740   53.4450 N.3   389  LEU389     -0.1245
    204  CA         6.3270   49.4250   53.3370 C.3   389  LEU389      0.1561
    205  C          6.2440   49.1280   51.8520 C.2   389  LEU389      0.2260
    206  O          5.6330   49.8930   51.0500 O.2   389  LEU389     -0.2867
    207  CB         4.9610   49.6520   53.9550 C.3   389  LEU389      0.0270
    208  CG         4.1990   48.3240   54.1880 C.3   389  LEU389      0.0019
    209  CD1        4.8540   47.4810   55.2460 C.3   389  LEU389      0.0001
    210  CD2        2.7480   48.6370   54.5480 C.3   389  LEU389      0.0001
    211  N         -2.6100   47.4850   55.3140 N.3   410  MET410     -0.1230
    212  CA        -2.1450   46.3010   55.9920 C.3   410  MET410      0.1702
    213  C         -2.2160   46.4180   57.5200 C.2   410  MET410      0.2592
    214  O         -1.9120   47.4940   58.0280 O.2   410  MET410     -0.2718
    215  CB        -0.6370   46.1640   55.6360 C.3   410  MET410      0.0401
    216  CG        -0.1430   44.7670   55.9260 C.3   410  MET410      0.0596
    217  SD        -1.1500   43.3780   55.3170 S.3   410  MET410     -0.1393
    218  CE        -1.5190   43.8280   53.6000 C.3   410  MET410      0.0692
    219  N         -2.5650   45.3280   58.1830 N.am  411  LEU411     -0.1980
    220  CA        -2.4950   45.2870   59.6830 C.3   411  LEU411      0.1596
    221  C         -1.1780   44.9210   60.1850 C.2   411  LEU411      0.2287
    222  O         -0.2540   44.5630   59.4210 O.2   411  LEU411     -0.2864
    223  CB        -3.5710   44.2760   60.1910 C.3   411  LEU411      0.0297
    224  CG        -4.9810   44.5420   59.7360 C.3   411  LEU411      0.0022
    225  CD1       -5.9500   43.5130   60.4010 C.3   411  LEU411      0.0001
    226  CD2       -5.4390   45.9780   60.1600 C.3   411  LEU411      0.0001
@<TRIPOS>BOND
     1   206   205    2
     2   205   204    1
     3    85    83    1
     4    79    80    1
     5    80    83    1
     6    80    81    1
     7   201   200    1
     8    83    84    1
     9    81    82    2
    10   204   203    1
    11   204   207    1
    12   218   217    1
    13   112   110   ar
    14   112   111   ar
    15   110   108   ar
    16   207   208    1
    17   198   199    2
    18   198   197    1
    19   208   210    1
    20   208   209    1
    21   200   197    1
    22   200   202    1
    23   111   109   ar
    24    88    89    1
    25    88    87    1
    26   197   196    1
    27   108   107   ar
    28    90    91    1
    29   211   212    1
    30   217   216    1
    31    86    87    1
    32   215   216    1
    33   215   212    1
    34   212   213    1
    35   109   107   ar
    36   107   106    1
    37   196   190   am
    38    71    72    1
    39    91    92    1
    40    91    94    1
    41    93    92    2
    42   195   194    1
    43    96    98   ar
    44    96    95   ar
    45    92   102   am
    46    98   100   ar
    47   194   193    1
    48   190   191    2
    49   190   189    1
    50    72    75    1
    51    72    73    1
    52   106   103    1
    53   213   214    2
    54   213   219   am
    55   193   192    1
    56    94    95    1
    57    95    97   ar
    58   102   103    1
    59   101   100    1
    60   100    99   ar
    61    75    76    1
    62   192   189    1
    63   219   220    1
    64   103   104    1
    65    78    76   am
    66   189   188    1
    67    76    77    2
    68    97    99   ar
    69    73    74    2
    70   222   221    2
    71   188   182   am
    72   104   105    2
    73   104   113   am
    74   220   221    1
    75   220   223    1
    76   224   226    1
    77   224   223    1
    78   224   225    1
    79   145   144    1
    80   113   114    1
    81   143   144   ar
    82   143   141   ar
    83   182   183    2
    84   182   181    1
    85    12    11    1
    86   144   142   ar
    87   122   120   ar
    88   122   121   ar
    89   120   118   ar
    90   141   139   ar
    91   121   119   ar
    92   114   115    1
    93   114   117    1
    94   116   115    2
    95    19    17    1
    96   170   171    2
    97   170   169    1
    98   181   184    1
    99   181   180    1
   100    11     9   ar
   101    11    10   ar
   102   175   177   ar
   103   175   173   ar
   104     9     7   ar
   105    18    17    1
   106   118   119   ar
   107   118   117    1
   108   172   169    1
   109   172   173    1
   110   184   185    1
   111   142   140   ar
   112    70    69    1
   113   169   168    1
   114   177   178   ar
   115   173   174   ar
   116   139   140   ar
   117   139   138    1
   118    17    14    1
   119    57    58   ar
   120    57    55   ar
   121    10     8   ar
   122    58    56   ar
   123     7     6   ar
   124   185   186    2
   125   185   187   am
   126    23    22    2
   127    69    68   ar
   128    69    67   ar
   129   138   135    1
   130   134   135    1
   131    14    13    1
   132    14    15    1
   133   178   179    1
   134   178   176   ar
   135   153   151    1
   136    55    53   ar
   137   174   176   ar
   138     8     6   ar
   139    68    66   ar
   140    31    30    1
   141    31    32    2
   142     6     5    1
   143    13     3   am
   144    56    54   ar
   145    30    33    1
   146    30    29    1
   147    67    65   ar
   148   135   136    1
   149    22    29   am
   150    22    21    1
   151    20    15   am
   152    20    21    1
   153    15    16    2
   154    33    34    1
   155     3     2    1
   156     3     4    2
   157   137   136    2
   158   151   150    1
   159    53    54   ar
   160    53    52    1
   161    66    64   ar
   162     2     5    1
   163     2     1    1
   164    21    24    1
   165   133   131   ar
   166   133   132   ar
   167    65    64   ar
   168   131   129   ar
   169    64    63    1
   170   132   130   ar
   171    24    25    1
   172    34    36   ar
   173    34    35   ar
   174    52    49    1
   175   150   152    1
   176   150   147    1
   177   126   125    2
   178    25    26    1
   179   129   128   ar
   180   130   128   ar
   181   146   147    1
   182    63    60    1
   183   147   148    1
   184    27    26   ar
   185    26    28   ar
   186    49    48    1
   187    49    50    1
   188   128   127    1
   189    40    39    2
   190   125   124    1
   191   159   158    1
   192   149   148    2
   193    60    59    1
   194    60    61    1
   195    44    46   ar
   196    44    42   ar
   197    50    51    2
   198   124   127    1
   199   124   123    1
   200    41    42    1
   201    41    38    1
   202    46    47   ar
   203    39    38    1
   204   167   165    1
   205    42    43   ar
   206   158   155    1
   207    37    38    1
   208    61    62    2
   209   165   166    1
   210   165   164    1
   211    47    45   ar
   212   155   154    1
   213   155   156    1
   214    43    45   ar
   215   163   162    2
   216   164   161    1
   217   156   157    2
   218   162   161    1
   219   161   160    1
