@<TRIPOS>MOLECULE
tmp/5a28A01.pdb
 234 226 0 0 0
SMALL
GASTEIGER

@<TRIPOS>ATOM
      1  N          6.7080   39.6610   66.4920 N.3    70  TYR70      -0.1227
      2  CA         6.2120   40.3160   65.2490 C.3    70  TYR70       0.1736
      3  C          6.9660   41.6260   64.9620 C.2    70  TYR70       0.2595
      4  O          8.1340   41.8200   65.3800 O.2    70  TYR70      -0.2718
      5  CB         4.6810   40.5260   65.3860 C.3    70  TYR70       0.0548
      6  CG         3.9670   40.7210   64.0480 C.ar   70  TYR70      -0.0200
      7  CD1        4.2730   39.8390   62.9460 C.ar   70  TYR70      -0.0009
      8  CD2        3.0130   41.7820   63.8410 C.ar   70  TYR70      -0.0009
      9  CE1        3.6640   40.0540   61.6950 C.ar   70  TYR70       0.0417
     10  CE2        2.3470   41.9440   62.6240 C.ar   70  TYR70       0.0417
     11  CZ         2.6920   41.0940   61.5410 C.ar   70  TYR70       0.1957
     12  OH         2.0910   41.3010   60.3480 O.3    70  TYR70      -0.2866
     13  N          6.3690   42.4320   64.1230 N.am   71  VAL71      -0.1966
     14  CA         7.0870   43.5950   63.4740 C.3    71  VAL71       0.1727
     15  C          7.6330   44.6070   64.5170 C.2    71  VAL71       0.2616
     16  O          6.8990   45.0390   65.4510 O.2    71  VAL71      -0.2715
     17  CB         6.1670   44.3560   62.4550 C.3    71  VAL71       0.0290
     18  CG1        6.8280   45.6060   61.8520 C.3    71  VAL71       0.0023
     19  CG2        5.8020   43.3990   61.2570 C.3    71  VAL71       0.0023
     20  N          8.9180   44.9770   64.3800 N.am   72  GLU72      -0.1963
     21  CA         9.5150   46.1070   65.1440 C.3    72  GLU72       0.1733
     22  C          9.8360   47.2660   64.2360 C.2    72  GLU72       0.2616
     23  O          9.9130   47.1000   62.9960 O.2    72  GLU72      -0.2715
     24  CB        10.8240   45.5890   65.7490 C.3    72  GLU72       0.0429
     25  CG        10.5460   44.4840   66.8150 C.3    72  GLU72       0.1163
     26  CD        11.8190   43.8510   67.4010 C.2    72  GLU72       0.3649
     27  OE1       12.9600   44.3420   67.1830 O.co2  72  GLU72      -0.2457
     28  OE2       11.6370   42.7750   68.0450 O.co2  72  GLU72      -0.2457
     29  N          9.9850   48.4570   64.8300 N.am   73  ASP73      -0.1971
     30  CA        10.5470   49.5470   64.0230 C.3    73  ASP73       0.1709
     31  C         12.0470   49.2710   63.6950 C.2    73  ASP73       0.2293
     32  O         12.6350   48.2960   64.1710 O.2    73  ASP73      -0.2864
     33  CB        10.4220   50.8250   64.8830 C.3    73  ASP73       0.1436
     34  CG        11.3960   50.8280   65.9860 C.2    73  ASP73       0.3671
     35  OD1       11.3300   49.9910   66.8240 O.co2  73  ASP73      -0.2456
     36  OD2       12.3880   51.6470   66.0920 O.co2  73  ASP73      -0.2456
     37  N         10.2740   49.5730   69.3730 N.3    78  PHE78      -0.1241
     38  CA         8.8280   49.2800   69.4600 C.3    78  PHE78       0.1605
     39  C          8.5370   47.9720   68.7530 C.2    78  PHE78       0.2264
     40  O          9.0790   47.7220   67.6630 O.2    78  PHE78      -0.2867
     41  CB         7.9800   50.4090   68.8040 C.3    78  PHE78       0.0534
     42  CG         8.3270   51.8110   69.3070 C.ar   78  PHE78      -0.0203
     43  CD1        8.1240   52.1750   70.6810 C.ar   78  PHE78      -0.0042
     44  CD2        9.0480   52.6820   68.4510 C.ar   78  PHE78      -0.0042
     45  CE1        8.5470   53.4480   71.1320 C.ar   78  PHE78      -0.0003
     46  CE2        9.4660   53.9260   68.8780 C.ar   78  PHE78      -0.0003
     47  CZ         9.2320   54.2710   70.2450 C.ar   78  PHE78      -0.0000
     48  N          4.8210   45.6500   67.6010 N.3    80  PHE80      -0.1298
     49  CA         3.3630   45.6080   67.6640 C.3    80  PHE80       0.1290
     50  C          2.9230   44.6710   68.7630 C.3    80  PHE80       0.2013
     51  O          3.5270   43.5500   68.9530 O.3    80  PHE80      -0.2188
     52  CB         2.7480   45.2080   66.3260 C.3    80  PHE80       0.0480
     53  CG         2.8370   46.2820   65.2520 C.ar   80  PHE80      -0.0206
     54  CD1        2.5230   47.6030   65.5170 C.ar   80  PHE80      -0.0042
     55  CD2        3.1650   45.9130   63.9330 C.ar   80  PHE80      -0.0042
     56  CE1        2.5800   48.5350   64.4870 C.ar   80  PHE80      -0.0003
     57  CE2        3.2750   46.8830   62.9280 C.ar   80  PHE80      -0.0003
     58  CZ         2.9960   48.2050   63.2240 C.ar   80  PHE80      -0.0000
     59  N         -0.6570   43.5520   68.9240 N.3    82  TYR82      -0.1298
     60  CA        -2.0580   43.3580   68.6180 C.3    82  TYR82       0.1290
     61  C         -2.8200   42.6250   69.7130 C.3    82  TYR82       0.2013
     62  O         -2.3000   41.5720   70.2770 O.3    82  TYR82      -0.2188
     63  CB        -2.1400   42.5340   67.3120 C.3    82  TYR82       0.0480
     64  CG        -1.7790   43.2590   66.0510 C.ar   82  TYR82      -0.0204
     65  CD1       -0.4330   43.2640   65.5710 C.ar   82  TYR82      -0.0009
     66  CD2       -2.7480   43.8220   65.2830 C.ar   82  TYR82      -0.0009
     67  CE1       -0.1180   43.8790   64.3160 C.ar   82  TYR82       0.0417
     68  CE2       -2.4660   44.4370   64.0320 C.ar   82  TYR82       0.0417
     69  CZ        -1.1820   44.3830   63.5530 C.ar   82  TYR82       0.1957
     70  OH        -0.8800   44.9550   62.3170 O.3    82  TYR82      -0.2866
     71  N         -1.5500   38.3780   55.8040 N.3   157  ASN157     -0.1240
     72  CA        -0.9670   39.3470   56.8040 C.3   157  ASN157      0.1653
     73  C         -0.5100   38.4180   57.9330 C.2   157  ASN157      0.2266
     74  O         -0.7390   37.1720   57.9480 O.2   157  ASN157     -0.2867
     75  CB        -2.1110   40.2820   57.2700 C.3   157  ASN157      0.1155
     76  CG        -1.6430   41.5930   57.9030 C.2   157  ASN157      0.2627
     77  OD1       -0.5360   41.7590   58.3310 O.2   157  ASN157     -0.2716
     78  ND2       -2.5320   42.5320   57.9210 N.am  157  ASN157     -0.0877
     79  N          1.0960   43.4280   52.0270 N.3   193  THR193     -0.1218
     80  CA         2.0430   44.5160   52.1390 C.3   193  THR193      0.1862
     81  C          3.2240   44.1100   53.0220 C.2   193  THR193      0.2287
     82  O          3.2080   43.0960   53.7470 O.2   193  THR193     -0.2866
     83  CB         1.3850   45.8090   52.7580 C.3   193  THR193      0.1770
     84  OG1        0.7490   45.4930   54.0360 O.3   193  THR193     -0.2211
     85  CG2        0.3740   46.4760   51.8050 C.3   193  THR193      0.0375
     86  N          5.0710   56.4210   55.3990 N.3   207  TYR207     -0.1227
     87  CA         4.3510   56.4530   56.6350 C.3   207  TYR207      0.1736
     88  C          4.1970   57.9380   57.1010 C.2   207  TYR207      0.2595
     89  O          5.0640   58.7970   56.8760 O.2   207  TYR207     -0.2718
     90  CB         5.0740   55.5330   57.6700 C.3   207  TYR207      0.0548
     91  CG         5.3320   54.0640   57.3020 C.ar  207  TYR207     -0.0200
     92  CD1        4.3020   53.1050   57.3190 C.ar  207  TYR207     -0.0009
     93  CD2        6.6070   53.6190   57.0200 C.ar  207  TYR207     -0.0009
     94  CE1        4.5620   51.7430   57.0680 C.ar  207  TYR207      0.0417
     95  CE2        6.8800   52.2440   56.7430 C.ar  207  TYR207      0.0417
     96  CZ         5.8480   51.3310   56.7940 C.ar  207  TYR207      0.1957
     97  OH         6.1800   50.0130   56.5620 O.3   207  TYR207     -0.2866
     98  N          3.0730   58.2270   57.7670 N.am  208  PHE208     -0.1962
     99  CA         2.8730   59.5220   58.3730 C.3   208  PHE208      0.1771
    100  C          2.3370   59.4250   59.8230 C.2   208  PHE208      0.2619
    101  O          1.5420   58.5640   60.1010 O.2   208  PHE208     -0.2715
    102  CB         1.8840   60.3900   57.5440 C.3   208  PHE208      0.0574
    103  CG         2.4760   60.8880   56.2650 C.ar  208  PHE208     -0.0200
    104  CD1        2.4540   60.0680   55.1370 C.ar  208  PHE208     -0.0042
    105  CD2        3.0770   62.2040   56.2430 C.ar  208  PHE208     -0.0042
    106  CE1        3.0670   60.5230   53.9650 C.ar  208  PHE208     -0.0003
    107  CE2        3.6520   62.6590   55.0390 C.ar  208  PHE208     -0.0003
    108  CZ         3.6890   61.8060   53.9830 C.ar  208  PHE208     -0.0000
    109  N          2.7200   60.3550   60.6980 N.am  209  HIS209     -0.1973
    110  CA         2.3920   60.3250   62.1600 C.3   209  HIS209      0.1656
    111  C          1.8170   61.6750   62.4940 C.2   209  HIS209      0.2291
    112  O          2.2240   62.6590   61.9110 O.2   209  HIS209     -0.2864
    113  CB         3.6870   60.1360   62.9850 C.3   209  HIS209      0.0771
    114  CG         4.4830   58.9590   62.5370 C.ar  209  HIS209      0.0820
    115  ND1        3.9250   57.7080   62.5000 N.ar  209  HIS209     -0.2267
    116  CD2        5.7610   58.8190   62.1150 C.ar  209  HIS209      0.1154
    117  CE1        4.8280   56.8320   62.0770 C.ar  209  HIS209      0.1986
    118  NE2        5.9480   57.4800   61.8160 N.ar  209  HIS209     -0.2212
    119  N          9.8860   58.0180   70.6660 N.3   222  PHE222     -0.1241
    120  CA         9.2370   58.0090   69.3490 C.3   222  PHE222      0.1605
    121  C          9.5380   59.2890   68.6100 C.2   222  PHE222      0.2264
    122  O          9.6770   59.2990   67.3860 O.2   222  PHE222     -0.2867
    123  CB         7.7310   57.9370   69.5540 C.3   222  PHE222      0.0534
    124  CG         6.9600   57.8640   68.2800 C.ar  222  PHE222     -0.0203
    125  CD1        6.8130   56.6360   67.6060 C.ar  222  PHE222     -0.0042
    126  CD2        6.4260   59.0090   67.7210 C.ar  222  PHE222     -0.0042
    127  CE1        6.1010   56.5460   66.4040 C.ar  222  PHE222     -0.0003
    128  CE2        5.7000   58.9350   66.5430 C.ar  222  PHE222     -0.0003
    129  CZ         5.5120   57.7030   65.8890 C.ar  222  PHE222     -0.0000
    130  N         -8.4040   52.2740   63.6020 N.3   316  TYR316     -0.1241
    131  CA        -8.2570   51.0570   64.3930 C.3   316  TYR316      0.1605
    132  C         -7.0810   51.2150   65.3370 C.2   316  TYR316      0.2264
    133  O         -6.1950   52.0170   65.1670 O.2   316  TYR316     -0.2867
    134  CB        -8.2010   49.7530   63.5430 C.3   316  TYR316      0.0534
    135  CG        -7.0000   49.6760   62.5580 C.ar  316  TYR316     -0.0201
    136  CD1       -5.7110   49.3710   63.0250 C.ar  316  TYR316     -0.0009
    137  CD2       -7.1680   49.9310   61.1700 C.ar  316  TYR316     -0.0009
    138  CE1       -4.5940   49.2580   62.1550 C.ar  316  TYR316      0.0417
    139  CE2       -6.0630   49.7820   60.2820 C.ar  316  TYR316      0.0417
    140  CZ        -4.8100   49.4820   60.8050 C.ar  316  TYR316      0.1957
    141  OH        -3.7110   49.3610   59.9750 O.3   316  TYR316     -0.2866
    142  N         -3.7160   49.7740   67.4070 N.3   318  ILE318     -0.1245
    143  CA        -2.6470   48.7810   67.6850 C.3   318  ILE318      0.1561
    144  C         -1.7240   49.3700   68.6930 C.2   318  ILE318      0.2260
    145  O         -1.0750   50.4270   68.4140 O.2   318  ILE318     -0.2867
    146  CB        -1.7720   48.3340   66.4830 C.3   318  ILE318      0.0252
    147  CG1       -2.6810   47.9670   65.2600 C.3   318  ILE318      0.0019
    148  CG2       -0.9090   47.1440   66.9500 C.3   318  ILE318      0.0019
    149  CD1       -1.7930   47.9230   63.9740 C.3   318  ILE318      0.0001
    150  N          1.7870   49.4540   70.7040 N.3   320  SER320     -0.1217
    151  CA         3.1400   48.8850   70.5820 C.3   320  SER320      0.1889
    152  C          3.8270   48.7630   71.9140 C.2   320  SER320      0.2288
    153  O          3.7560   49.6820   72.7260 O.2   320  SER320     -0.2866
    154  CB         4.0690   49.7340   69.6540 C.3   320  SER320      0.2089
    155  OG         3.5960   49.5430   68.3210 O.3   320  SER320     -0.2183
    156  N          2.8060   52.1420   73.7760 N.3   331  LEU331     -0.1245
    157  CA         2.4620   53.2500   72.9020 C.3   331  LEU331      0.1561
    158  C          1.0950   53.0040   72.2880 C.2   331  LEU331      0.2260
    159  O          0.9450   52.0400   71.5640 O.2   331  LEU331     -0.2867
    160  CB         3.5390   53.4290   71.8500 C.3   331  LEU331      0.0270
    161  CG         3.3060   54.4360   70.7290 C.3   331  LEU331      0.0019
    162  CD1        3.0060   55.8160   71.2270 C.3   331  LEU331      0.0001
    163  CD2        4.6930   54.6510   70.1070 C.3   331  LEU331      0.0001
    164  N         -1.4890   53.6470   69.6970 N.3   333  ALA333     -0.1245
    165  CA        -1.5340   54.2730   68.3510 C.3   333  ALA333      0.1562
    166  C         -2.9090   54.0210   67.6900 C.2   333  ALA333      0.2260
    167  O         -3.4430   52.8720   67.6640 O.2   333  ALA333     -0.2867
    168  CB        -0.3740   53.7030   67.4660 C.3   333  ALA333      0.0290
    169  N         -4.7440   54.1180   63.9320 N.3   335  TYR335     -0.1241
    170  CA        -4.3610   54.1200   62.4980 C.3   335  TYR335      0.1605
    171  C         -5.5770   54.4330   61.6970 C.2   335  TYR335      0.2264
    172  O         -6.6590   53.8870   61.8330 O.2   335  TYR335     -0.2867
    173  CB        -3.9650   52.6550   62.1540 C.3   335  TYR335      0.0534
    174  CG        -2.6530   52.2960   62.7880 C.ar  335  TYR335     -0.0201
    175  CD1       -2.5840   51.8860   64.1860 C.ar  335  TYR335     -0.0009
    176  CD2       -1.4320   52.3320   62.0730 C.ar  335  TYR335     -0.0009
    177  CE1       -1.3550   51.6670   64.7610 C.ar  335  TYR335      0.0417
    178  CE2       -0.1930   52.1030   62.6970 C.ar  335  TYR335      0.0417
    179  CZ        -0.1830   51.7400   64.0670 C.ar  335  TYR335      0.1957
    180  OH         1.0620   51.5750   64.6560 O.3   335  TYR335     -0.2866
    181  N         -0.7800   58.8120   69.3830 N.3   364  VAL364     -0.1245
    182  CA        -0.3590   59.2390   68.0280 C.3   364  VAL364      0.1561
    183  C         -1.4440   58.6630   67.0890 C.2   364  VAL364      0.2260
    184  O         -2.0690   57.5830   67.3590 O.2   364  VAL364     -0.2867
    185  CB         1.0840   58.6400   67.7270 C.3   364  VAL364      0.0252
    186  CG1        1.0440   57.1150   67.6890 C.3   364  VAL364      0.0019
    187  CG2        1.6750   59.2640   66.4080 C.3   364  VAL364      0.0019
    188  N         -1.5440   57.3910   63.1500 N.3   366  ASN366     -0.1225
    189  CA        -0.6780   56.9690   62.0840 C.3   366  ASN366      0.1785
    190  C         -1.4320   56.6170   60.8080 C.2   366  ASN366      0.2597
    191  O         -2.6580   56.2590   60.8450 O.2   366  ASN366     -0.2718
    192  CB         0.0120   55.6450   62.5230 C.3   366  ASN366      0.1169
    193  CG         1.0510   55.8520   63.6000 C.2   366  ASN366      0.2627
    194  OD1        1.6020   56.9240   63.7910 O.2   366  ASN366     -0.2716
    195  ND2        1.4040   54.7200   64.3190 N.am  366  ASN366     -0.0877
    196  N         -0.7670   56.7780   59.6260 N.am  367  MET367     -0.1965
    197  CA        -1.4330   56.3940   58.3830 C.3   367  MET367      0.1736
    198  C         -0.3600   56.2670   57.2790 C.2   367  MET367      0.2616
    199  O          0.7660   56.5790   57.5200 O.2   367  MET367     -0.2715
    200  CB        -2.4590   57.4340   57.9240 C.3   367  MET367      0.0427
    201  CG        -1.7780   58.8280   57.5720 C.3   367  MET367      0.0599
    202  SD        -3.0010   60.0620   57.1070 S.3   367  MET367     -0.1393
    203  CE        -1.9150   61.4670   56.5590 C.3   367  MET367      0.0692
    204  N         -0.7600   55.7480   56.1370 N.am  368  VAL368     -0.1977
    205  CA         0.1310   55.6500   54.9730 C.3   368  VAL368      0.1596
    206  C         -0.4880   56.6650   53.9700 C.2   368  VAL368      0.2287
    207  O         -1.6670   56.9400   53.9850 O.2   368  VAL368     -0.2864
    208  CB         0.0480   54.2150   54.4090 C.3   368  VAL368      0.0276
    209  CG1        1.0160   53.9960   53.1760 C.3   368  VAL368      0.0022
    210  CG2        0.4330   53.1570   55.4580 C.3   368  VAL368      0.0022
    211  N          5.4930   51.6960   53.3320 N.3   389  LEU389     -0.1245
    212  CA         4.6790   50.4610   53.1850 C.3   389  LEU389      0.1561
    213  C          4.5510   50.1710   51.6670 C.2   389  LEU389      0.2260
    214  O          4.0910   51.0650   50.9140 O.2   389  LEU389     -0.2867
    215  CB         3.3030   50.6250   53.8300 C.3   389  LEU389      0.0270
    216  CG         2.6420   49.2470   53.8850 C.3   389  LEU389      0.0019
    217  CD1        3.3990   48.2230   54.7930 C.3   389  LEU389      0.0001
    218  CD2        1.2140   49.4020   54.3180 C.3   389  LEU389      0.0001
    219  N         -4.4820   48.1560   54.9730 N.3   410  MET410     -0.1230
    220  CA        -4.1780   46.8860   55.5910 C.3   410  MET410      0.1702
    221  C         -4.1310   47.0340   57.1260 C.2   410  MET410      0.2592
    222  O         -3.7880   48.0590   57.6490 O.2   410  MET410     -0.2718
    223  CB        -2.8840   46.2860   55.0290 C.3   410  MET410      0.0401
    224  CG        -2.9540   45.9690   53.5200 C.3   410  MET410      0.0596
    225  SD        -2.9950   44.1850   53.2880 S.3   410  MET410     -0.1393
    226  CE        -2.6800   44.1080   51.5340 C.3   410  MET410      0.0692
    227  N         -4.4690   45.9570   57.7870 N.am  411  LEU411     -0.1980
    228  CA        -4.5550   46.0150   59.2610 C.3   411  LEU411      0.1596
    229  C         -3.1750   45.6970   59.8260 C.2   411  LEU411      0.2287
    230  O         -2.1800   45.2820   59.1330 O.2   411  LEU411     -0.2864
    231  CB        -5.5180   44.9210   59.7370 C.3   411  LEU411      0.0297
    232  CG        -6.9650   45.1170   59.2930 C.3   411  LEU411      0.0022
    233  CD1       -7.9070   44.0550   59.8260 C.3   411  LEU411      0.0001
    234  CD2       -7.4770   46.5080   59.6400 C.3   411  LEU411      0.0001
@<TRIPOS>BOND
     1   214   213    2
     2   226   225    1
     3   213   212    1
     4    85    83    1
     5    79    80    1
     6    80    83    1
     7    80    81    1
     8    83    84    1
     9    81    82    2
    10   209   208    1
    11   212   211    1
    12   212   215    1
    13   225   224    1
    14   224   223    1
    15   215   216    1
    16   216   218    1
    17   216   217    1
    18   106   108   ar
    19   106   104   ar
    20   206   207    2
    21   206   205    1
    22   108   107   ar
    23   208   205    1
    24   208   210    1
    25   205   204    1
    26   219   220    1
    27   223   220    1
    28   107   105   ar
    29   104   103   ar
    30    86    87    1
    31   220   221    1
    32    71    72    1
    33   204   198   am
    34   105   103   ar
    35   103   102    1
    36   203   202    1
    37    97    96    1
    38    87    88    1
    39    87    90    1
    40    95    96   ar
    41    95    93   ar
    42    96    94   ar
    43    72    75    1
    44    72    73    1
    45    89    88    2
    46    93    91   ar
    47    94    92   ar
    48    88    98   am
    49   202   201    1
    50   221   222    2
    51   221   227   am
    52    75    76    1
    53   198   199    2
    54   198   197    1
    55    91    92   ar
    56    91    90    1
    57   102    99    1
    58   201   200    1
    59    98    99    1
    60   227   228    1
    61    76    78   am
    62    76    77    2
    63   200   197    1
    64    73    74    2
    65    99   100    1
    66   197   196    1
    67   230   229    2
    68   228   231    1
    69   228   229    1
    70   232   234    1
    71   232   231    1
    72   232   233    1
    73   196   190   am
    74   100   101    2
    75   100   109   am
    76   141   140    1
    77   139   140   ar
    78   139   137   ar
    79    12    11    1
    80   109   110    1
    81   140   138   ar
    82   190   191    2
    83   190   189    1
    84   137   135   ar
    85    19    17    1
    86    11     9   ar
    87    11    10   ar
    88     9     7   ar
    89   171   172    2
    90   171   170    1
    91   118   117   ar
    92   118   116   ar
    93    18    17    1
    94   112   111    2
    95   176   178   ar
    96   176   174   ar
    97   117   115   ar
    98   189   192    1
    99   189   188    1
   100   116   114   ar
   101   173   170    1
   102   173   174    1
   103   138   136   ar
   104   110   111    1
   105   110   113    1
   106    70    69    1
   107    17    14    1
   108   170   169    1
   109   115   114   ar
   110   192   193    1
   111   114   113    1
   112   135   136   ar
   113   135   134    1
   114    10     8   ar
   115   178   179   ar
   116   174   175   ar
   117    57    58   ar
   118    57    55   ar
   119     7     6   ar
   120    23    22    2
   121    58    56   ar
   122    14    13    1
   123    14    15    1
   124   134   131    1
   125    69    68   ar
   126    69    67   ar
   127   193   194    2
   128   193   195   am
   129   130   131    1
   130    31    30    1
   131    31    32    2
   132     8     6   ar
   133    55    53   ar
   134   149   147    1
   135    30    29    1
   136    30    33    1
   137    68    66   ar
   138     6     5    1
   139   179   180    1
   140   179   177   ar
   141    13     3   am
   142   175   177   ar
   143    22    29   am
   144    22    21    1
   145    67    65   ar
   146    20    15   am
   147    20    21    1
   148   131   132    1
   149    56    54   ar
   150    15    16    2
   151    33    34    1
   152     3     2    1
   153     3     4    2
   154    21    24    1
   155   133   132    2
   156     2     5    1
   157     2     1    1
   158    53    54   ar
   159    53    52    1
   160   147   146    1
   161    66    64   ar
   162    65    64   ar
   163    24    25    1
   164   129   127   ar
   165   129   128   ar
   166    34    36   ar
   167    34    35   ar
   168    64    63    1
   169    52    49    1
   170   127   125   ar
   171   187   185    1
   172   146   148    1
   173   146   143    1
   174   128   126   ar
   175    25    26    1
   176   183   184    2
   177   183   182    1
   178    27    26   ar
   179    63    60    1
   180   122   121    2
   181    26    28   ar
   182   142   143    1
   183   168   165    1
   184    48    49    1
   185   125   124   ar
   186    40    39    2
   187    49    50    1
   188   167   166    2
   189   143   144    1
   190   186   185    1
   191   166   165    1
   192   126   124   ar
   193   185   182    1
   194   182   181    1
   195   124   123    1
   196   155   154    1
   197   165   164    1
   198   145   144    2
   199    44    46   ar
   200    44    42   ar
   201   121   120    1
   202    60    59    1
   203    60    61    1
   204    39    38    1
   205    50    51    1
   206    41    42    1
   207    41    38    1
   208    46    47   ar
   209    42    43   ar
   210   120   123    1
   211   120   119    1
   212    37    38    1
   213   154   151    1
   214    61    62    1
   215   163   161    1
   216    47    45   ar
   217   151   150    1
   218   151   152    1
   219    43    45   ar
   220   161   162    1
   221   161   160    1
   222   159   158    2
   223   160   157    1
   224   152   153    2
   225   158   157    1
   226   157   156    1
