@<TRIPOS>MOLECULE
tmp/5a29A00.pdb
 93 87 0 0 0
SMALL
GASTEIGER

@<TRIPOS>ATOM
      1  N         22.7030  160.1310    5.7440 N.3   212  ILE212     -0.1245
      2  CA        23.1410  160.9680    4.6120 C.3   212  ILE212      0.1561
      3  C         24.6490  161.2340    4.7000 C.2   212  ILE212      0.2260
      4  O         25.2720  161.4870    3.6700 O.2   212  ILE212     -0.2867
      5  CB        22.2730  162.2380    4.5250 C.3   212  ILE212      0.0252
      6  CG1       22.5520  163.0430    3.2110 C.3   212  ILE212      0.0019
      7  CG2       22.5630  163.2420    5.7160 C.3   212  ILE212      0.0019
      8  CD1       22.2650  162.3600    1.8890 C.3   212  ILE212      0.0001
      9  N         16.1590  159.6860   -0.2360 N.3   248  TYR248     -0.1227
     10  CA        16.0550  160.7620    0.8000 C.3   248  TYR248      0.1736
     11  C         14.9210  161.6750    0.5770 C.2   248  TYR248      0.2595
     12  O         14.1920  162.0590    1.5410 O.2   248  TYR248     -0.2718
     13  CB        17.3740  161.5680    0.9580 C.3   248  TYR248      0.0548
     14  CG        18.5150  160.6780    1.4100 C.ar  248  TYR248     -0.0200
     15  CD1       18.7730  160.4680    2.7510 C.ar  248  TYR248     -0.0009
     16  CD2       19.3530  160.0660    0.4680 C.ar  248  TYR248     -0.0009
     17  CE1       19.8660  159.6950    3.1330 C.ar  248  TYR248      0.0417
     18  CE2       20.3790  159.2380    0.8620 C.ar  248  TYR248      0.0417
     19  CZ        20.6020  159.0490    2.1870 C.ar  248  TYR248      0.1957
     20  OH        21.6580  158.2750    2.5470 O.3   248  TYR248     -0.2866
     21  N         14.7040  162.0010   -0.7110 N.am  249  LYS249     -0.1980
     22  CA        13.6350  162.8880   -1.1140 C.3   249  LYS249      0.1596
     23  C         12.2540  162.2470   -0.8600 C.2   249  LYS249      0.2287
     24  O         11.3000  162.9530   -0.4560 O.2   249  LYS249     -0.2864
     25  CB        13.7690  163.3170   -2.5880 C.3   249  LYS249      0.0298
     26  CG        15.1390  163.8850   -3.0180 C.3   249  LYS249      0.0038
     27  CD        15.7540  164.9750   -2.1440 C.3   249  LYS249      0.0206
     28  CE        17.3220  165.1020   -2.3440 C.3   249  LYS249      0.1093
     29  NZ        18.3070  164.0070   -1.8060 N.3   249  LYS249     -0.1314
     30  N         13.4870  168.1490    4.7560 N.3   259  PRO259     -0.2102
     31  CA        14.3380  167.0150    4.4370 C.3   259  PRO259      0.1504
     32  C         14.6640  166.1490    5.6990 C.2   259  PRO259      0.2575
     33  O         14.4660  166.5850    6.8650 O.2   259  PRO259     -0.2718
     34  CB        15.6070  167.6780    3.9010 C.3   259  PRO259      0.0282
     35  CG        15.6980  168.9460    4.7540 C.3   259  PRO259      0.0208
     36  CD        14.2550  169.4230    4.8780 C.3   259  PRO259      0.0893
     37  N         15.0690  164.9200    5.4370 N.am  260  VAL260     -0.1980
     38  CA        15.4070  163.9460    6.4970 C.3   260  VAL260      0.1595
     39  C         16.8350  163.4630    6.4440 C.2   260  VAL260      0.2287
     40  O         17.5790  163.6020    5.4130 O.2   260  VAL260     -0.2864
     41  CB        14.4530  162.7020    6.4490 C.3   260  VAL260      0.0276
     42  CG1       13.0650  163.1790    6.8730 C.3   260  VAL260      0.0022
     43  CG2       14.4680  162.1260    5.0220 C.3   260  VAL260      0.0022
     44  N         22.8230  167.7540    6.2110 N.3   313  ILE313     -0.1245
     45  CA        21.7550  167.8920    5.2040 C.3   313  ILE313      0.1561
     46  C         21.8600  169.2530    4.4950 C.2   313  ILE313      0.2260
     47  O         21.9160  169.2800    3.2500 O.2   313  ILE313     -0.2867
     48  CB        20.3810  167.7840    5.8640 C.3   313  ILE313      0.0252
     49  CG1       20.1840  166.3600    6.4060 C.3   313  ILE313      0.0019
     50  CG2       19.2680  168.1780    4.8730 C.3   313  ILE313      0.0019
     51  CD1       18.9630  166.3410    7.3620 C.3   313  ILE313      0.0001
     52  N         25.5940  167.9810    2.3080 N.3   317  ASN317     -0.1225
     53  CA        24.9660  167.3090    1.1360 C.3   317  ASN317      0.1785
     54  C         24.3170  168.3420    0.1930 C.2   317  ASN317      0.2597
     55  O         24.2440  168.1140   -1.0310 O.2   317  ASN317     -0.2718
     56  CB        23.9670  166.2680    1.5570 C.3   317  ASN317      0.1169
     57  CG        23.4200  165.4840    0.3380 C.2   317  ASN317      0.2627
     58  OD1       24.1810  164.7790   -0.3570 O.2   317  ASN317     -0.2716
     59  ND2       22.1390  165.6840    0.0610 N.am  317  ASN317     -0.0877
     60  N         23.8680  169.4600    0.7550 N.am  318  ALA318     -0.1979
     61  CA        23.3380  170.5140   -0.1000 C.3   318  ALA318      0.1597
     62  C         24.4070  171.0050   -1.0940 C.2   318  ALA318      0.2287
     63  O         24.0960  171.2210   -2.2600 O.2   318  ALA318     -0.2864
     64  CB        22.8110  171.6930    0.7490 C.3   318  ALA318      0.0319
     65  N         24.7830  168.4210   -3.8680 N.3   321  GLU321     -0.1245
     66  CA        23.6600  168.3020   -4.8230 C.3   321  GLU321      0.1567
     67  C         23.6300  169.5260   -5.7030 C.2   321  GLU321      0.2260
     68  O         23.3140  169.4400   -6.9120 O.2   321  GLU321     -0.2867
     69  CB        22.3180  168.1320   -4.1000 C.3   321  GLU321      0.0388
     70  CG        22.2840  166.7230   -3.4910 C.3   321  GLU321      0.1160
     71  CD        20.8890  166.2800   -2.9850 C.2   321  GLU321      0.3649
     72  OE1       19.9140  167.0840   -3.0490 O.co2 321  GLU321     -0.2457
     73  OE2       20.8090  165.1100   -2.4820 O.co2 321  GLU321     -0.2457
     74  N         16.7630  170.4110   -4.2360 N.3   337  VAL337     -0.1245
     75  CA        17.6270  171.0310   -3.2110 C.3   337  VAL337      0.1561
     76  C         17.0130  172.2860   -2.6990 C.2   337  VAL337      0.2260
     77  O         17.0250  172.5000   -1.4920 O.2   337  VAL337     -0.2867
     78  CB        19.0330  171.5030   -3.6940 C.3   337  VAL337      0.0252
     79  CG1       19.8550  171.8740   -2.4310 C.3   337  VAL337      0.0019
     80  CG2       19.7350  170.4410   -4.4270 C.3   337  VAL337      0.0019
     81  N         14.1340  171.6480   -0.4290 N.3   340  ALA340     -0.1231
     82  CA        14.5660  171.1260    0.8480 C.3   340  ALA340      0.1694
     83  C         15.0780  172.2570    1.7560 C.2   340  ALA340      0.2591
     84  O         14.7600  172.2640    2.9730 O.2   340  ALA340     -0.2718
     85  CB        15.6490  170.0450    0.6550 C.3   340  ALA340      0.0304
     86  N         15.9240  173.1630    1.2030 N.am  341  LEU341     -0.1980
     87  CA        16.4870  174.2820    2.0240 C.3   341  LEU341      0.1596
     88  C         15.3360  175.1440    2.4770 C.2   341  LEU341      0.2287
     89  O         15.2220  175.4910    3.6490 O.2   341  LEU341     -0.2864
     90  CB        17.4690  175.1710    1.1740 C.3   341  LEU341      0.0297
     91  CG        18.7480  174.4040    0.8340 C.3   341  LEU341      0.0022
     92  CD1       19.5210  175.2670   -0.1630 C.3   341  LEU341      0.0001
     93  CD2       19.6240  174.1480    2.0980 C.3   341  LEU341      0.0001
@<TRIPOS>BOND
     1    68    67    2
     2    67    66    1
     3    66    69    1
     4    66    65    1
     5    80    78    1
     6    74    75    1
     7    69    70    1
     8    78    75    1
     9    78    79    1
    10    70    71    1
    11    75    76    1
    12    72    71   ar
    13    26    25    1
    14    26    27    1
    15    71    73   ar
    16    76    77    2
    17    25    22    1
    18    28    27    1
    19    28    29    1
    20    63    62    2
    21    22    23    1
    22    22    21    1
    23    62    61    1
    24    55    54    2
    25    23    24    2
    26    21    11   am
    27    81    82    1
    28    58    57    2
    29     9    10    1
    30    92    91    1
    31    61    64    1
    32    61    60    1
    33    59    57   am
    34    54    60   am
    35    54    53    1
    36    57    56    1
    37    16    18   ar
    38    16    14   ar
    39    11    10    1
    40    11    12    2
    41    85    82    1
    42    10    13    1
    43    91    90    1
    44    91    93    1
    45    82    83    1
    46    18    19   ar
    47    13    14    1
    48    53    56    1
    49    53    52    1
    50    90    87    1
    51    86    83   am
    52    86    87    1
    53    14    15   ar
    54    83    84    2
    55     8     6    1
    56    87    88    1
    57    19    20    1
    58    19    17   ar
    59    88    89    2
    60    15    17   ar
    61     6     5    1
    62    47    46    2
    63     4     3    2
    64    34    31    1
    65    34    35    1
    66    31    30    1
    67    31    32    1
    68    46    45    1
    69     5     2    1
    70     5     7    1
    71     2     3    1
    72     2     1    1
    73    35    36    1
    74    30    36    1
    75    50    48    1
    76    43    41    1
    77    45    48    1
    78    45    44    1
    79    40    39    2
    80    37    32   am
    81    37    38    1
    82    32    33    2
    83    48    49    1
    84    49    51    1
    85    39    38    1
    86    41    38    1
    87    41    42    1
