@<TRIPOS>MOLECULE
tmp/5a2bA00.pdb
 192 189 0 0 0
SMALL
GASTEIGER

@<TRIPOS>ATOM
      1  N         27.7310   29.7350   35.6200 N.3    34  LYS34      -0.1245
      2  CA        26.9560   31.0060   35.4900 C.3    34  LYS34       0.1561
      3  C         27.7750   32.2900   35.6150 C.2    34  LYS34       0.2260
      4  O         27.2330   33.4110   35.5900 O.2    34  LYS34      -0.2867
      5  CB        25.8910   31.0290   36.5940 C.3    34  LYS34       0.0271
      6  CG        24.8460   29.9270   36.4820 C.3    34  LYS34       0.0035
      7  CD        24.1110   30.1400   35.1600 C.3    34  LYS34       0.0206
      8  CE        22.7750   29.4460   35.1180 C.3    34  LYS34       0.1093
      9  NZ        22.0480   30.0510   34.0040 N.3    34  LYS34      -0.1314
     10  N         27.0790   37.2050   31.8120 N.3    72  TYR72      -0.1227
     11  CA        28.2430   36.8010   31.0460 C.3    72  TYR72       0.1736
     12  C         27.9250   36.7020   29.5760 C.2    72  TYR72       0.2595
     13  O         28.7870   36.9640   28.7280 O.2    72  TYR72      -0.2718
     14  CB        28.8760   35.5180   31.5720 C.3    72  TYR72       0.0548
     15  CG        28.0370   34.3530   31.3190 C.ar   72  TYR72      -0.0200
     16  CD1       28.1300   33.6960   30.1060 C.ar   72  TYR72      -0.0009
     17  CD2       27.0500   33.9890   32.2140 C.ar   72  TYR72      -0.0009
     18  CE1       27.2880   32.6310   29.8010 C.ar   72  TYR72       0.0417
     19  CE2       26.1960   32.8960   31.9240 C.ar   72  TYR72       0.0417
     20  CZ        26.3080   32.2340   30.6940 C.ar   72  TYR72       0.1957
     21  OH        25.4760   31.1530   30.3160 O.3    72  TYR72      -0.2866
     22  N         26.6690   36.4260   29.2680 N.am   73  HIS73      -0.1975
     23  CA        26.2140   36.2620   27.8790 C.3    73  HIS73       0.1656
     24  C         25.9600   37.5780   27.1560 C.2    73  HIS73       0.2291
     25  O         25.8860   37.5720   25.8900 O.2    73  HIS73      -0.2864
     26  CB        24.9150   35.4880   27.8460 C.3    73  HIS73       0.0771
     27  CG        24.0070   35.7860   29.0010 C.ar   73  HIS73       0.0820
     28  ND1       23.2810   36.9400   29.0620 N.ar   73  HIS73      -0.2267
     29  CD2       23.7510   35.1160   30.1600 C.ar   73  HIS73       0.1154
     30  CE1       22.6220   37.0110   30.2020 C.ar   73  HIS73       0.1986
     31  NE2       22.8420   35.8860   30.8730 N.ar   73  HIS73      -0.2212
     32  N         23.1550   39.7250   27.6320 N.3    75  TYR75      -0.1227
     33  CA        21.7790   40.0480   27.3590 C.3    75  TYR75       0.1736
     34  C         21.0530   40.8190   28.4830 C.2    75  TYR75       0.2595
     35  O         19.8350   41.1160   28.3920 O.2    75  TYR75      -0.2718
     36  CB        20.9910   38.8040   26.9000 C.3    75  TYR75       0.0548
     37  CG        21.4670   38.2570   25.5680 C.ar   75  TYR75      -0.0200
     38  CD1       21.0970   38.8540   24.3580 C.ar   75  TYR75      -0.0009
     39  CD2       22.1950   37.0330   25.5310 C.ar   75  TYR75      -0.0009
     40  CE1       21.5070   38.3530   23.1360 C.ar   75  TYR75       0.0417
     41  CE2       22.6430   36.5050   24.3310 C.ar   75  TYR75       0.0417
     42  CZ        22.2840   37.1090   23.1260 C.ar   75  TYR75       0.1957
     43  OH        22.7570   36.5260   21.9840 O.3    75  TYR75      -0.2866
     44  N         21.8040   41.2030   29.5320 N.am   76  TRP76      -0.1976
     45  CA        21.2450   41.9230   30.6900 C.3    76  TRP76       0.1640
     46  C         21.9390   43.2870   30.8050 C.2    76  TRP76       0.2290
     47  O         22.7320   43.5300   31.7080 O.2    76  TRP76      -0.2864
     48  CB        21.4290   41.1810   31.9660 C.3    76  TRP76       0.0576
     49  CG        20.8670   39.7870   32.0020 C.ar   76  TRP76       0.0006
     50  CD1       19.9240   39.2420   31.1650 C.ar   76  TRP76       0.0946
     51  CD2       21.1890   38.7890   32.9670 C.ar   76  TRP76       0.0152
     52  NE1       19.6680   37.9360   31.5330 N.ar   76  TRP76      -0.2442
     53  CE2       20.4330   37.6250   32.6370 C.ar   76  TRP76       0.0810
     54  CE3       22.0820   38.7430   34.0600 C.ar   76  TRP76       0.0012
     55  CZ2       20.4960   36.4170   33.4250 C.ar   76  TRP76       0.0191
     56  CZ3       22.1590   37.5890   34.8270 C.ar   76  TRP76       0.0001
     57  CH2       21.3530   36.4100   34.5040 C.ar   76  TRP76       0.0015
     58  N         14.4850   44.8060   25.9810 N.3   115  HIS115     -0.1241
     59  CA        14.5330   44.8370   27.4210 C.3   115  HIS115      0.1621
     60  C         15.8770   45.3220   27.9170 C.2   115  HIS115      0.2264
     61  O         16.9000   45.2960   27.1470 O.2   115  HIS115     -0.2867
     62  CB        14.2820   43.4330   27.9620 C.3   115  HIS115      0.0745
     63  CG        15.1200   42.3680   27.3180 C.ar  115  HIS115      0.0817
     64  ND1       16.3900   42.0410   27.7700 N.ar  115  HIS115     -0.2268
     65  CD2       14.8750   41.5240   26.2780 C.ar  115  HIS115      0.1154
     66  CE1       16.9000   41.0760   27.0170 C.ar  115  HIS115      0.1986
     67  NE2       16.0060   40.7540   26.1050 N.ar  115  HIS115     -0.2212
     68  N         17.7730   43.1000   34.5300 N.3   118  TYR118     -0.1241
     69  CA        16.8920   43.1420   35.7000 C.3   118  TYR118      0.1605
     70  C         17.1530   44.3330   36.6110 C.2   118  TYR118      0.2264
     71  O         16.2600   44.8120   37.2720 O.2   118  TYR118     -0.2867
     72  CB        17.1040   41.8690   36.5220 C.3   118  TYR118      0.0534
     73  CG        16.7560   40.6190   35.7560 C.ar  118  TYR118     -0.0201
     74  CD1       15.4350   40.2590   35.5320 C.ar  118  TYR118     -0.0009
     75  CD2       17.7440   39.8160   35.2470 C.ar  118  TYR118     -0.0009
     76  CE1       15.1190   39.1450   34.7940 C.ar  118  TYR118      0.0417
     77  CE2       17.4220   38.6740   34.5530 C.ar  118  TYR118      0.0417
     78  CZ        16.1060   38.3650   34.3200 C.ar  118  TYR118      0.1957
     79  OH        15.7980   37.2250   33.6150 O.3   118  TYR118     -0.2866
     80  N          9.6170   39.2830   29.3030 N.3   152  LEU152     -0.1231
     81  CA        10.1520   38.0020   28.9240 C.3   152  LEU152      0.1693
     82  C         11.1470   37.5490   29.9950 C.2   152  LEU152      0.2592
     83  O         12.1270   38.2360   30.2260 O.2   152  LEU152     -0.2718
     84  CB        10.9020   38.1120   27.6140 C.3   152  LEU152      0.0284
     85  CG        11.5720   36.8180   27.1490 C.3   152  LEU152      0.0019
     86  CD1       10.6040   35.6830   26.8090 C.3   152  LEU152      0.0001
     87  CD2       12.4680   37.1220   25.9610 C.3   152  LEU152      0.0001
     88  N         10.8820   36.3980   30.6160 N.am  153  PHE153     -0.1976
     89  CA        11.7460   35.8780   31.7010 C.3   153  PHE153      0.1639
     90  C         11.8730   36.9070   32.8610 C.2   153  PHE153      0.2290
     91  O         12.8720   36.9360   33.5060 O.2   153  PHE153     -0.2864
     92  CB        13.1520   35.5130   31.1160 C.3   153  PHE153      0.0560
     93  CG        13.1260   34.5120   29.9700 C.ar  153  PHE153     -0.0200
     94  CD1       12.2200   33.4500   29.9590 C.ar  153  PHE153     -0.0042
     95  CD2       14.0130   34.6330   28.9010 C.ar  153  PHE153     -0.0042
     96  CE1       12.2090   32.5560   28.9020 C.ar  153  PHE153     -0.0003
     97  CE2       13.9890   33.7410   27.8390 C.ar  153  PHE153     -0.0003
     98  CZ        13.1000   32.6930   27.8560 C.ar  153  PHE153     -0.0000
     99  N         12.3630   40.0120   32.3070 N.3   155  LEU155     -0.1245
    100  CA        13.2530   41.1230   31.8620 C.3   155  LEU155      0.1561
    101  C         12.4440   42.4150   31.6600 C.2   155  LEU155      0.2260
    102  O         11.4910   42.3780   30.9180 O.2   155  LEU155     -0.2867
    103  CB        14.0630   40.7820   30.6220 C.3   155  LEU155      0.0270
    104  CG        15.0550   39.5880   30.8040 C.3   155  LEU155      0.0019
    105  CD1       15.2810   38.9090   29.4790 C.3   155  LEU155      0.0001
    106  CD2       16.3370   40.0680   31.4410 C.3   155  LEU155      0.0001
    107  N         22.6500   41.5810   14.5050 N.3   186  ARG186     -0.1245
    108  CA        21.7780   40.4390   14.6970 C.3   186  ARG186      0.1563
    109  C         20.8270   40.9010   15.7600 C.2   186  ARG186      0.2260
    110  O         21.2640   41.3130   16.8570 O.2   186  ARG186     -0.2867
    111  CB        22.5400   39.2060   15.1570 C.3   186  ARG186      0.0307
    112  CG        21.6240   37.9760   15.4550 C.3   186  ARG186      0.0489
    113  CD        21.1720   37.9810   16.9260 C.3   186  ARG186      0.2205
    114  NE        20.5240   36.7760   17.3910 N.pl3 186  ARG186     -0.0865
    115  CZ        20.0640   36.5450   18.5920 C.cat 186  ARG186      0.5346
    116  NH1       20.1620   37.4300   19.5650 N.pl3 186  ARG186      0.1354
    117  NH2       19.5650   35.3420   18.8780 N.pl3 186  ARG186      0.1354
    118  N         18.2080   40.6370   18.4920 N.3   188  ASP188     -0.1225
    119  CA        17.6160   39.8010   19.5070 C.3   188  ASP188      0.1805
    120  C         16.1270   39.9290   19.6250 C.2   188  ASP188      0.2598
    121  O         15.6050   41.0120   19.4500 O.2   188  ASP188     -0.2718
    122  CB        18.2080   40.2120   20.8640 C.3   188  ASP188      0.1424
    123  CG        17.9450   39.1960   21.9740 C.2   188  ASP188      0.3668
    124  OD1       18.2440   37.9770   21.7330 O.co2 188  ASP188     -0.2456
    125  OD2       17.4770   39.5990   23.0770 O.co2 188  ASP188     -0.2456
    126  N         15.4310   38.8230   19.9390 N.am  189  THR189     -0.1953
    127  CA        14.0290   38.9010   20.4840 C.3   189  THR189      0.1897
    128  C         13.0970   39.7750   19.6270 C.2   189  THR189      0.2313
    129  O         12.2170   40.5100   20.1280 O.2   189  THR189     -0.2863
    130  CB        13.9980   39.3140   22.0030 C.3   189  THR189      0.1794
    131  OG1       14.8100   40.4770   22.2720 O.3   189  THR189     -0.2208
    132  CG2       14.6230   38.2270   22.8370 C.3   189  THR189      0.0378
    133  N         16.3930   37.5770   14.8270 N.3   217  GLU217     -0.1245
    134  CA        16.0690   36.4030   15.5850 C.3   217  GLU217      0.1567
    135  C         14.5460   36.4620   15.8840 C.2   217  GLU217      0.2260
    136  O         14.1280   37.0860   16.8870 O.2   217  GLU217     -0.2867
    137  CB        16.7620   36.3370   16.9330 C.3   217  GLU217      0.0388
    138  CG        16.5260   34.9790   17.6500 C.3   217  GLU217      0.1160
    139  CD        16.4420   35.0060   19.1490 C.2   217  GLU217      0.3649
    140  OE1       16.2190   36.0920   19.7060 O.co2 217  GLU217     -0.2457
    141  OE2       16.5340   33.8930   19.7860 O.co2 217  GLU217     -0.2457
    142  N         12.1320   33.8410   17.1090 N.3   219  TRP219     -0.1241
    143  CA        12.0890   32.5000   17.6920 C.3   219  TRP219      0.1605
    144  C         10.7330   31.8530   17.4610 C.2   219  TRP219      0.2264
    145  O          9.8560   32.0190   18.2870 O.2   219  TRP219     -0.2867
    146  CB        12.3110   32.5210   19.2110 C.3   219  TRP219      0.0550
    147  CG        12.4380   31.1720   19.8840 C.ar  219  TRP219      0.0003
    148  CD1       11.4410   30.4510   20.4380 C.ar  219  TRP219      0.0946
    149  CD2       13.6660   30.4540   20.1850 C.ar  219  TRP219      0.0152
    150  NE1       11.9460   29.3190   21.0390 N.ar  219  TRP219     -0.2442
    151  CE2       13.3050   29.2790   20.8720 C.ar  219  TRP219      0.0810
    152  CE3       14.9950   30.6840   19.9370 C.ar  219  TRP219      0.0012
    153  CZ2       14.2280   28.3630   21.3010 C.ar  219  TRP219      0.0191
    154  CZ3       15.9350   29.7510   20.3700 C.ar  219  TRP219      0.0001
    155  CH2       15.5410   28.5990   21.0120 C.ar  219  TRP219      0.0015
    156  N         23.5380   29.0610   20.7840 N.3   284  HIS284     -0.1226
    157  CA        23.7290   29.3370   22.1940 C.3   284  HIS284      0.1752
    158  C         22.5010   29.1020   23.0640 C.2   284  HIS284      0.2596
    159  O         22.6180   29.1420   24.2900 O.2   284  HIS284     -0.2718
    160  CB        24.3120   30.7320   22.3720 C.3   284  HIS284      0.0759
    161  CG        23.4430   31.8450   21.8850 C.ar  284  HIS284      0.0818
    162  ND1       22.8150   31.8420   20.6660 N.ar  284  HIS284     -0.2268
    163  CD2       23.1090   33.0170   22.4750 C.ar  284  HIS284      0.1154
    164  CE1       22.1280   32.9600   20.5080 C.ar  284  HIS284      0.1986
    165  NE2       22.2850   33.6920   21.5990 N.ar  284  HIS284     -0.2212
    166  N         21.3470   28.8660   22.4300 N.am  285  ASP285     -0.1974
    167  CA        20.1060   28.6700   23.1010 C.3   285  ASP285      0.1709
    168  C         19.6630   27.1750   22.9700 C.2   285  ASP285      0.2293
    169  O         18.5520   26.8250   23.3590 O.2   285  ASP285     -0.2864
    170  CB        19.0950   29.6480   22.5660 C.3   285  ASP285      0.1436
    171  CG        19.4460   31.1050   22.9540 C.2   285  ASP285      0.3671
    172  OD1       19.9800   31.3370   24.0960 O.co2 285  ASP285     -0.2456
    173  OD2       19.2670   32.0020   22.1430 O.co2 285  ASP285     -0.2456
    174  N         21.6060   25.2820   28.0580 N.3   333  ASP333     -0.1239
    175  CA        22.1810   26.4980   28.6160 C.3   333  ASP333      0.1674
    176  C         22.2590   26.3930   30.1640 C.2   333  ASP333      0.2266
    177  O         21.2620   26.1240   30.7930 O.2   333  ASP333     -0.2867
    178  CB        21.2710   27.6430   28.1180 C.3   333  ASP333      0.1410
    179  CG        21.5090   28.9920   28.8320 C.2   333  ASP333      0.3668
    180  OD1       22.4810   29.1490   29.5450 O.co2 333  ASP333     -0.2456
    181  OD2       20.6720   29.9150   28.6640 O.co2 333  ASP333     -0.2456
    182  N         27.6560   26.4460   26.4310 N.3   337  ARG337     -0.1245
    183  CA        28.5780   27.5800   26.2900 C.3   337  ARG337      0.1563
    184  C         29.9390   27.3940   26.9850 C.2   337  ARG337      0.2260
    185  O         30.4570   28.3410   27.6440 O.2   337  ARG337     -0.2867
    186  CB        27.9030   28.8150   26.8340 C.3   337  ARG337      0.0307
    187  CG        26.5900   29.2220   26.1720 C.3   337  ARG337      0.0489
    188  CD        25.6170   29.9460   27.0990 C.3   337  ARG337      0.2205
    189  NE        24.3140   30.2820   26.4310 N.pl3 337  ARG337     -0.0865
    190  CZ        23.4480   31.2150   26.8200 C.cat 337  ARG337      0.5346
    191  NH1       23.6850   31.9560   27.9320 N.pl3 337  ARG337      0.1354
    192  NH2       22.3310   31.4180   26.1100 N.pl3 337  ARG337      0.1354
@<TRIPOS>BOND
     1   107   108    1
     2   108   111    1
     3   108   109    1
     4   133   134    1
     5   111   112    1
     6   112   113    1
     7   134   135    1
     8   134   137    1
     9   109   110    2
    10   135   136    2
    11   113   114    1
    12   137   138    1
    13   142   143    1
    14   114   115    2
    15   144   143    1
    16   144   145    2
    17   138   139    1
    18   143   146    1
    19   118   119    1
    20   115   117    1
    21   115   116    1
    22   139   140   ar
    23   139   141   ar
    24   146   147    1
    25   121   120    2
    26   119   120    1
    27   119   122    1
    28   120   126   am
    29   128   129    2
    30   128   127    1
    31   147   149   ar
    32   147   148   ar
    33   152   149   ar
    34   152   154   ar
    35   126   127    1
    36   149   151   ar
    37   154   155   ar
    38   148   150   ar
    39   127   130    1
    40   164   162   ar
    41   164   165   ar
    42   162   161   ar
    43   156   157    1
    44   122   123    1
    45   151   150   ar
    46   151   153   ar
    47   155   153   ar
    48   165   163   ar
    49   124   123   ar
    50   161   160    1
    51   161   163   ar
    52   123   125   ar
    53    43    42    1
    54   130   131    1
    55   130   132    1
    56   173   171   ar
    57   157   160    1
    58   157   158    1
    59   166   158   am
    60   166   167    1
    61   170   171    1
    62   170   167    1
    63   171   172   ar
    64   168   167    1
    65   168   169    2
    66   158   159    2
    67    42    40   ar
    68    42    41   ar
    69    40    38   ar
    70    41    39   ar
    71    38    37   ar
    72    39    37   ar
    73    37    36    1
    74    25    24    2
    75    87    85    1
    76    58    59    1
    77    67    65   ar
    78    67    66   ar
    79   192   190    1
    80   187   186    1
    81   187   188    1
    82    65    63   ar
    83   183   182    1
    84   183   186    1
    85   183   184    1
    86   189   190    2
    87   189   188    1
    88    86    85    1
    89   190   191    1
    90    36    33    1
    91   184   185    2
    92    66    64   ar
    93    61    60    2
    94    85    84    1
    95    24    23    1
    96    63    64   ar
    97    63    62    1
    98    33    32    1
    99    33    34    1
   100    59    60    1
   101    59    62    1
   102    84    81    1
   103    97    98   ar
   104    97    95   ar
   105    26    23    1
   106    26    27    1
   107    98    96   ar
   108    23    22    1
   109   174   175    1
   110   178   175    1
   111   178   179    1
   112    35    34    2
   113    34    44   am
   114   175   176    1
   115   181   179   ar
   116    13    12    2
   117   179   180   ar
   118    95    93   ar
   119    96    94   ar
   120    81    80    1
   121    81    82    1
   122    27    28   ar
   123    27    29   ar
   124    28    30   ar
   125    22    12   am
   126   105   104    1
   127    44    45    1
   128    12    11    1
   129    18    16   ar
   130    18    20   ar
   131    94    93   ar
   132    93    92    1
   133    82    83    2
   134    82    88   am
   135    16    15   ar
   136    29    31   ar
   137   176   177    2
   138    30    31   ar
   139    21    20    1
   140    88    89    1
   141   103   104    1
   142   103   100    1
   143    45    46    1
   144    45    48    1
   145    20    19   ar
   146   104   106    1
   147    46    47    2
   148   102   101    2
   149    11    14    1
   150    11    10    1
   151    92    89    1
   152    50    52   ar
   153    50    49   ar
   154    15    14    1
   155    15    17   ar
   156    52    53   ar
   157   101   100    1
   158    89    90    1
   159   100    99    1
   160    19    17   ar
   161    48    49    1
   162    49    51   ar
   163    53    51   ar
   164    53    55   ar
   165    90    91    2
   166    51    54   ar
   167    55    57   ar
   168    79    78    1
   169     9     8    1
   170    54    56   ar
   171    78    77   ar
   172    78    76   ar
   173    57    56   ar
   174    68    69    1
   175    77    75   ar
   176    76    74   ar
   177     8     7    1
   178     7     6    1
   179    75    73   ar
   180     2     3    1
   181     2     1    1
   182     2     5    1
   183    74    73   ar
   184     4     3    2
   185    69    72    1
   186    69    70    1
   187    73    72    1
   188     6     5    1
   189    70    71    2
