@<TRIPOS>MOLECULE
tmp/5a2hA01.pdb
 99 92 0 0 0
SMALL
GASTEIGER

@<TRIPOS>ATOM
      1  N        -12.8920   13.8720  -42.5170 N.3    91  PHE91      -0.1241
      2  CA       -14.0730   14.5170  -43.0980 C.3    91  PHE91       0.1605
      3  C        -13.9720   16.0320  -43.1960 C.2    91  PHE91       0.2264
      4  O        -14.4170   16.6150  -44.2090 O.2    91  PHE91      -0.2867
      5  CB       -15.3210   14.1240  -42.3280 C.3    91  PHE91       0.0534
      6  CG       -15.7520   12.7000  -42.6260 C.ar   91  PHE91      -0.0203
      7  CD1      -16.4220   12.4020  -43.8230 C.ar   91  PHE91      -0.0042
      8  CD2      -15.4130   11.6560  -41.7700 C.ar   91  PHE91      -0.0042
      9  CE1      -16.8050   11.1120  -44.1240 C.ar   91  PHE91      -0.0003
     10  CE2      -15.8070   10.3640  -42.0640 C.ar   91  PHE91      -0.0003
     11  CZ       -16.4930   10.0900  -43.2330 C.ar   91  PHE91      -0.0000
     12  N        -18.1500   19.5450  -40.5880 N.3    99  ILE99      -0.1245
     13  CA       -18.2590   18.7890  -41.8590 C.3    99  ILE99       0.1561
     14  C        -19.4790   19.3570  -42.5850 C.2    99  ILE99       0.2260
     15  O        -20.6120   19.4190  -42.0280 O.2    99  ILE99      -0.2867
     16  CB       -18.4620   17.2980  -41.6050 C.3    99  ILE99       0.0252
     17  CG1      -17.3260   16.7390  -40.7530 C.3    99  ILE99       0.0019
     18  CG2      -18.5640   16.5460  -42.9100 C.3    99  ILE99       0.0019
     19  CD1      -17.6860   15.4260  -40.1270 C.3    99  ILE99       0.0001
     20  N        -18.6370   16.1960  -47.0120 N.3   104  LEU104     -0.1245
     21  CA       -19.0880   14.8340  -46.7370 C.3   104  LEU104      0.1561
     22  C        -19.1640   14.0300  -48.0430 C.2   104  LEU104      0.2260
     23  O        -18.8330   12.8500  -48.0970 O.2   104  LEU104     -0.2867
     24  CB       -20.4640   14.8430  -46.0660 C.3   104  LEU104      0.0270
     25  CG       -21.0850   13.4400  -45.9040 C.3   104  LEU104      0.0019
     26  CD1      -20.2670   12.6340  -44.8960 C.3   104  LEU104      0.0001
     27  CD2      -22.5200   13.5180  -45.4720 C.3   104  LEU104      0.0001
     28  N        -16.6360   11.1510  -48.9350 N.3   108  MET108     -0.1245
     29  CA       -17.3790    9.9000  -49.0140 C.3   108  MET108      0.1570
     30  C        -17.0520    9.2320  -50.3580 C.2   108  MET108      0.2261
     31  O        -16.8570    8.0140  -50.4440 O.2   108  MET108     -0.2867
     32  CB       -18.8850   10.1450  -48.8270 C.3   108  MET108      0.0387
     33  CG       -19.6730    9.0740  -48.0620 C.3   108  MET108      0.0595
     34  SD       -19.2450    8.5550  -46.3590 S.3   108  MET108     -0.1393
     35  CE       -17.7560    7.6150  -46.6730 C.3   108  MET108      0.0692
     36  N        -27.9370   12.6160  -44.9250 N.3   123  MET123     -0.1230
     37  CA       -26.9670   12.2170  -43.9320 C.3   123  MET123      0.1702
     38  C        -26.5330   13.3810  -43.0460 C.2   123  MET123      0.2592
     39  O        -26.4090   13.2210  -41.8560 O.2   123  MET123     -0.2718
     40  CB       -25.7850   11.5780  -44.5880 C.3   123  MET123      0.0401
     41  CG       -26.0940   10.1860  -45.1040 C.3   123  MET123      0.0596
     42  SD       -24.7560    9.6250  -46.1820 S.3   123  MET123     -0.1393
     43  CE       -23.4700    9.4830  -44.9550 C.3   123  MET123      0.0692
     44  N        -26.3890   14.5700  -43.6180 N.am  124  ILE124     -0.1980
     45  CA       -26.1600   15.7930  -42.8120 C.3   124  ILE124      0.1595
     46  C        -27.3560   16.0270  -41.8550 C.2   124  ILE124      0.2287
     47  O        -27.1480   16.2050  -40.6700 O.2   124  ILE124     -0.2864
     48  CB       -25.9480   17.0320  -43.7080 C.3   124  ILE124      0.0276
     49  CG1      -24.6890   16.8700  -44.6110 C.3   124  ILE124      0.0022
     50  CG2      -25.8590   18.2830  -42.8750 C.3   124  ILE124      0.0022
     51  CD1      -23.3370   16.7610  -43.9150 C.3   124  ILE124      0.0001
     52  N        -29.7180   14.0760  -40.6190 N.3   126  GLU126     -0.1231
     53  CA       -29.7840   13.0390  -39.5810 C.3   126  GLU126      0.1699
     54  C        -28.9070   13.3750  -38.4220 C.2   126  GLU126      0.2592
     55  O        -29.2880   13.1330  -37.2770 O.2   126  GLU126     -0.2718
     56  CB       -29.2100   11.7210  -40.0970 C.3   126  GLU126      0.0402
     57  CG       -30.1730   10.7450  -40.6220 C.3   126  GLU126      0.1161
     58  CD       -29.4660    9.6120  -41.3660 C.2   126  GLU126      0.3649
     59  OE1      -28.2410    9.3980  -41.1260 O.co2 126  GLU126     -0.2457
     60  OE2      -30.1560    8.9780  -42.2200 O.co2 126  GLU126     -0.2457
     61  N        -27.6710   13.8070  -38.7330 N.am  127  ALA127     -0.1980
     62  CA       -26.6920   14.0810  -37.7150 C.3   127  ALA127      0.1597
     63  C        -26.8020   15.4970  -37.1600 C.2   127  ALA127      0.2287
     64  O        -26.2300   15.8040  -36.1080 O.2   127  ALA127     -0.2864
     65  CB       -25.3020   13.8690  -38.2720 C.3   127  ALA127      0.0319
     66  N        -22.0270   19.6430  -39.6160 N.3   135  ILE135     -0.1245
     67  CA       -21.8960   18.5980  -38.5080 C.3   135  ILE135      0.1561
     68  C        -20.6720   18.9720  -37.6410 C.2   135  ILE135      0.2260
     69  O        -19.5330   18.8980  -38.1380 O.2   135  ILE135     -0.2867
     70  CB       -21.6830   17.1850  -39.0630 C.3   135  ILE135      0.0252
     71  CG1      -22.8290   16.7550  -40.0050 C.3   135  ILE135      0.0019
     72  CG2      -21.5670   16.1470  -37.9190 C.3   135  ILE135      0.0019
     73  CD1      -24.1810   16.9430  -39.3260 C.3   135  ILE135      0.0001
     74  N        -20.9310   14.6420  -34.6480 N.3   140  PHE140     -0.1241
     75  CA       -20.3150   13.5640  -35.4160 C.3   140  PHE140      0.1605
     76  C        -20.1170   12.3290  -34.5030 C.2   140  PHE140      0.2264
     77  O        -20.3640   11.1870  -34.9120 O.2   140  PHE140     -0.2867
     78  CB       -18.9890   14.0390  -36.0070 C.3   140  PHE140      0.0534
     79  CG       -18.1360   12.9500  -36.5460 C.ar  140  PHE140     -0.0203
     80  CD1      -18.3130   12.4770  -37.8200 C.ar  140  PHE140     -0.0042
     81  CD2      -17.1190   12.4100  -35.7740 C.ar  140  PHE140     -0.0042
     82  CE1      -17.4940   11.4610  -38.3400 C.ar  140  PHE140     -0.0003
     83  CE2      -16.2980   11.4310  -36.2800 C.ar  140  PHE140     -0.0003
     84  CZ       -16.4900   10.9340  -37.5500 C.ar  140  PHE140     -0.0000
     85  N        -23.7250   10.6250  -33.7740 N.3   143  VAL143     -0.1231
     86  CA       -24.2340    9.8510  -34.8630 C.3   143  VAL143      0.1692
     87  C        -23.3570    8.6670  -35.1770 C.2   143  VAL143      0.2591
     88  O        -23.8200    7.7120  -35.7340 O.2   143  VAL143     -0.2718
     89  CB       -24.5140   10.7150  -36.1080 C.3   143  VAL143      0.0266
     90  CG1      -23.2560   11.0490  -36.8660 C.3   143  VAL143      0.0020
     91  CG2      -25.5340   10.0610  -37.0050 C.3   143  VAL143      0.0020
     92  N        -22.1010    8.7220  -34.7990 N.am  144  MET144     -0.1979
     93  CA       -21.2410    7.5930  -35.0230 C.3   144  MET144      0.1605
     94  C        -21.6760    6.4900  -34.0870 C.2   144  MET144      0.2287
     95  O        -21.6910    5.3390  -34.4500 O.2   144  MET144     -0.2864
     96  CB       -19.7890    7.9310  -34.7650 C.3   144  MET144      0.0413
     97  CG       -19.0460    8.5510  -35.9250 C.3   144  MET144      0.0598
     98  SD       -18.7970    7.4820  -37.3320 S.3   144  MET144     -0.1393
     99  CE       -20.0610    8.1000  -38.3880 C.3   144  MET144      0.0692
@<TRIPOS>BOND
     1    31    30    2
     2    30    29    1
     3    29    28    1
     4    29    32    1
     5    32    33    1
     6    23    22    2
     7    33    34    1
     8    22    21    1
     9    20    21    1
    10    21    24    1
    11    35    34    1
    12    42    41    1
    13    42    43    1
    14    24    25    1
    15    25    27    1
    16    25    26    1
    17    41    40    1
    18    36    37    1
    19    49    51    1
    20    49    48    1
    21    40    37    1
    22     4     3    2
    23     9     7   ar
    24     9    11   ar
    25    37    38    1
    26     7     6   ar
    27    48    50    1
    28    48    45    1
    29    44    38   am
    30    44    45    1
    31    11    10   ar
    32     3     2    1
    33     2     1    1
    34     2     5    1
    35    38    39    2
    36    18    16    1
    37    45    46    1
    38     6     5    1
    39     6     8   ar
    40    14    15    2
    41    14    13    1
    42    60    58   ar
    43    10     8   ar
    44    13    16    1
    45    13    12    1
    46    46    47    2
    47    16    17    1
    48    58    59   ar
    49    58    57    1
    50    17    19    1
    51    57    56    1
    52    52    53    1
    53    56    53    1
    54    71    73    1
    55    71    70    1
    56    66    67    1
    57    53    54    1
    58    70    67    1
    59    70    72    1
    60    61    54   am
    61    61    62    1
    62    67    68    1
    63    54    55    2
    64    99    98    1
    65    82    80   ar
    66    82    84   ar
    67    65    62    1
    68    69    68    2
    69    80    79   ar
    70    62    63    1
    71    84    83   ar
    72    98    97    1
    73    63    64    2
    74    91    89    1
    75    90    89    1
    76    79    78    1
    77    79    81   ar
    78    83    81   ar
    79    89    86    1
    80    78    75    1
    81    97    96    1
    82    88    87    2
    83    75    74    1
    84    75    76    1
    85    87    86    1
    86    87    92   am
    87    93    92    1
    88    93    96    1
    89    93    94    1
    90    77    76    2
    91    86    85    1
    92    95    94    2
