@<TRIPOS>MOLECULE
tmp/5a2mA01.pdb
 208 206 0 0 0
SMALL
GASTEIGER

@<TRIPOS>ATOM
      1  N         80.0080   -6.3000   89.4560 N.3    43  HIS43      -0.1241
      2  CA        79.8770   -7.6750   88.9820 C.3    43  HIS43       0.1621
      3  C         79.1170   -7.7670   87.6690 C.2    43  HIS43       0.2264
      4  O         79.1600   -8.7970   87.0140 O.2    43  HIS43      -0.2867
      5  CB        79.2590   -8.6050   90.0460 C.3    43  HIS43       0.0745
      6  CG        77.7630   -8.5740   90.1020 C.ar   43  HIS43       0.0817
      7  ND1       77.0680   -7.8860   91.0720 N.ar   43  HIS43      -0.2268
      8  CD2       76.8300   -9.1290   89.2940 C.ar   43  HIS43       0.1154
      9  CE1       75.7710   -8.0400   90.8750 C.ar   43  HIS43       0.1986
     10  NE2       75.5990   -8.7770   89.7900 N.ar   43  HIS43      -0.2212
     11  N         83.1830  -10.4250   86.5340 N.3    47  TYR47      -0.1241
     12  CA        82.9290  -11.5200   87.4670 C.3    47  TYR47       0.1605
     13  C         83.5920  -12.7740   86.9160 C.2    47  TYR47       0.2264
     14  O         82.9740  -13.5700   86.2190 O.2    47  TYR47      -0.2867
     15  CB        81.4240  -11.7240   87.7160 C.3    47  TYR47       0.0534
     16  CG        81.1790  -12.5810   88.9370 C.ar   47  TYR47      -0.0201
     17  CD1       81.6230  -12.1720   90.1800 C.ar   47  TYR47      -0.0009
     18  CD2       80.5410  -13.8120   88.8430 C.ar   47  TYR47      -0.0009
     19  CE1       81.4500  -12.9680   91.2960 C.ar   47  TYR47       0.0417
     20  CE2       80.3450  -14.5970   89.9560 C.ar   47  TYR47       0.0417
     21  CZ        80.8060  -14.1780   91.1770 C.ar   47  TYR47       0.1957
     22  OH        80.6230  -14.9820   92.2860 O.3    47  TYR47      -0.2866
     23  N         82.2550  -16.4980   86.5270 N.3    50  TRP50      -0.1241
     24  CA        81.3000  -16.7540   85.4510 C.3    50  TRP50       0.1605
     25  C         81.8560  -16.3220   84.0930 C.2    50  TRP50       0.2264
     26  O         81.1050  -16.1770   83.1340 O.2    50  TRP50      -0.2867
     27  CB        79.9790  -16.0200   85.7210 C.3    50  TRP50       0.0550
     28  CG        79.2040  -16.5290   86.9040 C.ar   50  TRP50       0.0003
     29  CD1       79.4810  -17.6310   87.6590 C.ar   50  TRP50       0.0946
     30  CD2       78.0140  -15.9510   87.4600 C.ar   50  TRP50       0.0152
     31  NE1       78.5440  -17.7710   88.6550 N.ar   50  TRP50      -0.2442
     32  CE2       77.6310  -16.7530   88.5540 C.ar   50  TRP50       0.0810
     33  CE3       77.2450  -14.8300   87.1440 C.ar   50  TRP50       0.0012
     34  CZ2       76.5060  -16.4720   89.3290 C.ar   50  TRP50       0.0191
     35  CZ3       76.1260  -14.5530   87.9120 C.ar   50  TRP50       0.0001
     36  CH2       75.7670  -15.3720   88.9910 C.ar   50  TRP50       0.0015
     37  N         81.7060  -10.0970   97.1370 N.3    96  LEU96      -0.1245
     38  CA        81.2380   -8.9380   96.3700 C.3    96  LEU96       0.1561
     39  C         81.3000   -7.6330   97.1680 C.2    96  LEU96       0.2260
     40  O         80.5290   -6.7060   96.9330 O.2    96  LEU96      -0.2867
     41  CB        79.8220   -9.1650   95.8130 C.3    96  LEU96       0.0270
     42  CG        79.6680  -10.3320   94.8330 C.3    96  LEU96       0.0019
     43  CD1       78.2300  -10.4270   94.3520 C.3    96  LEU96       0.0001
     44  CD2       80.5980  -10.2300   93.6460 C.3    96  LEU96       0.0001
     45  N         62.6890  -17.0650   90.6640 N.3   146  GLU146     -0.1231
     46  CA        64.0230  -17.6540   90.7120 C.3   146  GLU146      0.1699
     47  C         64.2250  -18.7260   89.6370 C.2   146  GLU146      0.2592
     48  O         65.2730  -18.7770   88.9950 O.2   146  GLU146     -0.2718
     49  CB        64.2910  -18.2580   92.0910 C.3   146  GLU146      0.0402
     50  CG        65.6930  -18.8300   92.2270 C.3   146  GLU146      0.1161
     51  CD        65.9530  -19.4510   93.5800 C.2   146  GLU146      0.3649
     52  OE1       65.3930  -18.9740   94.5930 O.co2 146  GLU146     -0.2457
     53  OE2       66.7120  -20.4440   93.6190 O.co2 146  GLU146     -0.2457
     54  N         63.2170  -19.5700   89.4500 N.am  147  THR147     -0.1953
     55  CA        63.3230  -20.7090   88.5410 C.3   147  THR147      0.1897
     56  C         62.0710  -20.8230   87.6840 C.2   147  THR147      0.2313
     57  O         61.6090  -19.8320   87.1230 O.2   147  THR147     -0.2863
     58  CB        63.5140  -22.0290   89.3180 C.3   147  THR147      0.1794
     59  OG1       62.3910  -22.2140   90.1660 O.3   147  THR147     -0.2208
     60  CG2       64.7990  -22.0340   90.1230 C.3   147  THR147      0.0378
     61  N         72.8560  -15.8390  106.3620 N.3   170  THR170     -0.1203
     62  CA        73.8150  -16.2760  105.3530 C.3   170  THR170      0.1994
     63  C         75.1140  -16.7590  105.9820 C.2   170  THR170      0.2618
     64  O         75.4460  -16.3740  107.0970 O.2   170  THR170     -0.2717
     65  CB        74.1090  -15.1130  104.3570 C.3   170  THR170      0.1784
     66  OG1       75.0470  -15.5240  103.3540 O.3   170  THR170     -0.2211
     67  CG2       74.6580  -13.8980  105.0670 C.3   170  THR170      0.0376
     68  N         75.8590  -17.5710  105.2440 N.am  171  ARG171     -0.1965
     69  CA        77.1990  -17.9720  105.6580 C.3   171  ARG171      0.1729
     70  C         78.2560  -17.0180  105.0930 C.2   171  ARG171      0.2616
     71  O         79.4120  -17.0960  105.4750 O.2   171  ARG171     -0.2715
     72  CB        77.4880  -19.4090  105.2180 C.3   171  ARG171      0.0348
     73  CG        76.4810  -20.4070  105.7840 C.3   171  ARG171      0.0492
     74  CD        76.6740  -21.7980  105.2400 C.3   171  ARG171      0.2205
     75  NE        77.9770  -22.3520  105.5680 N.pl3 171  ARG171     -0.0865
     76  CZ        78.3010  -23.6300  105.4100 C.cat 171  ARG171      0.5346
     77  NH1       77.4150  -24.4770  104.9230 N.pl3 171  ARG171      0.1354
     78  NH2       79.5070  -24.0570  105.7420 N.pl3 171  ARG171      0.1354
     79  N         77.8550  -16.1170  104.1960 N.am  172  ILE172     -0.1977
     80  CA        78.7750  -15.1500  103.6070 C.3   172  ILE172      0.1596
     81  C         79.1300  -14.0890  104.6440 C.2   172  ILE172      0.2287
     82  O         78.2820  -13.6880  105.4540 O.2   172  ILE172     -0.2864
     83  CB        78.1400  -14.4660  102.3590 C.3   172  ILE172      0.0276
     84  CG1       77.9160  -15.4920  101.2530 C.3   172  ILE172      0.0022
     85  CG2       79.0010  -13.3000  101.8400 C.3   172  ILE172      0.0022
     86  CD1       79.1980  -16.0560  100.6580 C.3   172  ILE172      0.0001
     87  N         61.7090   -9.3260   96.0950 N.3   192  ASP192     -0.1225
     88  CA        63.1680   -9.3810   96.0420 C.3   192  ASP192      0.1805
     89  C         63.5940   -9.0060   94.6360 C.2   192  ASP192      0.2598
     90  O         62.7770   -9.0000   93.7020 O.2   192  ASP192     -0.2718
     91  CB        63.6500  -10.8080   96.3610 C.3   192  ASP192      0.1424
     92  CG        65.1510  -10.9060   96.6900 C.2   192  ASP192      0.3668
     93  OD1       65.8700   -9.8830   96.7930 O.co2 192  ASP192     -0.2456
     94  OD2       65.6080  -12.0730   96.8570 O.co2 192  ASP192     -0.2456
     95  N         64.8710   -8.6590   94.4950 N.am  193  ALA193     -0.1966
     96  CA        65.5010   -8.5950   93.1910 C.3   193  ALA193      0.1728
     97  C         65.7920  -10.0140   92.7180 C.2   193  ALA193      0.2616
     98  O         65.6880  -10.9740   93.4830 O.2   193  ALA193     -0.2715
     99  CB        66.7750   -7.7960   93.2710 C.3   193  ALA193      0.0334
    100  N         66.1520  -10.1460   91.4500 N.am  194  CYS194     -0.1954
    101  CA        66.5300  -11.4480   90.9080 C.3   194  CYS194      0.1843
    102  C         67.4870  -11.2940   89.7280 C.2   194  CYS194      0.2625
    103  O         67.9230  -10.1920   89.4310 O.2   194  CYS194     -0.2714
    104  CB        65.2740  -12.2340   90.5140 C.3   194  CYS194      0.0997
    105  SG        65.5040  -14.0370   90.4110 S.3   194  CYS194     -0.0797
    106  N         67.8300  -12.3950   89.0620 N.am  195  GLU195     -0.1977
    107  CA        68.7470  -12.3350   87.9240 C.3   195  GLU195      0.1602
    108  C         68.2920  -11.3130   86.9100 C.2   195  GLU195      0.2287
    109  O         67.1470  -11.3530   86.4700 O.2   195  GLU195     -0.2864
    110  CB        68.8070  -13.6800   87.1930 C.3   195  GLU195      0.0415
    111  CG        69.4400  -14.8040   87.9220 C.3   195  GLU195      0.1163
    112  CD        69.4950  -16.0340   87.0400 C.2   195  GLU195      0.3649
    113  OE1       70.3880  -16.1000   86.1660 O.co2 195  GLU195     -0.2457
    114  OE2       68.6190  -16.9110   87.1900 O.co2 195  GLU195     -0.2457
    115  N         70.4920   -7.0200   88.8610 N.3   198  SER198     -0.1217
    116  CA        71.8390   -6.6050   89.2680 C.3   198  SER198      0.1889
    117  C         72.2000   -5.2440   88.7260 C.2   198  SER198      0.2288
    118  O         71.9850   -4.9860   87.5570 O.2   198  SER198     -0.2866
    119  CB        72.8690   -7.5940   88.7210 C.3   198  SER198      0.2089
    120  OG        72.8350   -8.8200   89.4170 O.3   198  SER198     -0.2183
    121  N         71.6700   -2.9780   93.5620 N.3   218  VAL218     -0.1231
    122  CA        71.3580   -4.4130   93.5880 C.3   218  VAL218      0.1692
    123  C         72.6340   -5.2160   93.3930 C.2   218  VAL218      0.2593
    124  O         73.2660   -5.1370   92.3530 O.2   218  VAL218     -0.2718
    125  CB        70.3140   -4.7800   92.4890 C.3   218  VAL218      0.0266
    126  CG1       70.0280   -6.2790   92.4920 C.3   218  VAL218      0.0020
    127  CG2       69.0140   -4.0170   92.6690 C.3   218  VAL218      0.0020
    128  N         72.9970   -6.0000   94.4090 N.am  219  SER219     -0.1938
    129  CA        74.2740   -6.7120   94.4290 C.3   219  SER219      0.2055
    130  C         74.1320   -8.2400   94.4360 C.2   219  SER219      0.2643
    131  O         74.5000   -8.8830   93.4610 O.2   219  SER219     -0.2714
    132  CB        75.1490   -6.1860   95.5760 C.3   219  SER219      0.2130
    133  OG        76.4010   -6.8320   95.5980 O.3   219  SER219     -0.2179
    134  N         73.6020   -8.8150   95.5060 N.am  220  TRP220     -0.1959
    135  CA        73.5580  -10.2790   95.5850 C.3   220  TRP220      0.1771
    136  C         72.4690  -10.7950   96.4940 C.2   220  TRP220      0.2620
    137  O         71.9900  -10.0970   97.3840 O.2   220  TRP220     -0.2715
    138  CB        74.9280  -10.8470   95.9850 C.3   220  TRP220      0.0590
    139  CG        75.4400  -10.4750   97.3610 C.ar  220  TRP220      0.0006
    140  CD1       76.1660   -9.3760   97.6980 C.ar  220  TRP220      0.0946
    141  CD2       75.2960  -11.2460   98.5610 C.ar  220  TRP220      0.0152
    142  NE1       76.4760   -9.4020   99.0360 N.ar  220  TRP220     -0.2442
    143  CE2       75.9590  -10.5460   99.5890 C.ar  220  TRP220      0.0810
    144  CE3       74.6680  -12.4690   98.8660 C.ar  220  TRP220      0.0012
    145  CZ2       76.0120  -11.0190  100.9080 C.ar  220  TRP220      0.0191
    146  CZ3       74.7290  -12.9300  100.1650 C.ar  220  TRP220      0.0001
    147  CH2       75.3910  -12.2060  101.1680 C.ar  220  TRP220      0.0015
    148  N         72.0870  -12.0560   96.2580 N.am  221  GLY221     -0.1940
    149  CA        71.1240  -12.7370   97.0950 C.3   221  GLY221      0.2014
    150  C         71.4390  -14.2140   97.1000 C.2   221  GLY221      0.2639
    151  O         72.4490  -14.6130   96.5640 O.2   221  GLY221     -0.2714
    152  N         70.5990  -14.9850   97.7600 N.am  222  GLU222     -0.1963
    153  CA        70.7220  -16.4410   97.7540 C.3   222  GLU222      0.1733
    154  C         69.4070  -16.9610   97.2090 C.2   222  GLU222      0.2617
    155  O         68.4200  -17.0770   97.9130 O.2   222  GLU222     -0.2715
    156  CB        71.0600  -16.9300   99.1620 C.3   222  GLU222      0.0429
    157  CG        72.4330  -16.4070   99.5770 C.3   222  GLU222      0.1163
    158  CD        72.9410  -16.8780  100.9290 C.2   222  GLU222      0.3649
    159  OE1       72.2280  -17.5830  101.6790 O.co2 222  GLU222     -0.2457
    160  OE2       74.0980  -16.5470  101.2290 O.co2 222  GLU222     -0.2457
    161  N         69.3870  -17.1950   95.9070 N.am  223  GLY223     -0.1940
    162  CA        68.1400  -17.4110   95.2100 C.3   223  GLY223      0.2014
    163  C         67.4500  -16.0700   95.0500 C.2   223  GLY223      0.2639
    164  O         68.0940  -15.0220   95.1350 O.2   223  GLY223     -0.2714
    165  N         66.1450  -16.1100   94.8260 N.am  224  CYS224     -0.1967
    166  CA        65.3250  -14.8970   94.7240 C.3   224  CYS224      0.1712
    167  C         64.0500  -15.1090   95.5270 C.2   224  CYS224      0.2296
    168  O         63.3390  -16.0970   95.3280 O.2   224  CYS224     -0.2864
    169  CB        64.9770  -14.5790   93.2610 C.3   224  CYS224      0.0983
    170  SG        66.4020  -14.5700   92.1580 S.3   224  CYS224     -0.0798
    171  N         63.4720  -15.9510   98.5730 N.3   226  ARG226     -0.1245
    172  CA        63.3830  -17.1380   99.4320 C.3   226  ARG226      0.1563
    173  C         63.0550  -16.7290  100.8550 C.2   226  ARG226      0.2260
    174  O         63.5940  -15.7460  101.3740 O.2   226  ARG226     -0.2867
    175  CB        64.6880  -17.9240   99.4240 C.3   226  ARG226      0.0307
    176  CG        65.0040  -18.6100   98.1220 C.3   226  ARG226      0.0489
    177  CD        66.1090  -19.6260   98.3320 C.3   226  ARG226      0.2205
    178  NE        66.6630  -20.0820   97.0660 N.pl3 226  ARG226     -0.0865
    179  CZ        67.7670  -20.8090   96.9540 C.cat 226  ARG226      0.5346
    180  NH1       68.4330  -21.1900   98.0350 N.pl3 226  ARG226      0.1354
    181  NH2       68.2020  -21.1670   95.7550 N.pl3 226  ARG226      0.1354
    182  N         67.8900   -9.7000  100.1310 N.3   231  GLY231     -0.1210
    183  CA        68.7090   -9.1310   99.0930 C.3   231  GLY231      0.1956
    184  C         69.7580   -8.2350   99.7170 C.2   231  GLY231      0.2612
    185  O         69.4890   -7.5520  100.7030 O.2   231  GLY231     -0.2717
    186  N         70.9530   -8.2520   99.1430 N.am  232  PHE232     -0.1962
    187  CA        72.0570   -7.4230   99.6010 C.3   232  PHE232      0.1771
    188  C         72.3990   -6.3780   98.5520 C.2   232  PHE232      0.2619
    189  O         72.4460   -6.6460   97.3430 O.2   232  PHE232     -0.2715
    190  CB        73.2810   -8.2860   99.9440 C.3   232  PHE232      0.0574
    191  CG        73.1200   -9.0530  101.2150 C.ar  232  PHE232     -0.0200
    192  CD1       72.3630  -10.2200  101.2600 C.ar  232  PHE232     -0.0042
    193  CD2       73.6790   -8.5790  102.3980 C.ar  232  PHE232     -0.0042
    194  CE1       72.2090  -10.9100  102.4640 C.ar  232  PHE232     -0.0003
    195  CE2       73.5190   -9.2750  103.5970 C.ar  232  PHE232     -0.0003
    196  CZ        72.7790  -10.4250  103.6170 C.ar  232  PHE232     -0.0000
    197  N         72.6320   -5.1730   99.0610 N.am  233  TYR233     -0.1974
    198  CA        72.7870   -3.9660   98.2640 C.3   233  TYR233      0.1639
    199  C         74.0920   -3.2760   98.6340 C.2   233  TYR233      0.2290
    200  O         74.4360   -3.1450   99.8120 O.2   233  TYR233     -0.2864
    201  CB        71.5860   -3.0190   98.5090 C.3   233  TYR233      0.0560
    202  CG        70.2770   -3.6560   98.1200 C.ar  233  TYR233     -0.0198
    203  CD1       69.6130   -4.5230   98.9770 C.ar  233  TYR233     -0.0009
    204  CD2       69.7440   -3.4690   96.8610 C.ar  233  TYR233     -0.0009
    205  CE1       68.4420   -5.1560   98.5830 C.ar  233  TYR233      0.0417
    206  CE2       68.5960   -4.1020   96.4720 C.ar  233  TYR233      0.0417
    207  CZ        67.9400   -4.9410   97.3230 C.ar  233  TYR233      0.1957
    208  OH        66.7910   -5.5690   96.9040 O.3   233  TYR233     -0.2866
@<TRIPOS>BOND
     1    26    25    2
     2    25    24    1
     3    24    27    1
     4    24    23    1
     5    27    28    1
     6   113   112   ar
     7    14    13    2
     8   109   108    2
     9    11    12    1
    10    28    30   ar
    11    28    29   ar
    12   108   107    1
    13    13    12    1
    14     4     3    2
    15   112   114   ar
    16   112   111    1
    17    57    56    2
    18    33    30   ar
    19    33    35   ar
    20   110   111    1
    21   110   107    1
    22    30    32   ar
    23    12    15    1
    24   118   117    2
    25    29    31   ar
    26     3     2    1
    27    56    55    1
    28    15    16    1
    29    35    36   ar
    30   107   106    1
    31    55    58    1
    32    55    54    1
    33    32    31   ar
    34    32    34   ar
    35   119   116    1
    36   119   120    1
    37   117   116    1
    38    18    16   ar
    39    18    20   ar
    40   115   116    1
    41    16    17   ar
    42     2     1    1
    43     2     5    1
    44    36    34   ar
    45    48    47    2
    46   106   102   am
    47     8    10   ar
    48     8     6   ar
    49    58    60    1
    50    58    59    1
    51   103   102    2
    52    54    47   am
    53    47    46    1
    54   102   101    1
    55    10     9   ar
    56    20    21   ar
    57     5     6    1
    58     6     7   ar
    59    17    19   ar
    60   105   104    1
    61   105   170    1
    62   104   101    1
    63    45    46    1
    64    46    49    1
    65     9     7   ar
    66   101   100    1
    67    21    19   ar
    68    21    22    1
    69   100    97   am
    70    49    50    1
    71   170   169    1
    72    50    51    1
    73   124   123    2
    74   125   126    1
    75   125   127    1
    76   125   122    1
    77    97    96    1
    78    97    98    2
    79    96    99    1
    80    96    95    1
    81   169   166    1
    82   123   122    1
    83   123   128   am
    84   131   130    2
    85   121   122    1
    86    51    53   ar
    87    51    52   ar
    88    44    42    1
    89    90    89    2
    90    43    42    1
    91   128   129    1
    92   129   130    1
    93   129   132    1
    94   130   134   am
    95    95    89   am
    96    89    88    1
    97   166   165    1
    98   166   167    1
    99   165   163   am
   100    42    41    1
   101   163   164    2
   102   163   162    1
   103   162   161    1
   104   168   167    2
   105   134   135    1
   106   132   133    1
   107   135   138    1
   108   135   136    1
   109   181   179    1
   110    41    38    1
   111   161   154   am
   112   138   139    1
   113    88    87    1
   114    88    91    1
   115   148   136   am
   116   148   149    1
   117    91    92    1
   118    38    37    1
   119    38    39    1
   120   206   204   ar
   121   206   207   ar
   122   136   137    2
   123   151   150    2
   124    92    93   ar
   125    92    94   ar
   126   204   202   ar
   127   208   207    1
   128    40    39    2
   129   179   178    2
   130   179   180    1
   131   178   177    1
   132   149   150    1
   133   150   152   am
   134   154   153    1
   135   154   155    2
   136   207   205   ar
   137   189   188    2
   138   139   140   ar
   139   139   141   ar
   140   140   142   ar
   141   153   152    1
   142   153   156    1
   143   202   201    1
   144   202   203   ar
   145   176   177    1
   146   176   175    1
   147   198   201    1
   148   198   199    1
   149   198   197    1
   150   188   197   am
   151   188   187    1
   152   141   144   ar
   153   141   143   ar
   154   171   172    1
   155   205   203   ar
   156   199   200    2
   157   144   146   ar
   158   142   143   ar
   159   183   184    1
   160   183   182    1
   161   186   187    1
   162   186   184   am
   163   156   157    1
   164   175   172    1
   165   172   173    1
   166   157   158    1
   167   143   145   ar
   168   187   190    1
   169   184   185    2
   170   190   191    1
   171   146   147   ar
   172    86    84    1
   173   173   174    2
   174   145   147   ar
   175   158   160   ar
   176   158   159   ar
   177   191   192   ar
   178   191   193   ar
   179    84    83    1
   180   192   194   ar
   181    85    83    1
   182    83    80    1
   183   193   195   ar
   184   194   196   ar
   185    66    65    1
   186   195   196   ar
   187    80    79    1
   188    80    81    1
   189    79    70   am
   190    65    67    1
   191    65    62    1
   192    81    82    2
   193    77    76    1
   194    70    71    2
   195    70    69    1
   196    72    69    1
   197    72    73    1
   198    74    75    1
   199    74    73    1
   200    68    69    1
   201    68    63   am
   202    62    63    1
   203    62    61    1
   204    76    75    2
   205    76    78    1
   206    63    64    2
