@<TRIPOS>MOLECULE
tmp/5a2rA02.pdb
 94 87 0 0 0
SMALL
GASTEIGER

@<TRIPOS>ATOM
      1  N         11.1780  -17.9460    3.6820 N.3    78  ARG78      -0.1245
      2  CA        11.3380  -17.0220    2.5580 C.3    78  ARG78       0.1563
      3  C         10.5180  -17.4740    1.3430 C.2    78  ARG78       0.2260
      4  O          9.8690  -16.6600    0.6860 O.2    78  ARG78      -0.2867
      5  CB        12.8080  -16.8890    2.1940 C.3    78  ARG78       0.0307
      6  CG        13.0750  -15.8860    1.0780 C.3    78  ARG78       0.0489
      7  CD        14.5610  -15.6960    0.8860 C.3    78  ARG78       0.2205
      8  NE        14.8880  -14.7710   -0.2080 N.pl3  78  ARG78      -0.0865
      9  CZ        14.8450  -13.4360   -0.1420 C.cat  78  ARG78       0.5346
     10  NH1       14.4550  -12.8090    0.9630 N.pl3  78  ARG78       0.1354
     11  NH2       15.1800  -12.7100   -1.2080 N.pl3  78  ARG78       0.1354
     12  N          7.2770  -15.4590   -0.2930 N.3    82  ALA82      -0.1245
     13  CA         7.2810  -15.0670   -1.7170 C.3    82  ALA82       0.1562
     14  C          6.0490  -15.6090   -2.4490 C.2    82  ALA82       0.2260
     15  O          5.4680  -14.9210   -3.2860 O.2    82  ALA82      -0.2867
     16  CB         8.5640  -15.5210   -2.4040 C.3    82  ALA82       0.0290
     17  N          2.6900  -13.6600   -2.0570 N.3    85  LYS85      -0.1245
     18  CA         2.6030  -12.3640   -2.7480 C.3    85  LYS85       0.1561
     19  C          2.0030  -12.5300   -4.1390 C.2    85  LYS85       0.2260
     20  O          2.6890  -12.9460   -5.0650 O.2    85  LYS85      -0.2867
     21  CB         3.9920  -11.7250   -2.8820 C.3    85  LYS85       0.0271
     22  CG         4.6180  -11.2930   -1.5660 C.3    85  LYS85       0.0035
     23  CD         5.9390  -10.5840   -1.8160 C.3    85  LYS85       0.0206
     24  CE         6.5840  -10.1650   -0.5070 C.3    85  LYS85       0.1093
     25  NZ         8.0160   -9.7780   -0.6930 N.3    85  LYS85      -0.1314
     26  N          8.8290   -2.9060   -3.2360 N.3   189  ASP189     -0.1225
     27  CA         8.9480   -4.1670   -2.4880 C.3   189  ASP189      0.1805
     28  C         10.0280   -5.0980   -3.0270 C.2   189  ASP189      0.2597
     29  O         10.6310   -5.8390   -2.2630 O.2   189  ASP189     -0.2718
     30  CB         7.6020   -4.9170   -2.4710 C.3   189  ASP189      0.1424
     31  CG         7.6100   -6.1130   -1.5330 C.2   189  ASP189      0.3668
     32  OD1        7.8620   -5.9240   -0.3360 O.co2 189  ASP189     -0.2456
     33  OD2        7.3760   -7.2470   -1.9940 O.co2 189  ASP189     -0.2456
     34  N         10.2910   -5.0350   -4.3310 N.am  190  GLU190     -0.1979
     35  CA        11.3030   -5.8950   -4.9550 C.3   190  GLU190      0.1602
     36  C         12.7400   -5.6340   -4.4910 C.2   190  GLU190      0.2287
     37  O         13.6140   -6.4640   -4.7260 O.2   190  GLU190     -0.2864
     38  CB        11.2660   -5.7770   -6.4820 C.3   190  GLU190      0.0415
     39  CG         9.9410   -6.1320   -7.1250 C.3   190  GLU190      0.1163
     40  CD         9.4940   -7.5410   -6.8220 C.2   190  GLU190      0.3649
     41  OE1       10.3410   -8.4510   -6.7130 O.co2 190  GLU190     -0.2457
     42  OE2        8.2790   -7.7320   -6.6850 O.co2 190  GLU190     -0.2457
     43  N         13.5090   -4.9660   -1.1820 N.3   192  GLU192     -0.1245
     44  CA        13.6350   -5.4790    0.2020 C.3   192  GLU192      0.1567
     45  C         14.4250   -4.5370    1.1150 C.2   192  GLU192      0.2260
     46  O         15.3420   -4.9660    1.8340 O.2   192  GLU192     -0.2867
     47  CB        14.3120   -6.8540    0.2180 C.3   192  GLU192      0.0388
     48  CG        13.5830   -7.9630   -0.5000 C.3   192  GLU192      0.1160
     49  CD        14.2580   -9.3090   -0.2590 C.2   192  GLU192      0.3649
     50  OE1       14.1940   -9.8370    0.8650 O.co2 192  GLU192     -0.2457
     51  OE2       14.8590   -9.8460   -1.1960 O.co2 192  GLU192     -0.2457
     52  N         10.8730  -20.2460   -7.3220 N.3   367  VAL367     -0.1245
     53  CA        10.6840  -18.9160   -6.7280 C.3   367  VAL367      0.1561
     54  C         11.9760  -18.0860   -6.6370 C.2   367  VAL367      0.2260
     55  O         11.9050  -16.8650   -6.6380 O.2   367  VAL367     -0.2867
     56  CB         9.9650  -18.9220   -5.3550 C.3   367  VAL367      0.0252
     57  CG1        8.5160  -19.3710   -5.5240 C.3   367  VAL367      0.0019
     58  CG2       10.7190  -19.7430   -4.3180 C.3   367  VAL367      0.0019
     59  N         15.2830  -15.7540  -10.3170 N.3   370  THR370     -0.1203
     60  CA        15.1310  -14.3520  -10.6980 C.3   370  THR370      0.1994
     61  C         16.2830  -13.5880  -10.0400 C.2   370  THR370      0.2618
     62  O         17.0840  -14.1780   -9.2930 O.2   370  THR370     -0.2717
     63  CB        13.7390  -13.7830  -10.3390 C.3   370  THR370      0.1784
     64  OG1       13.5730  -12.5060  -10.9610 O.3   370  THR370     -0.2211
     65  CG2       13.5330  -13.6550   -8.8280 C.3   370  THR370      0.0376
     66  N         16.3930  -12.2990  -10.3340 N.am  371  GLY371     -0.1942
     67  CA        17.5360  -11.5200   -9.8880 C.3   371  GLY371      0.2014
     68  C         17.4680  -11.2420   -8.4050 C.2   371  GLY371      0.2639
     69  O         16.3790  -11.2380   -7.8130 O.2   371  GLY371     -0.2714
     70  N         18.6330  -11.0160   -7.8000 N.am  372  ALA372     -0.1963
     71  CA        18.7010  -10.6600   -6.3770 C.3   372  ALA372      0.1728
     72  C         17.8190   -9.4310   -6.1260 C.2   372  ALA372      0.2616
     73  O         17.0520   -9.3780   -5.1620 O.2   372  ALA372     -0.2715
     74  CB        20.1460  -10.4050   -5.9600 C.3   372  ALA372      0.0334
     75  N         17.9360   -8.4380   -7.0020 N.am  373  ASN373     -0.1959
     76  CA        16.8620   -7.4470   -7.2140 C.3   373  ASN373      0.1804
     77  C         16.8090   -7.1110   -8.7100 C.2   373  ASN373      0.2463
     78  O         17.6880   -7.5520   -9.4600 O.2   373  ASN373     -0.2730
     79  CB        16.9680   -6.2270   -6.2690 C.3   373  ASN373      0.1195
     80  CG        18.0570   -5.2280   -6.6500 C.2   373  ASN373      0.2630
     81  OD1       18.2590   -4.8860   -7.8200 O.2   373  ASN373     -0.2716
     82  ND2       18.7240   -4.6990   -5.6310 N.am  373  ASN373     -0.0877
     83  N         15.7650   -6.3890   -9.1580 N.am  374  PRO374     -0.2727
     84  CA        15.6430   -6.1340  -10.6020 C.3   374  PRO374      0.1402
     85  C         16.8440   -5.4200  -11.2210 C.2   374  PRO374      0.2269
     86  O         17.1870   -5.6800  -12.3820 O.2   374  PRO374     -0.2865
     87  CB        14.3740   -5.2780  -10.6960 C.3   374  PRO374      0.0296
     88  CG        13.5470   -5.7390   -9.5490 C.3   374  PRO374      0.0237
     89  CD        14.5510   -5.9620   -8.4370 C.3   374  PRO374      0.0939
     90  N         17.4550  -15.2500   -6.3290 N.3   543  ALA543     -0.1245
     91  CA        16.7740  -14.4950   -5.2750 C.3   543  ALA543      0.1562
     92  C         16.6510  -15.2520   -3.9430 C.2   543  ALA543      0.2260
     93  O         15.7640  -14.9330   -3.1290 O.2   543  ALA543     -0.2867
     94  CB        15.4020  -14.0830   -5.7650 C.3   543  ALA543      0.0290
@<TRIPOS>BOND
     1    86    85    2
     2    85    84    1
     3    64    63    1
     4    60    63    1
     5    60    59    1
     6    60    61    1
     7    87    84    1
     8    87    88    1
     9    84    83    1
    10    63    65    1
    11    66    61   am
    12    66    67    1
    13    61    62    2
    14    67    68    1
    15    88    89    1
    16    78    77    2
    17    83    77   am
    18    83    89    1
    19    77    76    1
    20    68    69    2
    21    68    70   am
    22    81    80    2
    23    70    71    1
    24    52    53    1
    25    76    75    1
    26    76    79    1
    27    39    40    1
    28    39    38    1
    29    75    72   am
    30    40    41   ar
    31    40    42   ar
    32    53    54    1
    33    53    56    1
    34    80    79    1
    35    80    82   am
    36    55    54    2
    37    38    35    1
    38    71    72    1
    39    71    74    1
    40    90    91    1
    41    72    73    2
    42    94    91    1
    43    57    56    1
    44    56    58    1
    45    91    92    1
    46    20    19    2
    47    35    36    1
    48    35    34    1
    49    37    36    2
    50    34    28   am
    51    19    18    1
    52    92    93    2
    53    15    14    2
    54    26    27    1
    55    28    27    1
    56    28    29    2
    57    21    18    1
    58    21    22    1
    59    18    17    1
    60    27    30    1
    61    30    31    1
    62    14    13    1
    63    16    13    1
    64    33    31   ar
    65    23    22    1
    66    23    24    1
    67    13    12    1
    68    31    32   ar
    69    11     9    1
    70    51    49   ar
    71    43    44    1
    72    25    24    1
    73    48    49    1
    74    48    47    1
    75    49    50   ar
    76     8     9    2
    77     8     7    1
    78     9    10    1
    79    44    47    1
    80    44    45    1
    81     4     3    2
    82     7     6    1
    83     6     5    1
    84    45    46    2
    85     3     2    1
    86     5     2    1
    87     2     1    1
