@<TRIPOS>MOLECULE
tmp/5a2rA00.pdb
 115 112 0 0 0
SMALL
GASTEIGER

@<TRIPOS>ATOM
      1  N         17.1890    9.6600  -23.6520 N.3   248  GLN248     -0.1245
      2  CA        17.6580    8.9050  -22.4860 C.3   248  GLN248      0.1566
      3  C         19.1720    8.6790  -22.5000 C.2   248  GLN248      0.2260
      4  O         19.7740    8.4640  -21.4570 O.2   248  GLN248     -0.2867
      5  CB        16.9330    7.5760  -22.3730 C.3   248  GLN248      0.0367
      6  CG        17.2790    6.5610  -23.4450 C.3   248  GLN248      0.0905
      7  CD        16.3600    5.3710  -23.3700 C.2   248  GLN248      0.2608
      8  OE1       15.1640    5.4920  -23.6010 O.2   248  GLN248     -0.2717
      9  NE2       16.9130    4.2170  -23.0070 N.am  248  GLN248     -0.0878
     10  N         11.6060   -4.4170  -29.4720 N.3   320  HIS320     -0.1226
     11  CA        12.3790   -4.0480  -28.2940 C.3   320  HIS320      0.1752
     12  C         13.1420   -5.2660  -27.7690 C.2   320  HIS320      0.2595
     13  O         12.5320   -6.2890  -27.4810 O.2   320  HIS320     -0.2718
     14  CB        11.4860   -3.4900  -27.1930 C.3   320  HIS320      0.0759
     15  CG        12.2600   -2.9610  -26.0350 C.ar  320  HIS320      0.0818
     16  ND1       12.7850   -1.6880  -26.0180 N.ar  320  HIS320     -0.2268
     17  CD2       12.6500   -3.5500  -24.8810 C.ar  320  HIS320      0.1154
     18  CE1       13.4560   -1.5110  -24.8950 C.ar  320  HIS320      0.1986
     19  NE2       13.3900   -2.6250  -24.1890 N.ar  320  HIS320     -0.2212
     20  N         14.4680   -5.1520  -27.6870 N.am  321  ALA321     -0.1980
     21  CA        15.3400   -6.2780  -27.3460 C.3   321  ALA321      0.1597
     22  C         14.9910   -6.8780  -25.9880 C.2   321  ALA321      0.2287
     23  O         14.6770   -6.1540  -25.0380 O.2   321  ALA321     -0.2864
     24  CB        16.7980   -5.8410  -27.3490 C.3   321  ALA321      0.0319
     25  N         24.1200   -3.6530  -26.6330 N.3   347  THR347     -0.1218
     26  CA        22.8110   -4.2530  -26.3480 C.3   347  THR347      0.1862
     27  C         22.8980   -5.7740  -26.3310 C.2   347  THR347      0.2287
     28  O         22.2990   -6.4110  -25.4780 O.2   347  THR347     -0.2866
     29  CB        21.7350   -3.8150  -27.3680 C.3   347  THR347      0.1770
     30  OG1       21.5570   -2.3980  -27.2780 O.3   347  THR347     -0.2211
     31  CG2       20.4080   -4.4920  -27.1000 C.3   347  THR347      0.0375
     32  N         24.3180   -6.7040  -23.0840 N.3   350  HIS350     -0.1226
     33  CA        23.2730   -6.4700  -22.0990 C.3   350  HIS350      0.1752
     34  C         22.3020   -7.6640  -22.0150 C.2   350  HIS350      0.2595
     35  O         22.0580   -8.2090  -20.9400 O.2   350  HIS350     -0.2718
     36  CB        22.5070   -5.1990  -22.4350 C.3   350  HIS350      0.0759
     37  CG        21.3520   -4.9640  -21.5300 C.ar  350  HIS350      0.0818
     38  ND1       21.4790   -4.3120  -20.3280 N.ar  350  HIS350     -0.2268
     39  CD2       20.0600   -5.3500  -21.6200 C.ar  350  HIS350      0.1154
     40  CE1       20.3040   -4.2820  -19.7240 C.ar  350  HIS350      0.1986
     41  NE2       19.4350   -4.9240  -20.4800 N.ar  350  HIS350     -0.2212
     42  N         21.7700   -8.0720  -23.1600 N.am  351  GLU351     -0.1979
     43  CA        20.8130   -9.1740  -23.2150 C.3   351  GLU351      0.1602
     44  C         21.4620  -10.5020  -22.8220 C.2   351  GLU351      0.2287
     45  O         20.8380  -11.3170  -22.1490 O.2   351  GLU351     -0.2864
     46  CB        20.1870   -9.2840  -24.6140 C.3   351  GLU351      0.0415
     47  CG        19.4250   -8.0540  -25.0990 C.3   351  GLU351      0.1163
     48  CD        18.3180   -7.6120  -24.1600 C.2   351  GLU351      0.3649
     49  OE1       17.7480   -8.4600  -23.4430 O.co2 351  GLU351     -0.2457
     50  OE2       18.0280   -6.4020  -24.1350 O.co2 351  GLU351     -0.2457
     51  N         21.6440    9.2350  -18.5450 N.3   424  PHE424     -0.1241
     52  CA        20.5490    8.2970  -18.3050 C.3   424  PHE424      0.1605
     53  C         19.9620    8.3590  -16.8800 C.2   424  PHE424      0.2264
     54  O         18.7880    8.0340  -16.6760 O.2   424  PHE424     -0.2867
     55  CB        21.0700    6.8990  -18.6150 C.3   424  PHE424      0.0534
     56  CG        20.0460    5.8230  -18.5080 C.ar  424  PHE424     -0.0203
     57  CD1       19.1520    5.6050  -19.5360 C.ar  424  PHE424     -0.0042
     58  CD2       19.9780    5.0250  -17.3700 C.ar  424  PHE424     -0.0042
     59  CE1       18.2030    4.6020  -19.4450 C.ar  424  PHE424     -0.0003
     60  CE2       19.0430    4.0170  -17.2740 C.ar  424  PHE424     -0.0003
     61  CZ        18.1470    3.8080  -18.3110 C.ar  424  PHE424     -0.0000
     62  N          7.3030    5.8300  -24.5250 N.3   478  LYS478     -0.1245
     63  CA         8.4200    5.0160  -24.0500 C.3   478  LYS478      0.1561
     64  C          7.9390    3.5830  -23.8710 C.2   478  LYS478      0.2260
     65  O          6.9240    3.3460  -23.2050 O.2   478  LYS478     -0.2867
     66  CB         8.9620    5.5730  -22.7270 C.3   478  LYS478      0.0271
     67  CG        10.1280    4.8120  -22.1050 C.3   478  LYS478      0.0035
     68  CD        11.3320    4.7340  -23.0320 C.3   478  LYS478      0.0206
     69  CE        12.4600    3.9140  -22.4400 C.3   478  LYS478      0.1093
     70  NZ        13.4210    3.4710  -23.4850 N.3   478  LYS478     -0.1314
     71  N          8.6500    0.9450  -22.1300 N.3   480  HIS480     -0.1241
     72  CA         8.4600    0.3470  -20.8010 C.3   480  HIS480      0.1621
     73  C          7.1980    0.8720  -20.1170 C.2   480  HIS480      0.2264
     74  O          6.6220    0.2020  -19.2520 O.2   480  HIS480     -0.2867
     75  CB         9.6700    0.6240  -19.9110 C.3   480  HIS480      0.0745
     76  CG        10.9370    0.0300  -20.4310 C.ar  480  HIS480      0.0817
     77  ND1       11.5820    0.5130  -21.5470 N.ar  480  HIS480     -0.2268
     78  CD2       11.6610   -1.0310  -20.0090 C.ar  480  HIS480      0.1154
     79  CE1       12.6500   -0.2220  -21.7900 C.ar  480  HIS480      0.1986
     80  NE2       12.7180   -1.1680  -20.8750 N.ar  480  HIS480     -0.2212
     81  N         10.9530    0.6960  -14.1910 N.3   487  TYR487     -0.1241
     82  CA        12.1530    1.3310  -14.7420 C.3   487  TYR487      0.1605
     83  C         13.2490    1.6650  -13.7240 C.2   487  TYR487      0.2264
     84  O         14.4010    1.8910  -14.1120 O.2   487  TYR487     -0.2867
     85  CB        11.7860    2.5970  -15.5390 C.3   487  TYR487      0.0534
     86  CG        12.7020    2.8070  -16.7150 C.ar  487  TYR487     -0.0201
     87  CD1       12.4950    2.1070  -17.9020 C.ar  487  TYR487     -0.0009
     88  CD2       13.7980    3.6620  -16.6350 C.ar  487  TYR487     -0.0009
     89  CE1       13.3450    2.2610  -18.9810 C.ar  487  TYR487      0.0417
     90  CE2       14.6610    3.8250  -17.7100 C.ar  487  TYR487      0.0417
     91  CZ        14.4260    3.1260  -18.8830 C.ar  487  TYR487      0.1957
     92  OH        15.2690    3.2770  -19.9660 O.3   487  TYR487     -0.2866
     93  N         16.7360    0.1050  -13.9210 N.3   490  TYR490     -0.1241
     94  CA        17.7970    0.6630  -14.7810 C.3   490  TYR490      0.1605
     95  C         18.5980    1.7530  -14.0660 C.2   490  TYR490      0.2264
     96  O         19.8130    1.8580  -14.2560 O.2   490  TYR490     -0.2867
     97  CB        17.2310    1.1810  -16.1050 C.3   490  TYR490      0.0534
     98  CG        16.5160    0.1330  -16.9060 C.ar  490  TYR490     -0.0201
     99  CD1       17.2280   -0.8410  -17.6090 C.ar  490  TYR490     -0.0009
    100  CD2       15.1220    0.0910  -16.9580 C.ar  490  TYR490     -0.0009
    101  CE1       16.5650   -1.8180  -18.3410 C.ar  490  TYR490      0.0417
    102  CE2       14.4600   -0.8870  -17.6950 C.ar  490  TYR490      0.0417
    103  CZ        15.1850   -1.8410  -18.3790 C.ar  490  TYR490      0.1957
    104  OH        14.5250   -2.8190  -19.1170 O.3   490  TYR490     -0.2866
    105  N         22.5540    1.2100  -13.3340 N.3   494  PHE494     -0.1241
    106  CA        23.5920    2.1410  -13.8010 C.3   494  PHE494      0.1605
    107  C         24.5040    2.5780  -12.6510 C.2   494  PHE494      0.2264
    108  O         25.6580    2.9310  -12.8870 O.2   494  PHE494     -0.2867
    109  CB        22.9860    3.3390  -14.5600 C.3   494  PHE494      0.0534
    110  CG        22.7450    3.0710  -16.0300 C.ar  494  PHE494     -0.0203
    111  CD1       22.1150    1.9010  -16.4580 C.ar  494  PHE494     -0.0042
    112  CD2       23.1450    3.9860  -16.9880 C.ar  494  PHE494     -0.0042
    113  CE1       21.8860    1.6600  -17.8120 C.ar  494  PHE494     -0.0003
    114  CE2       22.9210    3.7550  -18.3340 C.ar  494  PHE494     -0.0003
    115  CZ        22.2910    2.5930  -18.7500 C.ar  494  PHE494     -0.0000
@<TRIPOS>BOND
     1    10    11    1
     2    11    12    1
     3    11    14    1
     4    12    20   am
     5    12    13    2
     6    20    21    1
     7    29    30    1
     8    29    31    1
     9    29    26    1
    10    24    21    1
    11    21    22    1
    12    14    15    1
    13    25    26    1
    14    26    27    1
    15    27    28    2
    16    15    16   ar
    17    15    17   ar
    18    16    18   ar
    19    22    23    2
    20    47    46    1
    21    47    48    1
    22    18    19   ar
    23    17    19   ar
    24    46    43    1
    25    62    63    1
    26    48    50   ar
    27    48    49   ar
    28    63    64    1
    29    63    66    1
    30    64    65    2
    31     1     2    1
    32     8     7    2
    33    70    69    1
    34     6     7    1
    35     6     5    1
    36     7     9   am
    37    43    42    1
    38    43    44    1
    39    42    34   am
    40    32    33    1
    41    68    69    1
    42    68    67    1
    43    44    45    2
    44    66    67    1
    45     3     2    1
    46     3     4    2
    47     2     5    1
    48    36    33    1
    49    36    37    1
    50    71    72    1
    51    33    34    1
    52    34    35    2
    53    79    77   ar
    54    79    80   ar
    55    39    37   ar
    56    39    41   ar
    57    77    76   ar
    58    37    38   ar
    59    80    78   ar
    60    72    73    1
    61    72    75    1
    62    41    40   ar
    63    76    78   ar
    64    76    75    1
    65    38    40   ar
    66    73    74    2
    67    92    91    1
    68    57    59   ar
    69    57    56   ar
    70    59    61   ar
    71   104   103    1
    72    89    91   ar
    73    89    87   ar
    74    91    90   ar
    75   115   114   ar
    76   115   113   ar
    77    55    56    1
    78    55    52    1
    79    51    52    1
    80    56    58   ar
    81   103   101   ar
    82   103   102   ar
    83   101    99   ar
    84   114   112   ar
    85    61    60   ar
    86    52    53    1
    87    87    86   ar
    88   113   111   ar
    89    90    88   ar
    90   102   100   ar
    91    99    98   ar
    92    58    60   ar
    93   112   110   ar
    94   100    98   ar
    95    98    97    1
    96    53    54    2
    97    86    88   ar
    98    86    85    1
    99   111   110   ar
   100    97    94    1
   101   110   109    1
   102    85    82    1
   103    94    95    1
   104    94    93    1
   105    82    81    1
   106    82    83    1
   107   109   106    1
   108    96    95    2
   109    84    83    2
   110   106   105    1
   111   106   107    1
   112   108   107    2
