@<TRIPOS>MOLECULE
tmp/5a2wA01.pdb
 168 157 0 0 0
SMALL
GASTEIGER

@<TRIPOS>ATOM
      1  N         28.8490  -22.8520  -43.7410 N.3   174  PHE174     -0.1227
      2  CA        28.4140  -22.8200  -45.1310 C.3   174  PHE174      0.1736
      3  C         29.6290  -22.8930  -46.0590 C.2   174  PHE174      0.2596
      4  O         30.7670  -23.0840  -45.6020 O.2   174  PHE174     -0.2718
      5  CB        27.5330  -21.5820  -45.3980 C.3   174  PHE174      0.0547
      6  CG        28.2640  -20.2660  -45.3100 C.ar  174  PHE174     -0.0202
      7  CD1       28.7000  -19.7720  -44.0840 C.ar  174  PHE174     -0.0042
      8  CD2       28.4920  -19.5070  -46.4510 C.ar  174  PHE174     -0.0042
      9  CE1       29.3690  -18.5580  -44.0010 C.ar  174  PHE174     -0.0003
     10  CE2       29.1620  -18.2940  -46.3760 C.ar  174  PHE174     -0.0003
     11  CZ        29.6050  -17.8200  -45.1510 C.ar  174  PHE174     -0.0000
     12  N         29.3920  -22.7680  -47.3610 N.am  175  GLY175     -0.1942
     13  CA        30.4790  -22.7800  -48.3270 C.3   175  GLY175      0.2014
     14  C         31.0680  -24.1600  -48.5240 C.2   175  GLY175      0.2639
     15  O         30.3820  -25.1680  -48.3440 O.2   175  GLY175     -0.2714
     16  N         32.3480  -24.2110  -48.8800 N.am  176  SER176     -0.1949
     17  CA        32.9840  -25.4800  -49.2710 C.3   176  SER176      0.1924
     18  C         32.9270  -26.5630  -48.1840 C.2   176  SER176      0.2314
     19  O         32.9230  -27.7540  -48.4980 O.2   176  SER176     -0.2863
     20  CB        34.4310  -25.2510  -49.7080 C.3   176  SER176      0.2116
     21  OG        35.2270  -24.8400  -48.6190 O.3   176  SER176     -0.2180
     22  N         29.1680  -28.0550  -48.9110 N.3   179  ASN179     -0.1240
     23  CA        28.5590  -28.1830  -50.2460 C.3   179  ASN179      0.1653
     24  C         29.1160  -29.3420  -51.0850 C.2   179  ASN179      0.2266
     25  O         28.9000  -29.3830  -52.2890 O.2   179  ASN179     -0.2867
     26  CB        28.6840  -26.8640  -51.0140 C.3   179  ASN179      0.1155
     27  CG        30.1200  -26.5070  -51.3380 C.2   179  ASN179      0.2627
     28  OD1       31.0140  -27.3460  -51.2410 O.2   179  ASN179     -0.2716
     29  ND2       30.3510  -25.2500  -51.7070 N.am  179  ASN179     -0.0877
     30  N         32.0210  -29.9240  -52.1260 N.3   181  PHE181     -0.1241
     31  CA        33.2120  -29.5630  -52.8870 C.3   181  PHE181      0.1605
     32  C         34.3840  -29.1730  -51.9980 C.2   181  PHE181      0.2264
     33  O         35.3870  -28.6490  -52.4900 O.2   181  PHE181     -0.2867
     34  CB        32.8920  -28.4340  -53.8680 C.3   181  PHE181      0.0534
     35  CG        31.8720  -28.8170  -54.8990 C.ar  181  PHE181     -0.0203
     36  CD1       32.2250  -29.6130  -55.9720 C.ar  181  PHE181     -0.0042
     37  CD2       30.5580  -28.4080  -54.7800 C.ar  181  PHE181     -0.0042
     38  CE1       31.2830  -29.9830  -56.9160 C.ar  181  PHE181     -0.0003
     39  CE2       29.6150  -28.7720  -55.7200 C.ar  181  PHE181     -0.0003
     40  CZ        29.9780  -29.5570  -56.7940 C.ar  181  PHE181     -0.0000
     41  N         37.7170  -29.5210  -49.7040 N.3   183  LYS183     -0.1245
     42  CA        38.9420  -30.3060  -49.6940 C.3   183  LYS183      0.1561
     43  C         39.6720  -30.0950  -48.3780 C.2   183  LYS183      0.2260
     44  O         39.5090  -29.0620  -47.7240 O.2   183  LYS183     -0.2867
     45  CB        39.8530  -29.9090  -50.8590 C.3   183  LYS183      0.0271
     46  CG        40.2120  -28.4330  -50.8990 C.3   183  LYS183      0.0035
     47  CD        41.5150  -28.1770  -51.6330 C.3   183  LYS183      0.0206
     48  CE        41.8530  -26.6940  -51.6360 C.3   183  LYS183      0.1093
     49  NZ        43.2810  -26.4610  -51.9930 N.3   183  LYS183     -0.1314
     50  N         40.8960  -26.5950  -46.4260 N.3   186  CYS186     -0.1221
     51  CA        40.0920  -25.4130  -46.7420 C.3   186  CYS186      0.1808
     52  C         39.5250  -24.7920  -45.4610 C.2   186  CYS186      0.2601
     53  O         39.3890  -25.4590  -44.4370 O.2   186  CYS186     -0.2717
     54  CB        38.9720  -25.7480  -47.7330 C.3   186  CYS186      0.0970
     55  SG        37.6020  -26.6900  -47.0380 S.3   186  CYS186     -0.0800
     56  N         39.2190  -23.5020  -45.5260 N.am  187  ASP187     -0.1973
     57  CA        38.7830  -22.7490  -44.3500 C.3   187  ASP187      0.1709
     58  C         37.3340  -23.0910  -43.9930 C.2   187  ASP187      0.2293
     59  O         36.6010  -23.6780  -44.7980 O.2   187  ASP187     -0.2864
     60  CB        39.0010  -21.2450  -44.5800 C.3   187  ASP187      0.1436
     61  CG        40.4610  -20.9130  -44.9230 C.2   187  ASP187      0.3671
     62  OD1       41.2950  -21.8480  -44.9730 O.co2 187  ASP187     -0.2456
     63  OD2       40.7800  -19.7240  -45.1510 O.co2 187  ASP187     -0.2456
     64  N         33.8210  -21.5340  -43.1750 N.3   189  ASP189     -0.1239
     65  CA        33.0070  -20.3230  -43.2470 C.3   189  ASP189      0.1674
     66  C         31.7890  -20.5130  -42.3500 C.2   189  ASP189      0.2266
     67  O         30.9900  -21.4230  -42.5680 O.2   189  ASP189     -0.2867
     68  CB        32.5730  -20.0570  -44.6880 C.3   189  ASP189      0.1410
     69  CG        33.7520  -19.9000  -45.6350 C.2   189  ASP189      0.3668
     70  OD1       34.6230  -19.0240  -45.3770 O.co2 189  ASP189     -0.2456
     71  OD2       33.7970  -20.6620  -46.6350 O.co2 189  ASP189     -0.2456
     72  N         31.1060   -4.8680  -46.5260 N.3   244  ARG244     -0.1245
     73  CA        29.6970   -4.9240  -46.9460 C.3   244  ARG244      0.1563
     74  C         28.9280   -5.9750  -46.1390 C.2   244  ARG244      0.2260
     75  O         27.7340   -5.8120  -45.8780 O.2   244  ARG244     -0.2867
     76  CB        29.5840   -5.2200  -48.4470 C.3   244  ARG244      0.0307
     77  CG        28.1110   -5.2360  -48.8890 C.3   244  ARG244      0.0489
     78  CD        27.9350   -5.5970  -50.3220 C.3   244  ARG244      0.2205
     79  NE        28.5760   -6.8760  -50.6820 N.pl3 244  ARG244     -0.0865
     80  CZ        27.9620   -8.0560  -50.5170 C.cat 244  ARG244      0.5346
     81  NH1       26.7460   -8.0870  -49.9920 N.pl3 244  ARG244      0.1354
     82  NH2       28.5700   -9.1740  -50.8550 N.pl3 244  ARG244      0.1354
     83  N         21.3140  -16.1330  -47.8290 N.3   267  ILE267     -0.1231
     84  CA        21.4860  -16.3630  -49.2630 C.3   267  ILE267      0.1692
     85  C         22.5940  -17.3870  -49.5100 C.2   267  ILE267      0.2591
     86  O         22.3750  -18.4070  -50.1700 O.2   267  ILE267     -0.2718
     87  CB        21.8310  -15.0470  -50.0020 C.3   267  ILE267      0.0266
     88  CG1       20.6580  -14.0550  -49.9320 C.3   267  ILE267      0.0019
     89  CG2       22.2150  -15.3170  -51.4510 C.3   267  ILE267      0.0020
     90  CD1       19.4200  -14.4650  -50.7090 C.3   267  ILE267      0.0001
     91  N         23.7760  -17.1150  -48.9610 N.am  268  ALA268     -0.1980
     92  CA        24.9330  -18.0000  -49.1140 C.3   268  ALA268      0.1597
     93  C         24.6450  -19.4490  -48.6880 C.2   268  ALA268      0.2287
     94  O         25.2740  -20.3810  -49.1960 O.2   268  ALA268     -0.2864
     95  CB        26.1220  -17.4460  -48.3430 C.3   268  ALA268      0.0319
     96  N         22.7560  -20.9760  -51.5820 N.3   271  CYS271     -0.1221
     97  CA        23.7960  -21.2630  -52.5580 C.3   271  CYS271      0.1808
     98  C         24.5690  -22.5370  -52.2030 C.2   271  CYS271      0.2601
     99  O         24.8510  -23.3640  -53.0660 O.2   271  CYS271     -0.2717
    100  CB        24.7550  -20.0800  -52.6620 C.3   271  CYS271      0.0970
    101  SG        25.9390  -20.2560  -53.9950 S.3   271  CYS271     -0.0800
    102  N         24.9020  -22.6920  -50.9260 N.am  272  SER272     -0.1952
    103  CA        25.5720  -23.8990  -50.4500 C.3   272  SER272      0.1924
    104  C         24.7130  -25.1460  -50.6770 C.2   272  SER272      0.2314
    105  O         25.2370  -26.2100  -51.0140 O.2   272  SER272     -0.2863
    106  CB        25.9480  -23.7550  -48.9750 C.3   272  SER272      0.2116
    107  OG        26.8290  -22.6540  -48.7910 O.3   272  SER272     -0.2180
    108  N         24.7890  -26.0070  -54.6230 N.3   275  LEU275     -0.1245
    109  CA        25.9990  -26.7370  -54.9520 C.3   275  LEU275      0.1561
    110  C         25.9870  -28.1300  -54.3430 C.2   275  LEU275      0.2260
    111  O         26.5530  -29.0590  -54.9130 O.2   275  LEU275     -0.2867
    112  CB        27.2350  -25.9560  -54.4990 C.3   275  LEU275      0.0270
    113  CG        27.4690  -24.6470  -55.2610 C.3   275  LEU275      0.0019
    114  CD1       28.6080  -23.8540  -54.6460 C.3   275  LEU275      0.0001
    115  CD2       27.7470  -24.9080  -56.7320 C.3   275  LEU275      0.0001
    116  N         39.8950  -26.9820  -60.1470 N.3   293  ARG293     -0.1245
    117  CA        40.3110  -26.1170  -59.0430 C.3   293  ARG293      0.1563
    118  C         41.7890  -26.3180  -58.7230 C.2   293  ARG293      0.2260
    119  O         42.4960  -25.3590  -58.4270 O.2   293  ARG293     -0.2867
    120  CB        39.4420  -26.3840  -57.8100 C.3   293  ARG293      0.0307
    121  CG        39.8650  -25.6540  -56.5550 C.3   293  ARG293      0.0489
    122  CD        38.7410  -25.5320  -55.5200 C.3   293  ARG293      0.2205
    123  NE        37.7860  -26.6230  -55.2770 N.pl3 293  ARG293     -0.0865
    124  CZ        37.9800  -27.7160  -54.5370 C.cat 293  ARG293      0.5346
    125  NH1       39.1520  -27.9850  -53.9770 N.pl3 293  ARG293      0.1354
    126  NH2       36.9710  -28.5720  -54.3960 N.pl3 293  ARG293      0.1354
    127  N         38.1650  -16.5740  -58.1590 N.3   311  THR311     -0.1203
    128  CA        38.0470  -17.3270  -56.9210 C.3   311  THR311      0.1994
    129  C         37.5840  -18.7400  -57.2240 C.2   311  THR311      0.2618
    130  O         36.9000  -18.9810  -58.2200 O.2   311  THR311     -0.2717
    131  CB        37.0350  -16.6870  -55.9480 C.3   311  THR311      0.1784
    132  OG1       35.7320  -16.6720  -56.5460 O.3   311  THR311     -0.2211
    133  CG2       37.4530  -15.2710  -55.5890 C.3   311  THR311      0.0376
    134  N         37.9530  -19.6710  -56.3480 N.am  312  ASN312     -0.1960
    135  CA        37.4640  -21.0380  -56.4350 C.3   312  ASN312      0.1819
    136  C         35.9550  -21.0600  -56.6100 C.2   312  ASN312      0.2621
    137  O         35.4370  -21.7990  -57.4370 O.2   312  ASN312     -0.2715
    138  CB        37.8540  -21.8310  -55.1870 C.3   312  ASN312      0.1195
    139  CG        39.3300  -22.1650  -55.1440 C.2   312  ASN312      0.2630
    140  OD1       39.9990  -22.2120  -56.1740 O.2   312  ASN312     -0.2716
    141  ND2       39.8470  -22.4020  -53.9450 N.am  312  ASN312     -0.0877
    142  N         35.2540  -20.2330  -55.8430 N.am  313  PHE313     -0.1974
    143  CA        33.8010  -20.1920  -55.9230 C.3   313  PHE313      0.1639
    144  C         33.3140  -19.7410  -57.3030 C.2   313  PHE313      0.2290
    145  O         32.4120  -20.3490  -57.8690 O.2   313  PHE313     -0.2864
    146  CB        33.2070  -19.2890  -54.8360 C.3   313  PHE313      0.0560
    147  CG        31.7190  -19.1480  -54.9400 C.ar  313  PHE313     -0.0200
    148  CD1       30.8960  -20.2320  -54.6850 C.ar  313  PHE313     -0.0042
    149  CD2       31.1430  -17.9500  -55.3340 C.ar  313  PHE313     -0.0042
    150  CE1       29.5250  -20.1210  -54.8060 C.ar  313  PHE313     -0.0003
    151  CE2       29.7690  -17.8290  -55.4490 C.ar  313  PHE313     -0.0003
    152  CZ        28.9580  -18.9160  -55.1880 C.ar  313  PHE313     -0.0000
    153  N         24.9640  -13.7450  -60.3830 N.3   413  ASN413     -0.1240
    154  CA        24.5650  -14.2560  -59.0810 C.3   413  ASN413      0.1653
    155  C         23.1470  -14.7980  -59.2280 C.2   413  ASN413      0.2266
    156  O         22.2300  -14.0450  -59.5390 O.2   413  ASN413     -0.2867
    157  CB        24.6190  -13.1570  -58.0190 C.3   413  ASN413      0.1155
    158  CG        24.4900  -13.6980  -56.6020 C.2   413  ASN413      0.2627
    159  OD1       23.6530  -14.5600  -56.3250 O.2   413  ASN413     -0.2716
    160  ND2       25.3190  -13.1900  -55.6960 N.am  413  ASN413     -0.0877
    161  N         29.1560  -12.0670  -59.4920 N.3   421  ILE421     -0.1245
    162  CA        29.9360  -12.7720  -58.4740 C.3   421  ILE421      0.1561
    163  C         31.4430  -12.7070  -58.7450 C.2   421  ILE421      0.2260
    164  O         32.2420  -12.9460  -57.8410 O.2   421  ILE421     -0.2867
    165  CB        29.4790  -14.2400  -58.2820 C.3   421  ILE421      0.0252
    166  CG1       29.7960  -15.1000  -59.5050 C.3   421  ILE421      0.0019
    167  CG2       27.9860  -14.3050  -57.9850 C.3   421  ILE421      0.0019
    168  CD1       29.5270  -16.5740  -59.2810 C.3   421  ILE421      0.0001
@<TRIPOS>BOND
     1   153   154    1
     2   116   117    1
     3   156   155    2
     4   166   168    1
     5   166   165    1
     6   161   162    1
     7   155   154    1
     8   154   157    1
     9   117   118    1
    10   117   120    1
    11   163   162    1
    12   163   164    2
    13   118   119    2
    14   162   165    1
    15   165   167    1
    16   130   129    2
    17   127   128    1
    18   157   158    1
    19   145   144    2
    20   120   121    1
    21   137   136    2
    22   144   143    1
    23   129   128    1
    24   129   134   am
    25   128   131    1
    26    38    40   ar
    27    38    36   ar
    28    40    39   ar
    29   115   113    1
    30   136   135    1
    31   136   142   am
    32   158   159    2
    33   158   160   am
    34   121   122    1
    35   132   131    1
    36   135   134    1
    37   135   138    1
    38   140   139    2
    39    36    35   ar
    40   131   133    1
    41   143   142    1
    42   143   146    1
    43    39    37   ar
    44   122   123    1
    45   151   149   ar
    46   151   152   ar
    47   149   147   ar
    48   123   124    2
    49   113   114    1
    50   113   112    1
    51   152   150   ar
    52   138   139    1
    53   139   141   am
    54   109   108    1
    55   109   112    1
    56   109   110    1
    57   147   146    1
    58   147   148   ar
    59   111   110    2
    60    35    37   ar
    61    35    34    1
    62   150   148   ar
    63   124   126    1
    64   124   125    1
    65   101   100    1
    66    34    31    1
    67    99    98    2
    68    31    30    1
    69    31    32    1
    70   100    97    1
    71    97    98    1
    72    97    96    1
    73    33    32    2
    74    25    24    2
    75    98   102   am
    76    49    48    1
    77    29    27   am
    78    48    47    1
    79    47    46    1
    80    89    87    1
    81    27    28    2
    82    27    26    1
    83    24    23    1
    84   105   104    2
    85    26    23    1
    86   102   103    1
    87    46    45    1
    88    45    42    1
    89    82    80    1
    90    90    88    1
    91    79    80    2
    92    79    78    1
    93   104   103    1
    94    80    81    1
    95   103   106    1
    96    78    77    1
    97    23    22    1
    98    86    85    2
    99    87    88    1
   100    87    84    1
   101    20    17    1
   102    20    21    1
   103    41    42    1
   104    42    43    1
   105    85    84    1
   106    85    91   am
   107    17    16    1
   108    17    18    1
   109    84    83    1
   110    94    93    2
   111    92    91    1
   112    92    93    1
   113    92    95    1
   114   106   107    1
   115    77    76    1
   116    16    14   am
   117    14    15    2
   118    14    13    1
   119    19    18    2
   120    76    73    1
   121    43    44    2
   122    13    12    1
   123    54    55    1
   124    54    51    1
   125    12     3   am
   126    73    72    1
   127    73    74    1
   128    51    50    1
   129    51    52    1
   130    71    69   ar
   131     8    10   ar
   132     8     6   ar
   133    10    11   ar
   134    74    75    2
   135     3     4    2
   136     3     2    1
   137    69    70   ar
   138    69    68    1
   139    56    52   am
   140    56    57    1
   141    52    53    2
   142     5     6    1
   143     5     2    1
   144     6     7   ar
   145    63    61   ar
   146    11     9   ar
   147     2     1    1
   148    62    61   ar
   149    61    60    1
   150    59    58    2
   151    68    65    1
   152    60    57    1
   153    57    58    1
   154     7     9   ar
   155    65    64    1
   156    65    66    1
   157    67    66    2
