@<TRIPOS>MOLECULE
tmp/5a2wA00.pdb
 82 75 0 0 0
SMALL
GASTEIGER

@<TRIPOS>ATOM
      1  N         28.8490  -22.8520  -43.7410 N.3   174  PHE174     -0.1241
      2  CA        28.4140  -22.8200  -45.1310 C.3   174  PHE174      0.1605
      3  C         29.6290  -22.8930  -46.0590 C.2   174  PHE174      0.2264
      4  O         30.7670  -23.0840  -45.6020 O.2   174  PHE174     -0.2867
      5  CB        27.5330  -21.5820  -45.3980 C.3   174  PHE174      0.0534
      6  CG        28.2640  -20.2660  -45.3100 C.ar  174  PHE174     -0.0203
      7  CD1       28.7000  -19.7720  -44.0840 C.ar  174  PHE174     -0.0042
      8  CD2       28.4920  -19.5070  -46.4510 C.ar  174  PHE174     -0.0042
      9  CE1       29.3690  -18.5580  -44.0010 C.ar  174  PHE174     -0.0003
     10  CE2       29.1620  -18.2940  -46.3760 C.ar  174  PHE174     -0.0003
     11  CZ        29.6050  -17.8200  -45.1510 C.ar  174  PHE174     -0.0000
     12  N         31.1060   -4.8680  -46.5260 N.3   244  ARG244     -0.1231
     13  CA        29.6970   -4.9240  -46.9460 C.3   244  ARG244      0.1694
     14  C         28.9280   -5.9750  -46.1390 C.2   244  ARG244      0.2592
     15  O         27.7340   -5.8120  -45.8780 O.2   244  ARG244     -0.2718
     16  CB        29.5840   -5.2200  -48.4470 C.3   244  ARG244      0.0321
     17  CG        28.1110   -5.2360  -48.8890 C.3   244  ARG244      0.0489
     18  CD        27.9350   -5.5970  -50.3220 C.3   244  ARG244      0.2205
     19  NE        28.5760   -6.8760  -50.6820 N.pl3 244  ARG244     -0.0865
     20  CZ        27.9620   -8.0560  -50.5170 C.cat 244  ARG244      0.5346
     21  NH1       26.7460   -8.0870  -49.9920 N.pl3 244  ARG244      0.1354
     22  NH2       28.5700   -9.1740  -50.8550 N.pl3 244  ARG244      0.1354
     23  N         29.6280   -7.0530  -45.7750 N.am  245  CYS245     -0.1970
     24  CA        29.1090   -8.0640  -44.8580 C.3   245  CYS245      0.1712
     25  C         30.0820   -8.2190  -43.6840 C.2   245  CYS245      0.2296
     26  O         31.1190   -8.8770  -43.8140 O.2   245  CYS245     -0.2864
     27  CB        28.9110   -9.3950  -45.5810 C.3   245  CYS245      0.0983
     28  SG        27.3490   -9.5030  -46.4960 S.3   245  CYS245     -0.0798
     29  N         24.0120  -14.5560  -43.4160 N.3   265  ASN265     -0.1240
     30  CA        23.9430  -14.6870  -44.8730 C.3   265  ASN265      0.1653
     31  C         23.0470  -15.8810  -45.1690 C.2   265  ASN265      0.2266
     32  O         23.5360  -16.9940  -45.3580 O.2   265  ASN265     -0.2867
     33  CB        25.2920  -14.8910  -45.6060 C.3   265  ASN265      0.1155
     34  CG        26.5240  -14.6220  -44.7540 C.2   265  ASN265      0.2627
     35  OD1       27.1970  -13.6180  -44.9560 O.2   265  ASN265     -0.2716
     36  ND2       26.8700  -15.5480  -43.8600 N.am  265  ASN265     -0.0877
     37  N         21.3140  -16.1330  -47.8290 N.3   267  ILE267     -0.1231
     38  CA        21.4860  -16.3630  -49.2630 C.3   267  ILE267      0.1692
     39  C         22.5940  -17.3870  -49.5100 C.2   267  ILE267      0.2591
     40  O         22.3750  -18.4070  -50.1700 O.2   267  ILE267     -0.2718
     41  CB        21.8310  -15.0470  -50.0020 C.3   267  ILE267      0.0266
     42  CG1       20.6580  -14.0550  -49.9320 C.3   267  ILE267      0.0019
     43  CG2       22.2150  -15.3170  -51.4510 C.3   267  ILE267      0.0020
     44  CD1       19.4200  -14.4650  -50.7090 C.3   267  ILE267      0.0001
     45  N         23.7760  -17.1150  -48.9610 N.am  268  ALA268     -0.1980
     46  CA        24.9330  -18.0000  -49.1140 C.3   268  ALA268      0.1597
     47  C         24.6450  -19.4490  -48.6880 C.2   268  ALA268      0.2287
     48  O         25.2740  -20.3810  -49.1960 O.2   268  ALA268     -0.2864
     49  CB        26.1220  -17.4460  -48.3430 C.3   268  ALA268      0.0319
     50  N         24.9640  -13.7450  -60.3830 N.3   413  ASN413     -0.1240
     51  CA        24.5650  -14.2560  -59.0810 C.3   413  ASN413      0.1653
     52  C         23.1470  -14.7980  -59.2280 C.2   413  ASN413      0.2266
     53  O         22.2300  -14.0450  -59.5390 O.2   413  ASN413     -0.2867
     54  CB        24.6190  -13.1570  -58.0190 C.3   413  ASN413      0.1155
     55  CG        24.4900  -13.6980  -56.6020 C.2   413  ASN413      0.2627
     56  OD1       23.6530  -14.5600  -56.3250 O.2   413  ASN413     -0.2716
     57  ND2       25.3190  -13.1900  -55.6960 N.am  413  ASN413     -0.0877
     58  N         20.7970  -13.1380  -55.7640 N.3   416  GLU416     -0.1245
     59  CA        20.8380  -11.6710  -55.7900 C.3   416  GLU416      0.1567
     60  C         21.1880  -11.2070  -57.2060 C.2   416  GLU416      0.2260
     61  O         22.3170  -10.8010  -57.4710 O.2   416  GLU416     -0.2867
     62  CB        21.8600  -11.1310  -54.7820 C.3   416  GLU416      0.0388
     63  CG        21.3090  -11.1560  -53.3380 C.3   416  GLU416      0.1160
     64  CD        22.3960  -10.8460  -52.3330 C.2   416  GLU416      0.3649
     65  OE1       23.4280  -10.3360  -52.8260 O.co2 416  GLU416     -0.2457
     66  OE2       22.1710  -11.1160  -51.1620 O.co2 416  GLU416     -0.2457
     67  N         23.7760   -8.7120  -59.3380 N.3   419  LEU419     -0.1245
     68  CA        25.1840   -8.7780  -58.9480 C.3   419  LEU419      0.1561
     69  C         26.0500   -9.6810  -59.8290 C.2   419  LEU419      0.2260
     70  O         25.5840  -10.6800  -60.3770 O.2   419  LEU419     -0.2867
     71  CB        25.2700   -9.2480  -57.4920 C.3   419  LEU419      0.0270
     72  CG        24.5860   -8.3430  -56.4600 C.3   419  LEU419      0.0019
     73  CD1       24.6560   -8.9670  -55.0750 C.3   419  LEU419      0.0001
     74  CD2       25.2060   -6.9510  -56.4530 C.3   419  LEU419      0.0001
     75  N         29.1560  -12.0670  -59.4920 N.3   421  ILE421     -0.1245
     76  CA        29.9360  -12.7720  -58.4740 C.3   421  ILE421      0.1561
     77  C         31.4430  -12.7070  -58.7450 C.2   421  ILE421      0.2260
     78  O         32.2420  -12.9460  -57.8410 O.2   421  ILE421     -0.2867
     79  CB        29.4790  -14.2400  -58.2820 C.3   421  ILE421      0.0252
     80  CG1       29.7960  -15.1000  -59.5050 C.3   421  ILE421      0.0019
     81  CG2       27.9860  -14.3050  -57.9850 C.3   421  ILE421      0.0019
     82  CD1       29.5270  -16.5740  -59.2810 C.3   421  ILE421      0.0001
@<TRIPOS>BOND
     1    50    51    1
     2    70    69    2
     3    69    68    1
     4    53    52    2
     5    80    82    1
     6    80    79    1
     7    75    76    1
     8    67    68    1
     9    52    51    1
    10    51    54    1
    11    68    71    1
    12    77    76    1
    13    77    78    2
    14    76    79    1
    15    79    81    1
    16    54    55    1
    17    71    72    1
    18    61    60    2
    19    60    59    1
    20    55    56    2
    21    55    57   am
    22    72    74    1
    23    72    73    1
    24    59    58    1
    25    59    62    1
    26    62    63    1
    27    63    64    1
    28    65    64   ar
    29    64    66   ar
    30    43    41    1
    31    22    20    1
    32    44    42    1
    33    19    20    2
    34    19    18    1
    35    20    21    1
    36    18    17    1
    37    40    39    2
    38    41    42    1
    39    41    38    1
    40    39    38    1
    41    39    45   am
    42    38    37    1
    43    48    47    2
    44    46    45    1
    45    46    47    1
    46    46    49    1
    47    17    16    1
    48    16    13    1
    49    13    12    1
    50    13    14    1
    51    28    27    1
    52     8    10   ar
    53     8     6   ar
    54    10    11   ar
    55    14    15    2
    56    14    23   am
    57     3     4    2
    58     3     2    1
    59    23    24    1
    60    33    30    1
    61    33    34    1
    62    27    24    1
    63     5     6    1
    64     5     2    1
    65    32    31    2
    66     6     7   ar
    67    31    30    1
    68    11     9   ar
    69     2     1    1
    70    35    34    2
    71    30    29    1
    72    24    25    1
    73    34    36   am
    74     7     9   ar
    75    26    25    2
