@<TRIPOS>MOLECULE
tmp/5a2yB00.pdb
 154 143 0 0 0
SMALL
GASTEIGER

@<TRIPOS>ATOM
      1  N        -30.0440   -5.3800   -1.1480 N.3   169  PHE169     -0.1227
      2  CA       -29.1540   -4.9760   -0.0710 C.3   169  PHE169      0.1736
      3  C        -29.2780   -3.4610    0.1170 C.2   169  PHE169      0.2596
      4  O        -30.0990   -2.8210   -0.5360 O.2   169  PHE169     -0.2718
      5  CB       -27.7160   -5.4120   -0.3670 C.3   169  PHE169      0.0547
      6  CG       -27.1140   -4.7690   -1.5890 C.ar  169  PHE169     -0.0202
      7  CD1      -27.4780   -5.1820   -2.8610 C.ar  169  PHE169     -0.0042
      8  CD2      -26.1610   -3.7600   -1.4680 C.ar  169  PHE169     -0.0042
      9  CE1      -26.9190   -4.5920   -3.9790 C.ar  169  PHE169     -0.0003
     10  CE2      -25.5970   -3.1730   -2.5920 C.ar  169  PHE169     -0.0003
     11  CZ       -25.9760   -3.5920   -3.8470 C.ar  169  PHE169     -0.0000
     12  N        -28.4990   -2.8950    1.0320 N.am  170  GLY170     -0.1942
     13  CA       -28.5400   -1.4600    1.2940 C.3   170  GLY170      0.2014
     14  C        -29.7840   -1.0200    2.0390 C.2   170  GLY170      0.2639
     15  O        -30.3420   -1.7740    2.8380 O.2   170  GLY170     -0.2714
     16  N        -30.2050    0.2140    1.7760 N.am  171  SER171     -0.1949
     17  CA       -31.3240    0.8580    2.4770 C.3   171  SER171      0.1924
     18  C        -32.5690   -0.0130    2.5630 C.2   171  SER171      0.2314
     19  O        -33.2350   -0.0620    3.6000 O.2   171  SER171     -0.2863
     20  CB       -31.6930    2.1540    1.7660 C.3   171  SER171      0.2116
     21  OG       -30.6370    3.0870    1.8220 O.3   171  SER171     -0.2180
     22  N        -31.4740   -2.8500    5.3570 N.3   174  ASN174     -0.1240
     23  CA       -30.6490   -2.5960    6.5490 C.3   174  ASN174      0.1653
     24  C        -31.3830   -1.8330    7.6480 C.2   174  ASN174      0.2266
     25  O        -30.7700   -1.4330    8.6390 O.2   174  ASN174     -0.2867
     26  CB       -29.3600   -1.8540    6.1770 C.3   174  ASN174      0.1155
     27  CG       -29.6110   -0.4500    5.6590 C.2   174  ASN174      0.2627
     28  OD1      -30.7150    0.0880    5.7740 O.2   174  ASN174     -0.2716
     29  ND2      -28.5780    0.1550    5.0850 N.am  174  ASN174     -0.0877
     30  N        -35.4740    4.8940    3.7500 N.3   178  LYS178     -0.1245
     31  CA       -36.6170    5.7950    3.7540 C.3   178  LYS178      0.1561
     32  C        -37.3830    5.6520    2.4500 C.2   178  LYS178      0.2260
     33  O        -36.8350    5.1940    1.4470 O.2   178  LYS178     -0.2867
     34  CB       -36.1940    7.2530    3.9680 C.3   178  LYS178      0.0271
     35  CG       -35.1680    7.7820    2.9840 C.3   178  LYS178      0.0035
     36  CD       -35.2240    9.3020    2.9160 C.3   178  LYS178      0.0206
     37  CE       -34.2440    9.8570    1.8950 C.3   178  LYS178      0.1093
     38  NZ       -34.6980   11.1720    1.3620 N.3   178  LYS178     -0.1314
     39  N        -36.2600    5.7780   -1.6390 N.3   181  CYS181     -0.1221
     40  CA       -34.8680    5.4010   -1.8600 C.3   181  CYS181      0.1808
     41  C        -34.7900    4.2810   -2.9030 C.2   181  CYS181      0.2601
     42  O        -35.7450    3.5310   -3.0970 O.2   181  CYS181     -0.2717
     43  CB       -34.2070    4.9670   -0.5470 C.3   181  CYS181      0.0970
     44  SG       -34.6680    3.2990   -0.0240 S.3   181  CYS181     -0.0800
     45  N        -33.6470    4.1770   -3.5730 N.am  182  ASP182     -0.1973
     46  CA       -33.4600    3.1880   -4.6370 C.3   182  ASP182      0.1709
     47  C        -33.4640    1.7590   -4.1060 C.2   182  ASP182      0.2293
     48  O        -33.1960    1.5260   -2.9280 O.2   182  ASP182     -0.2864
     49  CB       -32.1420    3.4470   -5.3620 C.3   182  ASP182      0.1436
     50  CG       -32.1260    4.7850   -6.0840 C.2   182  ASP182      0.3671
     51  OD1      -33.1180    5.5370   -5.9760 O.co2 182  ASP182     -0.2456
     52  OD2      -31.1170    5.0860   -6.7570 O.co2 182  ASP182     -0.2456
     53  N        -31.3840   -1.4040   -4.3660 N.3   184  ASP184     -0.1239
     54  CA       -30.1080   -1.9990   -4.7610 C.3   184  ASP184      0.1674
     55  C        -30.2460   -3.5200   -4.8300 C.2   184  ASP184      0.2266
     56  O        -30.6510   -4.1440   -3.8620 O.2   184  ASP184     -0.2867
     57  CB       -29.0140   -1.5970   -3.7670 C.3   184  ASP184      0.1410
     58  CG       -28.7780   -0.0860   -3.7270 C.2   184  ASP184      0.3668
     59  OD1      -28.4970    0.4960   -4.7820 O.co2 184  ASP184     -0.2456
     60  OD2      -28.8690    0.5310   -2.6480 O.co2 184  ASP184     -0.2456
     61  N        -30.9290   -0.4140   -9.0140 N.3   256  ASP256     -0.1239
     62  CA       -29.5310   -0.5480   -9.3720 C.3   256  ASP256      0.1674
     63  C        -29.1610   -2.0260   -9.2630 C.2   256  ASP256      0.2266
     64  O        -29.2680   -2.6150   -8.1910 O.2   256  ASP256     -0.2867
     65  CB       -28.6650    0.2870   -8.4280 C.3   256  ASP256      0.1410
     66  CG       -29.2320    1.6790   -8.1540 C.2   256  ASP256      0.3668
     67  OD1      -29.7860    2.3180   -9.0690 O.co2 256  ASP256     -0.2456
     68  OD2      -29.1130    2.1470   -7.0050 O.co2 256  ASP256     -0.2456
     69  N        -18.9070   -8.4540    0.5910 N.3   263  ILE263     -0.1231
     70  CA       -18.5900   -7.4050    1.5680 C.3   263  ILE263      0.1692
     71  C        -19.8090   -6.5100    1.8000 C.2   263  ILE263      0.2591
     72  O        -20.1690   -6.2270    2.9480 O.2   263  ILE263     -0.2718
     73  CB       -17.3930   -6.5210    1.1210 C.3   263  ILE263      0.0266
     74  CG1      -16.1110   -7.3510    0.9650 C.3   263  ILE263      0.0019
     75  CG2      -17.1610   -5.3670    2.1020 C.3   263  ILE263      0.0020
     76  CD1      -15.6340   -8.0280    2.2360 C.3   263  ILE263      0.0001
     77  N        -20.4340   -6.0680    0.7100 N.am  264  ALA264     -0.1980
     78  CA       -21.5860   -5.1800    0.7850 C.3   264  ALA264      0.1597
     79  C        -22.7900   -5.8300    1.4790 C.2   264  ALA264      0.2287
     80  O        -23.6070   -5.1360    2.0890 O.2   264  ALA264     -0.2864
     81  CB       -21.9680   -4.7100   -0.6070 C.3   264  ALA264      0.0319
     82  N        -21.9880   -5.4560    5.3090 N.3   267  CYS267     -0.1221
     83  CA       -22.3010   -4.0930    5.7550 C.3   267  CYS267      0.1808
     84  C        -23.7930   -3.9230    5.9790 C.2   267  CYS267      0.2601
     85  O        -24.2090   -3.2780    6.9430 O.2   267  CYS267     -0.2717
     86  CB       -21.8510   -3.0520    4.7250 C.3   267  CYS267      0.0970
     87  SG       -20.0860   -2.6980    4.7170 S.3   267  CYS267     -0.0800
     88  N        -24.5880   -4.4870    5.0720 N.am  268  SER268     -0.1952
     89  CA       -26.0320   -4.4110    5.1800 C.3   268  SER268      0.1924
     90  C        -26.5310   -5.1680    6.4030 C.2   268  SER268      0.2314
     91  O        -27.3930   -4.6730    7.1210 O.2   268  SER268     -0.2863
     92  CB       -26.7000   -4.9490    3.9160 C.3   268  SER268      0.2116
     93  OG       -26.4440   -4.0930    2.8230 O.3   268  SER268     -0.2180
     94  N        -25.4210   -3.1610    9.7000 N.3   271  LEU271     -0.1245
     95  CA       -26.3200   -2.0460    9.9680 C.3   271  LEU271      0.1561
     96  C        -27.6940   -2.5270   10.4170 C.2   271  LEU271      0.2260
     97  O        -28.3400   -1.8790   11.2430 O.2   271  LEU271     -0.2867
     98  CB       -26.4460   -1.1460    8.7370 C.3   271  LEU271      0.0270
     99  CG       -25.2120   -0.3100    8.3760 C.3   271  LEU271      0.0019
    100  CD1      -25.4860    0.5150    7.1280 C.3   271  LEU271      0.0001
    101  CD2      -24.7920    0.6000    9.5180 C.3   271  LEU271      0.0001
    102  N        -29.6400   12.2400    8.7200 N.3   289  ARG289     -0.1245
    103  CA       -29.6990   12.1780    7.2600 C.3   289  ARG289      0.1563
    104  C        -30.4330   13.3920    6.7170 C.2   289  ARG289      0.2260
    105  O        -29.9130   14.1150    5.8660 O.2   289  ARG289     -0.2867
    106  CB       -30.4430   10.9360    6.7830 C.3   289  ARG289      0.0307
    107  CG       -29.6070    9.6740    6.6330 C.3   289  ARG289      0.0489
    108  CD       -30.1770    8.8430    5.4800 C.3   289  ARG289      0.2205
    109  NE       -31.5770    8.4550    5.7040 N.pl3 289  ARG289     -0.0865
    110  CZ       -32.0330    7.2080    5.7630 C.cat 289  ARG289      0.5346
    111  NH1      -31.2140    6.1770    5.6170 N.pl3 289  ARG289      0.1354
    112  NH2      -33.3280    6.9860    5.9650 N.pl3 289  ARG289      0.1354
    113  N        -21.2410   11.1810    2.1090 N.3   307  THR307     -0.1203
    114  CA       -22.2990   10.2700    1.6840 C.3   307  THR307      0.1994
    115  C        -23.1030    9.7910    2.8860 C.2   307  THR307      0.2618
    116  O        -22.5740    9.6720    3.9930 O.2   307  THR307     -0.2717
    117  CB       -21.7140    9.0380    0.9690 C.3   307  THR307      0.1784
    118  OG1      -20.7380    8.4040    1.8110 O.3   307  THR307     -0.2211
    119  CG2      -21.0620    9.4430   -0.3370 C.3   307  THR307      0.0376
    120  N        -24.3790    9.5000    2.6590 N.am  308  ASN308     -0.1960
    121  CA       -25.2450    8.9690    3.7100 C.3   308  ASN308      0.1819
    122  C        -24.6310    7.7820    4.4430 C.2   308  ASN308      0.2621
    123  O        -24.7820    7.6620    5.6610 O.2   308  ASN308     -0.2715
    124  CB       -26.6070    8.5600    3.1390 C.3   308  ASN308      0.1195
    125  CG       -27.5320    9.7440    2.9110 C.2   308  ASN308      0.2630
    126  OD1      -27.2130   10.8910    3.2450 O.2   308  ASN308     -0.2716
    127  ND2      -28.6910    9.4700    2.3380 N.am  308  ASN308     -0.0877
    128  N        -23.9410    6.9110    3.7080 N.am  309  PHE309     -0.1974
    129  CA       -23.3130    5.7450    4.3180 C.3   309  PHE309      0.1639
    130  C        -22.2090    6.1790    5.2760 C.2   309  PHE309      0.2290
    131  O        -22.1690    5.7330    6.4260 O.2   309  PHE309     -0.2864
    132  CB       -22.7690    4.7820    3.2630 C.3   309  PHE309      0.0560
    133  CG       -22.2020    3.5190    3.8400 C.ar  309  PHE309     -0.0200
    134  CD1      -23.0370    2.5110    4.3110 C.ar  309  PHE309     -0.0042
    135  CD2      -20.8300    3.3400    3.9330 C.ar  309  PHE309     -0.0042
    136  CE1      -22.5130    1.3430    4.8550 C.ar  309  PHE309     -0.0003
    137  CE2      -20.2990    2.1800    4.4750 C.ar  309  PHE309     -0.0003
    138  CZ       -21.1390    1.1830    4.9390 C.ar  309  PHE309     -0.0000
    139  N        -12.7400    1.3880    6.9220 N.3   409  ASN409     -0.1240
    140  CA       -13.6550    0.3640    6.4240 C.3   409  ASN409      0.1653
    141  C        -13.5320   -0.8600    7.3180 C.2   409  ASN409      0.2266
    142  O        -12.4610   -1.4530    7.4050 O.2   409  ASN409     -0.2867
    143  CB       -13.3270   -0.0090    4.9770 C.3   409  ASN409      0.1155
    144  CG       -14.3090   -1.0160    4.3870 C.2   409  ASN409      0.2627
    145  OD1      -14.5870   -2.0620    4.9810 O.2   409  ASN409     -0.2716
    146  ND2      -14.8190   -0.7140    3.1970 N.am  409  ASN409     -0.0877
    147  N        -13.5490    4.7330    3.7490 N.3   417  ILE417     -0.1245
    148  CA       -14.8620    4.7840    3.1070 C.3   417  ILE417      0.1561
    149  C        -15.2770    6.2060    2.7130 C.2   417  ILE417      0.2260
    150  O        -16.1570    6.3850    1.8730 O.2   417  ILE417     -0.2867
    151  CB       -15.9660    4.1540    3.9840 C.3   417  ILE417      0.0252
    152  CG1      -16.2040    4.9710    5.2510 C.3   417  ILE417      0.0019
    153  CG2      -15.6170    2.7150    4.3480 C.3   417  ILE417      0.0019
    154  CD1      -17.4720    4.5800    5.9720 C.3   417  ILE417      0.0001
@<TRIPOS>BOND
     1    62    63    1
     2    62    61    1
     3    62    65    1
     4    63    64    2
     5    67    66   ar
     6    65    66    1
     7    66    68   ar
     8    52    50   ar
     9    50    51   ar
    10    50    49    1
    11    49    46    1
    12    55    54    1
    13    55    56    2
    14    59    58   ar
    15    54    53    1
    16    54    57    1
    17    46    47    1
    18    46    45    1
    19    47    48    2
    20     9    11   ar
    21     9     7   ar
    22    11    10   ar
    23    57    58    1
    24    58    60   ar
    25    45    41   am
    26    42    41    2
    27    41    40    1
    28     7     6   ar
    29    10     8   ar
    30    40    39    1
    31    40    43    1
    32     6     8   ar
    33     6     5    1
    34     1     2    1
    35    81    78    1
    36    43    44    1
    37     4     3    2
    38     5     2    1
    39   119   117    1
    40     2     3    1
    41     3    12   am
    42    69    70    1
    43    77    78    1
    44    77    71   am
    45    78    79    1
    46    74    73    1
    47    74    76    1
    48   117   114    1
    49   117   118    1
    50    12    13    1
    51    73    70    1
    52    73    75    1
    53    13    14    1
    54    38    37    1
    55    33    32    2
    56    79    80    2
    57    70    71    1
    58   114   113    1
    59   114   115    1
    60    20    21    1
    61    20    17    1
    62    16    14   am
    63    16    17    1
    64    71    72    2
    65   150   149    2
    66    37    36    1
    67    14    15    2
    68   127   125   am
    69    32    31    1
    70    17    18    1
    71    18    19    2
    72   120   115   am
    73   120   121    1
    74   149   148    1
    75    93    92    1
    76   115   116    2
    77   125   124    1
    78   125   126    2
    79    36    35    1
    80    35    34    1
    81   148   147    1
    82   148   151    1
    83   124   121    1
    84   146   144   am
    85   132   133    1
    86   132   129    1
    87   128   129    1
    88   128   122   am
    89   121   122    1
    90    30    31    1
    91    31    34    1
    92   133   135   ar
    93   133   134   ar
    94    92    89    1
    95   135   137   ar
    96   151   153    1
    97   151   152    1
    98   134   136   ar
    99   129   130    1
   100   144   143    1
   101   144   145    2
   102   122   123    2
   103   137   138   ar
   104    87    86    1
   105    86    83    1
   106   136   138   ar
   107   143   140    1
   108    88    89    1
   109    88    84   am
   110    29    27   am
   111    89    90    1
   112   152   154    1
   113   130   131    2
   114    82    83    1
   115    22    23    1
   116   108   109    1
   117   108   107    1
   118   111   110    1
   119    27    28    2
   120    27    26    1
   121   109   110    2
   122    83    84    1
   123   110   112    1
   124   105   104    2
   125    84    85    2
   126    26    23    1
   127    90    91    2
   128   140   139    1
   129   140   141    1
   130    23    24    1
   131   107   106    1
   132   104   103    1
   133   106   103    1
   134   100    99    1
   135   103   102    1
   136   141   142    2
   137    24    25    2
   138    99    98    1
   139    99   101    1
   140    98    95    1
   141    94    95    1
   142    95    96    1
   143    96    97    2
