@<TRIPOS>MOLECULE
tmp/5a2zB00.pdb
 173 163 0 0 0
SMALL
GASTEIGER

@<TRIPOS>ATOM
      1  N        -29.4260    5.2800   -1.3710 N.3   169  PHE169     -0.1227
      2  CA       -30.3530    4.9530   -0.3000 C.3   169  PHE169      0.1736
      3  C        -30.2890    3.4440   -0.0650 C.2   169  PHE169      0.2596
      4  O        -29.4560    2.7620   -0.6570 O.2   169  PHE169     -0.2718
      5  CB       -31.7740    5.4330   -0.6330 C.3   169  PHE169      0.0547
      6  CG       -32.4290    4.6880   -1.7690 C.ar  169  PHE169     -0.0202
      7  CD1      -32.0340    4.9040   -3.0850 C.ar  169  PHE169     -0.0042
      8  CD2      -33.4610    3.7860   -1.5290 C.ar  169  PHE169     -0.0042
      9  CE1      -32.6480    4.2260   -4.1270 C.ar  169  PHE169     -0.0003
     10  CE2      -34.0760    3.1060   -2.5740 C.ar  169  PHE169     -0.0003
     11  CZ       -33.6680    3.3240   -3.8730 C.ar  169  PHE169     -0.0000
     12  N        -31.1410    2.9330    0.8160 N.am  170  GLY170     -0.1942
     13  CA       -31.1700    1.5070    1.1170 C.3   170  GLY170      0.2014
     14  C        -29.9480    1.0520    1.8940 C.2   170  GLY170      0.2639
     15  O        -29.3530    1.8230    2.6390 O.2   170  GLY170     -0.2714
     16  N        -29.5710   -0.2070    1.7000 N.am  171  SER171     -0.1949
     17  CA       -28.5420   -0.8450    2.5120 C.3   171  SER171      0.1924
     18  C        -27.1810   -0.1450    2.4370 C.2   171  SER171      0.2314
     19  O        -26.3940   -0.2450    3.3680 O.2   171  SER171     -0.2863
     20  CB       -28.4110   -2.3260    2.1410 C.3   171  SER171      0.2116
     21  OG       -28.0360   -2.4750    0.7900 O.3   171  SER171     -0.2180
     22  N        -27.9710    2.7520    5.2300 N.3   174  ASN174     -0.1240
     23  CA       -28.7930    2.5210    6.4360 C.3   174  ASN174      0.1653
     24  C        -28.0670    1.7150    7.5300 C.2   174  ASN174      0.2266
     25  O        -28.7010    1.1950    8.4520 O.2   174  ASN174     -0.2867
     26  CB       -30.1240    1.8410    6.0650 C.3   174  ASN174      0.1155
     27  CG       -29.9450    0.4050    5.6060 C.2   174  ASN174      0.2627
     28  OD1      -28.8710   -0.1860    5.7640 O.2   174  ASN174     -0.2716
     29  ND2      -31.0040   -0.1720    5.0310 N.am  174  ASN174     -0.0877
     30  N        -26.8830   -1.1760    7.5340 N.3   176  PHE176     -0.1241
     31  CA       -27.0600   -2.6230    7.4560 C.3   176  PHE176      0.1605
     32  C        -26.4870   -3.2020    6.1670 C.2   176  PHE176      0.2264
     33  O        -26.7270   -4.3670    5.8470 O.2   176  PHE176     -0.2867
     34  CB       -28.5400   -2.9910    7.5900 C.3   176  PHE176      0.0534
     35  CG       -29.1410   -2.5890    8.9050 C.ar  176  PHE176     -0.0203
     36  CD1      -28.7010   -3.1600   10.0950 C.ar  176  PHE176     -0.0042
     37  CD2      -30.1470   -1.6450    8.9580 C.ar  176  PHE176     -0.0042
     38  CE1      -29.2550   -2.7910   11.3090 C.ar  176  PHE176     -0.0003
     39  CE2      -30.7000   -1.2750   10.1710 C.ar  176  PHE176     -0.0003
     40  CZ       -30.2570   -1.8510   11.3450 C.ar  176  PHE176     -0.0000
     41  N        -23.9750   -4.9210    3.6870 N.3   178  LYS178     -0.1245
     42  CA       -22.8520   -5.8460    3.6910 C.3   178  LYS178      0.1561
     43  C        -22.0830   -5.6940    2.3830 C.2   178  LYS178      0.2260
     44  O        -22.6430   -5.2900    1.3580 O.2   178  LYS178     -0.2867
     45  CB       -23.3220   -7.2930    3.8710 C.3   178  LYS178      0.0271
     46  CG       -23.9200   -7.9350    2.6260 C.3   178  LYS178      0.0035
     47  CD       -24.2900   -9.3870    2.8840 C.3   178  LYS178      0.0206
     48  CE       -25.0620   -9.9940    1.7270 C.3   178  LYS178      0.1093
     49  NZ       -24.9830  -11.4870    1.7700 N.3   178  LYS178     -0.1314
     50  N        -23.1570   -5.9020   -1.7380 N.3   181  CYS181     -0.1221
     51  CA       -24.5570   -5.5520   -1.9500 C.3   181  CYS181      0.1808
     52  C        -24.6950   -4.4880   -3.0390 C.2   181  CYS181      0.2601
     53  O        -23.7520   -3.7420   -3.3200 O.2   181  CYS181     -0.2717
     54  CB       -25.2000   -5.0730   -0.6410 C.3   181  CYS181      0.0970
     55  SG       -24.7730   -3.3700   -0.1610 S.3   181  CYS181     -0.0800
     56  N        -25.8760   -4.4360   -3.6500 N.am  182  ASP182     -0.1973
     57  CA       -26.1950   -3.4350   -4.6720 C.3   182  ASP182      0.1709
     58  C        -26.0740   -1.9980   -4.1650 C.2   182  ASP182      0.2293
     59  O        -26.1810   -1.7410   -2.9610 O.2   182  ASP182     -0.2864
     60  CB       -27.6240   -3.6500   -5.1860 C.3   182  ASP182      0.1436
     61  CG       -27.7340   -4.8200   -6.1400 C.2   182  ASP182      0.3671
     62  OD1      -26.8020   -5.6540   -6.1900 O.co2 182  ASP182     -0.2456
     63  OD2      -28.7570   -4.9080   -6.8510 O.co2 182  ASP182     -0.2456
     64  N        -28.1320    1.2290   -4.4690 N.3   184  ASP184     -0.1239
     65  CA       -29.4140    1.8240   -4.8500 C.3   184  ASP184      0.1674
     66  C        -29.2940    3.3470   -4.9380 C.2   184  ASP184      0.2266
     67  O        -28.7810    3.9700   -4.0240 O.2   184  ASP184     -0.2867
     68  CB       -30.4910    1.4290   -3.8430 C.3   184  ASP184      0.1410
     69  CG       -30.6360   -0.0790   -3.7040 C.2   184  ASP184      0.3668
     70  OD1      -31.0480   -0.7190   -4.6800 O.co2 184  ASP184     -0.2456
     71  OD2      -30.3360   -0.6190   -2.6250 O.co2 184  ASP184     -0.2456
     72  N        -40.4380    8.3500    0.3890 N.3   261  ILE261     -0.1231
     73  CA       -40.8470    7.3450    1.3810 C.3   261  ILE261      0.1692
     74  C        -39.6800    6.3940    1.6300 C.2   261  ILE261      0.2591
     75  O        -39.3270    6.1160    2.7760 O.2   261  ILE261     -0.2718
     76  CB       -42.0890    6.5260    0.9370 C.3   261  ILE261      0.0266
     77  CG1      -43.2870    7.4400    0.6480 C.3   261  ILE261      0.0019
     78  CG2      -42.4690    5.4880    1.9940 C.3   261  ILE261      0.0020
     79  CD1      -43.7990    8.2120    1.8470 C.3   261  ILE261      0.0001
     80  N        -39.0820    5.9130    0.5440 N.am  262  ALA262     -0.1980
     81  CA       -37.9640    4.9760    0.6160 C.3   262  ALA262      0.1597
     82  C        -36.7470    5.5410    1.3570 C.2   262  ALA262      0.2287
     83  O        -36.0150    4.7860    2.0040 O.2   262  ALA262     -0.2864
     84  CB       -37.5720    4.5330   -0.7830 C.3   262  ALA262      0.0319
     85  N        -37.4260    5.4440    5.1690 N.3   265  CYS265     -0.1221
     86  CA       -37.1200    4.0840    5.6350 C.3   265  CYS265      0.1808
     87  C        -35.6390    3.8920    5.8950 C.2   265  CYS265      0.2601
     88  O        -35.2530    3.2780    6.8940 O.2   265  CYS265     -0.2717
     89  CB       -37.5680    3.0320    4.6180 C.3   265  CYS265      0.0970
     90  SG       -39.2430    2.4420    4.8960 S.3   265  CYS265     -0.0800
     91  N        -34.8190    4.4030    4.9810 N.am  266  SER266     -0.1952
     92  CA       -33.3810    4.2880    5.1130 C.3   266  SER266      0.1924
     93  C        -32.8950    5.0630    6.3230 C.2   266  SER266      0.2314
     94  O        -32.0310    4.5870    7.0510 O.2   266  SER266     -0.2863
     95  CB       -32.6790    4.7750    3.8440 C.3   266  SER266      0.2116
     96  OG       -33.0630    3.9770    2.7390 O.3   266  SER266     -0.2180
     97  N        -34.0770    3.1830    9.5390 N.3   269  LEU269     -0.1245
     98  CA       -33.1740    2.0700    9.7840 C.3   269  LEU269      0.1561
     99  C        -31.7780    2.5400   10.2180 C.2   269  LEU269      0.2260
    100  O        -31.0990    1.8430   10.9780 O.2   269  LEU269     -0.2867
    101  CB       -33.0840    1.1810    8.5370 C.3   269  LEU269      0.0270
    102  CG       -34.3000    0.2710    8.3060 C.3   269  LEU269      0.0019
    103  CD1      -34.1920   -0.4360    6.9650 C.3   269  LEU269      0.0001
    104  CD2      -34.4530   -0.7380    9.4360 C.3   269  LEU269      0.0001
    105  N        -29.7670  -12.1260    8.6520 N.3   287  ARG287     -0.1245
    106  CA       -29.7190  -12.0910    7.1830 C.3   287  ARG287      0.1563
    107  C        -28.9450  -13.2820    6.6430 C.2   287  ARG287      0.2260
    108  O        -29.4080  -13.9740    5.7380 O.2   287  ARG287     -0.2867
    109  CB       -29.0550  -10.8140    6.6670 C.3   287  ARG287      0.0307
    110  CG       -30.0310   -9.6980    6.3720 C.3   287  ARG287      0.0489
    111  CD       -29.5160   -8.7650    5.2840 C.3   287  ARG287      0.2205
    112  NE       -28.6730   -7.6670    5.7540 N.pl3 287  ARG287     -0.0865
    113  CZ       -27.3410   -7.6920    5.7890 C.cat 287  ARG287      0.5346
    114  NH1      -26.6670   -8.7690    5.4170 N.pl3 287  ARG287      0.1354
    115  NH2      -26.6710   -6.6320    6.2150 N.pl3 287  ARG287      0.1354
    116  N        -38.1790  -11.0530    1.9390 N.3   305  THR305     -0.1203
    117  CA       -37.0630  -10.1910    1.5480 C.3   305  THR305      0.1994
    118  C        -36.2880   -9.7510    2.7800 C.2   305  THR305      0.2618
    119  O        -36.8300   -9.6980    3.8870 O.2   305  THR305     -0.2717
    120  CB       -37.5430   -8.9390    0.7890 C.3   305  THR305      0.1784
    121  OG1      -38.5000   -8.2230    1.5850 O.3   305  THR305     -0.2211
    122  CG2      -38.1760   -9.3290   -0.5440 C.3   305  THR305      0.0376
    123  N        -35.0160   -9.4310    2.5760 N.am  306  ASN306     -0.1960
    124  CA       -34.1670   -8.8800    3.6340 C.3   306  ASN306      0.1819
    125  C        -34.7840   -7.6500    4.2890 C.2   306  ASN306      0.2621
    126  O        -34.6540   -7.4540    5.4940 O.2   306  ASN306     -0.2715
    127  CB       -32.7880   -8.5070    3.0780 C.3   306  ASN306      0.1195
    128  CG       -31.9570   -9.7210    2.6970 C.2   306  ASN306      0.2630
    129  OD1      -32.1590  -10.8190    3.2170 O.2   306  ASN306     -0.2716
    130  ND2      -31.0110   -9.5270    1.7850 N.am  306  ASN306     -0.0877
    131  N        -35.4470   -6.8220    3.4880 N.am  307  PHE307     -0.1974
    132  CA       -36.1380   -5.6530    4.0030 C.3   307  PHE307      0.1639
    133  C        -37.2300   -6.0770    4.9850 C.2   307  PHE307      0.2290
    134  O        -37.3130   -5.5440    6.0930 O.2   307  PHE307     -0.2864
    135  CB       -36.7300   -4.8270    2.8560 C.3   307  PHE307      0.0560
    136  CG       -37.4060   -3.5620    3.3090 C.ar  307  PHE307     -0.0200
    137  CD1      -36.6900   -2.6010    4.0040 C.ar  307  PHE307     -0.0042
    138  CD2      -38.7520   -3.3280    3.0430 C.ar  307  PHE307     -0.0042
    139  CE1      -37.2930   -1.4330    4.4330 C.ar  307  PHE307     -0.0003
    140  CE2      -39.3640   -2.1590    3.4680 C.ar  307  PHE307     -0.0003
    141  CZ       -38.6310   -1.2090    4.1650 C.ar  307  PHE307     -0.0000
    142  N        -46.6460   -1.3420    6.6870 N.3   407  ASN407     -0.1226
    143  CA       -45.7890   -0.3040    6.1140 C.3   407  ASN407      0.1770
    144  C        -45.8650    0.9160    7.0200 C.2   407  ASN407      0.2439
    145  O        -46.9400    1.4830    7.1860 O.2   407  ASN407     -0.2733
    146  CB       -46.2530    0.0540    4.7000 C.3   407  ASN407      0.1168
    147  CG       -45.2440    0.9040    3.9420 C.2   407  ASN407      0.2627
    148  OD1      -44.6460    1.8320    4.4920 O.2   407  ASN407     -0.2716
    149  ND2      -45.0700    0.6050    2.6600 N.am  407  ASN407     -0.0877
    150  N        -44.7310    1.3180    7.6190 N.am  408  PRO408     -0.2729
    151  CA       -44.7690    2.3520    8.6590 C.3   408  PRO408      0.1401
    152  C        -45.0950    3.7670    8.1740 C.2   408  PRO408      0.2269
    153  O        -45.4770    4.6120    8.9920 O.2   408  PRO408     -0.2865
    154  CB       -43.3530    2.3150    9.2450 C.3   408  PRO408      0.0296
    155  CG       -42.4970    1.7790    8.1560 C.3   408  PRO408      0.0237
    156  CD       -43.3590    0.8480    7.3550 C.3   408  PRO408      0.0939
    157  N        -47.0380    4.4280    5.1440 N.3   410  GLU410     -0.1245
    158  CA       -48.2040    4.4620    4.2670 C.3   410  GLU410      0.1567
    159  C        -49.3680    3.6710    4.8670 C.2   410  GLU410      0.2260
    160  O        -49.1530    2.6220    5.4850 O.2   410  GLU410     -0.2867
    161  CB       -47.8380    3.9000    2.8930 C.3   410  GLU410      0.0388
    162  CG       -46.5450    4.4770    2.3260 C.3   410  GLU410      0.1160
    163  CD       -46.4840    4.4620    0.8120 C.2   410  GLU410      0.3649
    164  OE1      -46.2010    3.3960    0.2280 O.co2 410  GLU410     -0.2457
    165  OE2      -46.7200    5.5230    0.2030 O.co2 410  GLU410     -0.2457
    166  N        -45.7660   -4.6540    3.4710 N.3   415  ILE415     -0.1245
    167  CA       -44.4470   -4.7970    2.8570 C.3   415  ILE415      0.1561
    168  C        -44.1000   -6.2480    2.5170 C.2   415  ILE415      0.2260
    169  O        -43.2440   -6.5010    1.6680 O.2   415  ILE415     -0.2867
    170  CB       -43.3310   -4.2050    3.7510 C.3   415  ILE415      0.0252
    171  CG1      -43.2300   -4.9620    5.0760 C.3   415  ILE415      0.0019
    172  CG2      -43.5760   -2.7230    4.0160 C.3   415  ILE415      0.0019
    173  CD1      -42.0800   -4.5100    5.9480 C.3   415  ILE415      0.0001
@<TRIPOS>BOND
     1    63    61   ar
     2    62    61   ar
     3    61    60    1
     4    60    57    1
     5    66    65    1
     6    66    67    2
     7    65    64    1
     8    65    68    1
     9    70    69   ar
    10    57    58    1
    11    57    56    1
    12    58    59    2
    13     9    11   ar
    14     9     7   ar
    15    11    10   ar
    16    68    69    1
    17    69    71   ar
    18    56    52   am
    19    53    52    2
    20     7     6   ar
    21    52    51    1
    22    10     8   ar
    23    51    50    1
    24    51    54    1
    25     6     8   ar
    26     6     5    1
    27     1     2    1
    28    84    81    1
    29     4     3    2
    30    54    55    1
    31     5     2    1
    32   122   120    1
    33     2     3    1
    34     3    12   am
    35   165   163   ar
    36   164   163   ar
    37    72    73    1
    38    80    81    1
    39    80    74   am
    40    81    82    1
    41    77    76    1
    42    77    79    1
    43   120   117    1
    44   120   121    1
    45    21    20    1
    46   163   162    1
    47    12    13    1
    48    76    73    1
    49    76    78    1
    50    13    14    1
    51    82    83    2
    52    44    43    2
    53    73    74    1
    54   117   116    1
    55   117   118    1
    56    74    75    2
    57   169   168    2
    58    16    14   am
    59    16    17    1
    60    48    49    1
    61    48    47    1
    62   130   128   am
    63    14    15    2
    64    20    17    1
    65   162   161    1
    66    43    42    1
    67    18    17    1
    68    18    19    2
    69   168   167    1
    70   123   118   am
    71   123   124    1
    72    46    47    1
    73    46    45    1
    74   149   147   am
    75   128   127    1
    76   128   129    2
    77    96    95    1
    78   118   119    2
    79   135   136    1
    80   135   132    1
    81   167   166    1
    82   167   170    1
    83   161   158    1
    84   138   136   ar
    85   138   140   ar
    86   127   124    1
    87   136   137   ar
    88   140   141   ar
    89   131   132    1
    90   131   125   am
    91   124   125    1
    92    41    42    1
    93    42    45    1
    94   170   172    1
    95   170   171    1
    96    95    92    1
    97   147   148    2
    98   147   146    1
    99   132   133    1
   100   137   139   ar
   101   141   139   ar
   102   158   159    1
   103   158   157    1
   104   125   126    2
   105    89    90    1
   106    89    86    1
   107   146   143    1
   108   159   160    2
   109    91    92    1
   110    91    87   am
   111   133   134    2
   112    29    27   am
   113   171   173    1
   114    92    93    1
   115    85    86    1
   116    22    23    1
   117   111   112    1
   118   111   110    1
   119   114   113    1
   120    27    28    2
   121    27    26    1
   122    86    87    1
   123   108   107    2
   124   112   113    2
   125   113   115    1
   126    33    32    2
   127    87    88    2
   128    26    23    1
   129   143   142    1
   130   143   144    1
   131    32    31    1
   132    93    94    2
   133   110   109    1
   134    23    24    1
   135   107   106    1
   136   109   106    1
   137   103   102    1
   138   144   145    2
   139   144   150   am
   140   106   105    1
   141   156   150    1
   142   156   155    1
   143    31    30    1
   144    31    34    1
   145    24    25    2
   146    34    35    1
   147   150   151    1
   148   155   154    1
   149   152   151    1
   150   152   153    2
   151   102   101    1
   152   102   104    1
   153   101    98    1
   154   151   154    1
   155    35    37   ar
   156    35    36   ar
   157    37    39   ar
   158    97    98    1
   159    98    99    1
   160    36    38   ar
   161    39    40   ar
   162    99   100    2
   163    38    40   ar
