@<TRIPOS>MOLECULE
tmp/5a2zA00.pdb
 89 84 0 0 0
SMALL
GASTEIGER

@<TRIPOS>ATOM
      1  N        -27.7130   22.8770  -43.7230 N.3   173  PHE173     -0.1227
      2  CA       -27.1790   22.8160  -45.0730 C.3   173  PHE173      0.1736
      3  C        -28.3630   22.8180  -46.0200 C.2   173  PHE173      0.2596
      4  O        -29.5080   22.9760  -45.5810 O.2   173  PHE173     -0.2718
      5  CB       -26.2890   21.5800  -45.2600 C.3   173  PHE173      0.0547
      6  CG       -27.0320   20.2660  -45.2180 C.ar  173  PHE173     -0.0202
      7  CD1      -27.5270   19.7630  -44.0180 C.ar  173  PHE173     -0.0042
      8  CD2      -27.2130   19.5200  -46.3790 C.ar  173  PHE173     -0.0042
      9  CE1      -28.1950   18.5510  -43.9770 C.ar  173  PHE173     -0.0003
     10  CE2      -27.8780   18.3110  -46.3430 C.ar  173  PHE173     -0.0003
     11  CZ       -28.3710   17.8260  -45.1440 C.ar  173  PHE173     -0.0000
     12  N        -28.0930   22.6680  -47.3100 N.am  174  GLY174     -0.1942
     13  CA       -29.1510   22.6450  -48.3010 C.3   174  GLY174      0.2014
     14  C        -29.7790   24.0130  -48.4890 C.2   174  GLY174      0.2639
     15  O        -29.1290   25.0430  -48.2750 O.2   174  GLY174     -0.2714
     16  N        -31.0600   24.0200  -48.8480 N.am  175  SER175     -0.1949
     17  CA       -31.7470   25.2480  -49.2470 C.3   175  SER175      0.1924
     18  C        -31.7890   26.3270  -48.1640 C.2   175  SER175      0.2314
     19  O        -31.8610   27.5070  -48.4830 O.2   175  SER175     -0.2863
     20  CB       -33.1640   24.9300  -49.7320 C.3   175  SER175      0.2116
     21  OG       -33.9490   24.3630  -48.6960 O.3   175  SER175     -0.2180
     22  N        -28.0320   27.8760  -48.8810 N.3   178  ASN178     -0.1240
     23  CA       -27.4310   27.9910  -50.2180 C.3   178  ASN178      0.1653
     24  C        -28.0300   29.1310  -51.0600 C.2   178  ASN178      0.2266
     25  O        -27.8420   29.1710  -52.2760 O.2   178  ASN178     -0.2867
     26  CB       -27.5390   26.6540  -50.9620 C.3   178  ASN178      0.1155
     27  CG       -28.9700   26.3070  -51.3530 C.2   178  ASN178      0.2627
     28  OD1      -29.8680   27.1430  -51.2670 O.2   178  ASN178     -0.2716
     29  ND2      -29.1870   25.0590  -51.7740 N.am  178  ASN178     -0.0877
     30  N        -39.8140   26.1320  -46.4170 N.3   185  CYS185     -0.1221
     31  CA       -39.0160   24.9540  -46.7550 C.3   185  CYS185      0.1808
     32  C        -38.4770   24.2960  -45.4840 C.2   185  CYS185      0.2601
     33  O        -38.3480   24.9430  -44.4420 O.2   185  CYS185     -0.2717
     34  CB       -37.8560   25.3090  -47.6940 C.3   185  CYS185      0.0970
     35  SG       -36.4510   26.1580  -46.9350 S.3   185  CYS185     -0.0800
     36  N        -38.1690   23.0040  -45.5950 N.am  186  ASP186     -0.1973
     37  CA       -37.5680   22.2350  -44.5130 C.3   186  ASP186      0.1709
     38  C        -36.2310   22.8120  -44.0510 C.2   186  ASP186      0.2293
     39  O        -35.5450   23.5130  -44.7950 O.2   186  ASP186     -0.2864
     40  CB       -37.3670   20.7780  -44.9460 C.3   186  ASP186      0.1436
     41  CG       -38.6610   19.9750  -44.9460 C.2   186  ASP186      0.3671
     42  OD1      -39.7530   20.5880  -44.9380 O.co2 186  ASP186     -0.2456
     43  OD2      -38.5780   18.7230  -44.9500 O.co2 186  ASP186     -0.2456
     44  N        -32.7740   21.4360  -43.1240 N.3   188  ASP188     -0.1239
     45  CA       -31.8910   20.2630  -43.1720 C.3   188  ASP188      0.1674
     46  C        -30.7110   20.4980  -42.2410 C.2   188  ASP188      0.2266
     47  O        -30.0710   21.5480  -42.3010 O.2   188  ASP188     -0.2867
     48  CB       -31.3960   20.0220  -44.5990 C.3   188  ASP188      0.1410
     49  CG       -32.5320   19.8180  -45.5720 C.2   188  ASP188      0.3668
     50  OD1      -33.2810   18.8220  -45.4120 O.co2 188  ASP188     -0.2456
     51  OD2      -32.6760   20.6620  -46.4850 O.co2 188  ASP188     -0.2456
     52  N        -35.1280   18.0300  -40.8150 N.3   258  ASP258     -0.1239
     53  CA       -34.4760   16.7600  -41.1650 C.3   258  ASP258      0.1674
     54  C        -33.0740   16.7550  -40.5720 C.2   258  ASP258      0.2266
     55  O        -32.2760   17.6520  -40.8570 O.2   258  ASP258     -0.2867
     56  CB       -34.3690   16.5970  -42.6880 C.3   258  ASP258      0.1410
     57  CG       -35.7310   16.5760  -43.3720 C.2   258  ASP258      0.3668
     58  OD1      -36.4740   17.5770  -43.2480 O.co2 258  ASP258     -0.2456
     59  OD2      -36.0610   15.5520  -44.0270 O.co2 258  ASP258     -0.2456
     60  N        -38.2730   26.4740  -60.0200 N.3   291  ARG291     -0.1245
     61  CA       -38.7620   25.6080  -58.9340 C.3   291  ARG291      0.1563
     62  C        -40.2860   25.6810  -58.8350 C.2   291  ARG291      0.2260
     63  O        -40.9640   24.6600  -58.7820 O.2   291  ARG291     -0.2867
     64  CB       -38.1550   26.0040  -57.5820 C.3   291  ARG291      0.0307
     65  CG       -36.7960   25.3750  -57.3020 C.3   291  ARG291      0.0489
     66  CD       -35.9400   26.1320  -56.2750 C.3   291  ARG291      0.2205
     67  NE       -36.2830   25.8890  -54.8760 N.pl3 291  ARG291     -0.0865
     68  CZ       -37.1460   26.6020  -54.1460 C.cat 291  ARG291      0.5346
     69  NH1      -37.8120   27.6430  -54.6400 N.pl3 291  ARG291      0.1354
     70  NH2      -37.3430   26.2550  -52.8820 N.pl3 291  ARG291      0.1354
     71  N        -35.7570   19.1340  -56.7000 N.3   310  ASN310     -0.1225
     72  CA       -35.3320   20.5310  -56.7750 C.3   310  ASN310      0.1785
     73  C        -33.8170   20.6500  -56.8700 C.2   310  ASN310      0.2597
     74  O        -33.3100   21.5140  -57.5660 O.2   310  ASN310     -0.2718
     75  CB       -35.8270   21.3220  -55.5580 C.3   310  ASN310      0.1169
     76  CG       -37.3320   21.5180  -55.5530 C.2   310  ASN310      0.2627
     77  OD1      -37.9800   21.4960  -56.5960 O.2   310  ASN310     -0.2716
     78  ND2      -37.8960   21.7200  -54.3680 N.am  310  ASN310     -0.0877
     79  N        -33.1040   19.7810  -56.1600 N.am  311  PHE311     -0.1976
     80  CA       -31.6510   19.7440  -56.2160 C.3   311  PHE311      0.1639
     81  C        -31.1730   19.4320  -57.6370 C.2   311  PHE311      0.2290
     82  O        -30.3220   20.1310  -58.1770 O.2   311  PHE311     -0.2864
     83  CB       -31.1050   18.7170  -55.2180 C.3   311  PHE311      0.0560
     84  CG       -29.6060   18.6270  -55.1980 C.ar  311  PHE311     -0.0200
     85  CD1      -28.8300   19.7200  -54.8280 C.ar  311  PHE311     -0.0042
     86  CD2      -28.9670   17.4480  -55.5670 C.ar  311  PHE311     -0.0042
     87  CE1      -27.4440   19.6330  -54.8220 C.ar  311  PHE311     -0.0003
     88  CE2      -27.5860   17.3540  -55.5570 C.ar  311  PHE311     -0.0003
     89  CZ       -26.8240   18.4460  -55.1880 C.ar  311  PHE311     -0.0000
@<TRIPOS>BOND
     1    60    61    1
     2    61    62    1
     3    61    64    1
     4    62    63    2
     5    82    81    2
     6    81    80    1
     7    64    65    1
     8    74    73    2
     9    65    66    1
    10    73    72    1
    11    73    79   am
    12    72    71    1
    13    72    75    1
    14    77    76    2
    15    66    67    1
    16    80    79    1
    17    80    83    1
    18    86    88   ar
    19    86    84   ar
    20    75    76    1
    21    88    89   ar
    22    76    78   am
    23    83    84    1
    24    84    85   ar
    25    89    87   ar
    26    67    68    2
    27    85    87   ar
    28    69    68    1
    29    68    70    1
    30    25    24    2
    31    29    27   am
    32    27    28    2
    33    27    26    1
    34    24    23    1
    35    26    23    1
    36    23    22    1
    37    20    17    1
    38    20    21    1
    39    17    16    1
    40    17    18    1
    41    16    14   am
    42    14    13    1
    43    14    15    2
    44    19    18    2
    45    13    12    1
    46    34    35    1
    47    34    31    1
    48    12     3   am
    49    31    30    1
    50    31    32    1
    51    51    49   ar
    52     8    10   ar
    53     8     6   ar
    54    10    11   ar
    55     3     4    2
    56     3     2    1
    57    36    32   am
    58    36    37    1
    59    49    50   ar
    60    49    48    1
    61    32    33    2
    62     5     6    1
    63     5     2    1
    64     6     7   ar
    65    11     9   ar
    66     2     1    1
    67    43    41   ar
    68    40    41    1
    69    40    37    1
    70    41    42   ar
    71    39    38    2
    72    48    45    1
    73    37    38    1
    74    59    57   ar
    75     7     9   ar
    76    57    58   ar
    77    57    56    1
    78    45    44    1
    79    45    46    1
    80    56    53    1
    81    47    46    2
    82    53    52    1
    83    53    54    1
    84    55    54    2
