@<TRIPOS>MOLECULE
tmp/5a3bA00.pdb
 185 179 0 0 0
SMALL
GASTEIGER

@<TRIPOS>ATOM
      1  N         18.8730   16.9890   38.8090 N.3    27  GLY27      -0.1210
      2  CA        17.7100   16.8300   38.0100 C.3    27  GLY27       0.1956
      3  C         17.5150   17.9290   36.9910 C.2    27  GLY27       0.2612
      4  O         18.4000   18.7530   36.7310 O.2    27  GLY27      -0.2717
      5  N         16.3160   17.9270   36.4170 N.am   28  ALA28      -0.1965
      6  CA        16.0600   18.7150   35.2000 C.3    28  ALA28       0.1728
      7  C         16.1540   20.2130   35.4490 C.2    28  ALA28       0.2616
      8  O         16.4060   20.9800   34.5250 O.2    28  ALA28      -0.2715
      9  CB        14.7190   18.3500   34.6160 C.3    28  ALA28       0.0334
     10  N         15.9550   20.6430   36.6810 N.am   29  GLY29      -0.1955
     11  CA        16.1030   22.0590   37.0430 C.3    29  GLY29       0.1869
     12  C         17.4460   22.6660   36.7250 C.2    29  GLY29       0.2309
     13  O         17.5200   23.8270   36.3470 O.2    29  GLY29      -0.2863
     14  N         17.3340   23.2710   32.9680 N.3    32  ALA32      -0.1231
     15  CA        16.4000   24.3740   32.7350 C.3    32  ALA32       0.1694
     16  C         17.0320   25.7050   33.1010 C.2    32  ALA32       0.2591
     17  O         16.8620   26.7110   32.3980 O.2    32  ALA32      -0.2718
     18  CB        15.1160   24.1650   33.5500 C.3    32  ALA32       0.0304
     19  N         17.7740   25.7150   34.2040 N.am   33  ALA33      -0.1980
     20  CA        18.4060   26.9660   34.6730 C.3    33  ALA33       0.1597
     21  C         19.4350   27.5370   33.6910 C.2    33  ALA33       0.2287
     22  O         19.6650   28.7560   33.6650 O.2    33  ALA33      -0.2864
     23  CB        19.0360   26.7480   36.0290 C.3    33  ALA33       0.0319
     24  N          8.6890   17.1620   27.3130 N.3    60  LEU60      -0.1245
     25  CA         8.6770   15.9370   28.0940 C.3    60  LEU60       0.1561
     26  C          7.4880   15.0320   27.7560 C.2    60  LEU60       0.2260
     27  O          7.6210   13.8350   27.4730 O.2    60  LEU60      -0.2867
     28  CB         8.6340   16.2820   29.5820 C.3    60  LEU60       0.0270
     29  CG         8.6950   15.0840   30.5210 C.3    60  LEU60       0.0019
     30  CD1       10.0280   14.3680   30.2870 C.3    60  LEU60       0.0001
     31  CD2        8.5190   15.5250   31.9800 C.3    60  LEU60       0.0001
     32  N          7.3500   11.2710   25.6880 N.3    64  LEU64      -0.1245
     33  CA         6.7520   10.0670   26.2820 C.3    64  LEU64       0.1561
     34  C          5.5440    9.5730   25.5030 C.2    64  LEU64       0.2260
     35  O          4.9860    8.5180   25.8020 O.2    64  LEU64      -0.2867
     36  CB         6.3350   10.3640   27.7210 C.3    64  LEU64       0.0270
     37  CG         7.4870   10.5610   28.6910 C.3    64  LEU64       0.0019
     38  CD1        6.9930   11.1200   30.0140 C.3    64  LEU64       0.0001
     39  CD2        8.1860    9.2400   28.9140 C.3    64  LEU64       0.0001
     40  N         19.2730   12.1190   37.0930 N.3   111  THR111     -0.1203
     41  CA        18.1530   11.6190   36.3010 C.3   111  THR111      0.1994
     42  C         18.0540   12.2580   34.9180 C.2   111  THR111      0.2618
     43  O         17.2160   11.8520   34.0900 O.2   111  THR111     -0.2717
     44  CB        16.8160   11.7830   37.0730 C.3   111  THR111      0.1784
     45  OG1       16.6540   13.1420   37.5010 O.3   111  THR111     -0.2211
     46  CG2       16.8190   10.8900   38.2860 C.3   111  THR111      0.0376
     47  N         18.9160   13.2380   34.6420 N.am  112  ASN112     -0.1960
     48  CA        18.9600   13.8790   33.3420 C.3   112  ASN112      0.1819
     49  C         19.5590   12.9500   32.2970 C.2   112  ASN112      0.2621
     50  O         20.4250   12.1350   32.6170 O.2   112  ASN112     -0.2715
     51  CB        19.8120   15.1450   33.4030 C.3   112  ASN112      0.1195
     52  CG        19.1560   16.2610   34.1950 C.2   112  ASN112      0.2630
     53  OD1       17.9810   16.1810   34.5520 O.2   112  ASN112     -0.2716
     54  ND2       19.9010   17.3110   34.4500 N.am  112  ASN112     -0.0877
     55  N         19.1250   13.0820   31.0560 N.am  113  ALA113     -0.1977
     56  CA        19.6760   12.2500   29.9970 C.3   113  ALA113      0.1597
     57  C         20.2710   13.0330   28.8440 C.2   113  ALA113      0.2287
     58  O         20.6540   12.4570   27.8190 O.2   113  ALA113     -0.2864
     59  CB        18.6120   11.2850   29.5200 C.3   113  ALA113      0.0319
     60  N         18.8900    7.1940   34.5950 N.3   131  GLN131     -0.1245
     61  CA        17.7460    7.1940   33.6640 C.3   131  GLN131      0.1566
     62  C         18.1570    7.0550   32.2070 C.2   131  GLN131      0.2260
     63  O         17.3930    7.4520   31.3000 O.2   131  GLN131     -0.2867
     64  CB        16.9620    8.5290   33.8200 C.3   131  GLN131      0.0367
     65  CG        16.1960    8.6300   35.0950 C.3   131  GLN131      0.0905
     66  CD        14.9960    7.7180   35.0980 C.2   131  GLN131      0.2608
     67  OE1       15.1440    6.4920   35.1860 O.2   131  GLN131     -0.2717
     68  NE2       13.7790    8.3030   34.9840 N.am  131  GLN131     -0.0878
     69  N         20.0130   10.0780   26.1680 N.3   134  TYR134     -0.1241
     70  CA        19.2810   10.2130   24.9130 C.3   134  TYR134      0.1605
     71  C         20.0810    9.7600   23.6940 C.2   134  TYR134      0.2264
     72  O         19.4900    9.3970   22.6660 O.2   134  TYR134     -0.2867
     73  CB        18.8120   11.6570   24.6610 C.3   134  TYR134      0.0534
     74  CG        17.8810   12.2220   25.6850 C.ar  134  TYR134     -0.0201
     75  CD1       16.8270   11.4640   26.2260 C.ar  134  TYR134     -0.0009
     76  CD2       18.0300   13.5480   26.1070 C.ar  134  TYR134     -0.0009
     77  CE1       15.9560   12.0250   27.1650 C.ar  134  TYR134      0.0417
     78  CE2       17.1880   14.0960   27.0620 C.ar  134  TYR134      0.0417
     79  CZ        16.1590   13.3490   27.5650 C.ar  134  TYR134      0.1957
     80  OH        15.3430   13.9440   28.4750 O.3   134  TYR134     -0.2866
     81  N         17.8070   20.9930   41.5720 N.3   223  GLY223     -0.1210
     82  CA        16.7810   21.0610   40.5430 C.3   223  GLY223      0.1956
     83  C         16.0690   19.7450   40.3430 C.2   223  GLY223      0.2612
     84  O         15.7690   19.3580   39.2180 O.2   223  GLY223     -0.2717
     85  N         15.8030   19.0770   41.4540 N.am  224  VAL224     -0.1965
     86  CA        15.0810   17.8260   41.4840 C.3   224  VAL224      0.1727
     87  C         13.6840   18.0750   41.9890 C.2   224  VAL224      0.2617
     88  O         13.5140   18.6340   43.0560 O.2   224  VAL224     -0.2715
     89  CB        15.7940   16.8210   42.3990 C.3   224  VAL224      0.0290
     90  CG1       14.9230   15.6190   42.6950 C.3   224  VAL224      0.0023
     91  CG2       17.1260   16.4080   41.7630 C.3   224  VAL224      0.0023
     92  N         12.6970   17.6050   41.2440 N.am  225  GLY225     -0.1940
     93  CA        11.3010   17.8460   41.5530 C.3   225  GLY225      0.2014
     94  C         10.5570   16.5890   41.9970 C.2   225  GLY225      0.2639
     95  O         11.1360   15.6740   42.5920 O.2   225  GLY225     -0.2714
     96  N          9.2570   16.5670   41.7130 N.am  226  HIS226     -0.1959
     97  CA         8.3840   15.4760   42.1170 C.3   226  HIS226      0.1787
     98  C          8.1410   14.4350   41.0470 C.2   226  HIS226      0.2621
     99  O          7.4430   13.4710   41.3070 O.2   226  HIS226     -0.2715
    100  CB         7.0080   16.0270   42.5240 C.3   226  HIS226      0.0785
    101  CG         6.7260   15.9430   43.9880 C.ar  226  HIS226      0.0821
    102  ND1        5.4770   16.1960   44.5120 N.ar  226  HIS226     -0.2267
    103  CD2        7.5190   15.6310   45.0400 C.ar  226  HIS226      0.1154
    104  CE1        5.5140   16.0610   45.8270 C.ar  226  HIS226      0.1986
    105  NE2        6.7390   15.7110   46.1730 N.ar  226  HIS226     -0.2212
    106  N          8.6790   14.6140   39.8510 N.am  227  THR227     -0.1937
    107  CA         8.3340   13.7270   38.7380 C.3   227  THR227      0.2028
    108  C          8.7290   12.2630   39.0080 C.2   227  THR227      0.2642
    109  O          7.9290   11.3720   38.7390 O.2   227  THR227     -0.2714
    110  CB         8.9780   14.2190   37.4310 C.3   227  THR227      0.1808
    111  OG1        8.6620   15.6070   37.2390 O.3   227  THR227     -0.2208
    112  CG2        8.5110   13.4110   36.2160 C.3   227  THR227      0.0379
    113  N          9.9340   12.0260   39.5340 N.am  228  THR228     -0.1950
    114  CA        10.4440   10.6690   39.8390 C.3   228  THR228      0.1897
    115  C         11.3250   10.6930   41.0950 C.2   228  THR228      0.2313
    116  O         12.5470   10.4160   41.0400 O.2   228  THR228     -0.2863
    117  CB        11.2790   10.0570   38.6760 C.3   228  THR228      0.1794
    118  OG1       12.3710   10.9350   38.3410 O.3   228  THR228     -0.2208
    119  CG2       10.4070    9.8030   37.4270 C.3   228  THR228      0.0378
    120  N         16.4130   24.6360   44.9340 N.3   252  ASN252     -0.1225
    121  CA        15.1610   24.5450   44.2440 C.3   252  ASN252      0.1785
    122  C         14.3560   25.8010   44.4830 C.2   252  ASN252      0.2597
    123  O         14.1580   26.1950   45.6340 O.2   252  ASN252     -0.2718
    124  CB        14.3810   23.3180   44.7180 C.3   252  ASN252      0.1169
    125  CG        13.3750   22.8460   43.6910 C.2   252  ASN252      0.2627
    126  OD1       12.4990   23.5940   43.2600 O.2   252  ASN252     -0.2716
    127  ND2       13.5220   21.6200   43.2600 N.am  252  ASN252     -0.0877
    128  N         13.8390   26.3910   43.4130 N.am  253  HIS253     -0.1961
    129  CA        12.9670   27.5570   43.5700 C.3   253  HIS253      0.1787
    130  C         11.5440   27.2610   44.0290 C.2   253  HIS253      0.2620
    131  O         10.8350   28.1960   44.3260 O.2   253  HIS253     -0.2715
    132  CB        13.0510   28.5750   42.3950 C.3   253  HIS253      0.0785
    133  CG        12.5690   28.0940   41.0520 C.ar  253  HIS253      0.0821
    134  ND1       12.8160   28.8160   39.9050 N.ar  253  HIS253     -0.2267
    135  CD2       11.8540   27.0080   40.6610 C.ar  253  HIS253      0.1154
    136  CE1       12.2780   28.2040   38.8620 C.ar  253  HIS253      0.1986
    137  NE2       11.6860   27.1000   39.2900 N.ar  253  HIS253     -0.2212
    138  N         11.1340   25.9820   44.1080 N.am  254  LYS254     -0.1977
    139  CA         9.8470   25.5750   44.7260 C.3   254  LYS254      0.1596
    140  C         10.0840   24.8470   46.0600 C.2   254  LYS254      0.2287
    141  O         11.1540   24.2630   46.2740 O.2   254  LYS254     -0.2864
    142  CB         9.0430   24.6860   43.7730 C.3   254  LYS254      0.0298
    143  CG         8.5800   25.4640   42.5530 C.3   254  LYS254      0.0038
    144  CD         7.7440   24.6210   41.5910 C.3   254  LYS254      0.0206
    145  CE         6.8940   25.5170   40.6900 C.3   254  LYS254      0.1093
    146  NZ         5.4330   25.1520   40.7630 N.3   254  LYS254     -0.1314
    147  N          9.4750   21.7760   48.4790 N.3   256  TYR256     -0.1241
    148  CA         8.9980   20.4130   48.6500 C.3   256  TYR256      0.1605
    149  C          9.2400   20.0680   50.1160 C.2   256  TYR256      0.2264
    150  O         10.3510   20.2160   50.6230 O.2   256  TYR256     -0.2867
    151  CB         9.7370   19.4480   47.7240 C.3   256  TYR256      0.0534
    152  CG         9.5540   19.7870   46.2600 C.ar  256  TYR256     -0.0201
    153  CD1       10.2790   20.8220   45.6660 C.ar  256  TYR256     -0.0009
    154  CD2        8.6430   19.1000   45.4770 C.ar  256  TYR256     -0.0009
    155  CE1       10.1020   21.1390   44.3300 C.ar  256  TYR256      0.0417
    156  CE2        8.4600   19.4220   44.1350 C.ar  256  TYR256      0.0417
    157  CZ         9.1990   20.4330   43.5750 C.ar  256  TYR256      0.1957
    158  OH         9.0200   20.7320   42.2520 O.3   256  TYR256     -0.2866
    159  N         17.3060   30.5430   45.5330 N.3   271  GLU271     -0.1231
    160  CA        17.8280   31.4210   44.4790 C.3   271  GLU271      0.1699
    161  C         17.9750   30.6820   43.1390 C.2   271  GLU271      0.2592
    162  O         18.3760   29.5260   43.1120 O.2   271  GLU271     -0.2718
    163  CB        19.1870   31.9860   44.9000 C.3   271  GLU271      0.0402
    164  CG        19.7830   32.9750   43.9130 C.3   271  GLU271      0.1161
    165  CD        21.0460   33.6410   44.4130 C.2   271  GLU271      0.3649
    166  OE1       21.3380   33.5720   45.6360 O.co2 271  GLU271     -0.2457
    167  OE2       21.7490   34.2460   43.5640 O.co2 271  GLU271     -0.2457
    168  N         17.7000   31.3570   42.0300 N.am  272  HIS272     -0.1962
    169  CA        17.8070   30.7330   40.7150 C.3   272  HIS272      0.1787
    170  C         19.1300   29.9710   40.6310 C.2   272  HIS272      0.2620
    171  O         20.1900   30.5230   40.8910 O.2   272  HIS272     -0.2715
    172  CB        17.6970   31.8390   39.6600 C.3   272  HIS272      0.0785
    173  CG        17.6780   31.3600   38.2400 C.ar  272  HIS272      0.0821
    174  ND1       18.7780   30.8090   37.6190 N.ar  272  HIS272     -0.2267
    175  CD2       16.7190   31.4490   37.2870 C.ar  272  HIS272      0.1154
    176  CE1       18.4880   30.5420   36.3540 C.ar  272  HIS272      0.1986
    177  NE2       17.2370   30.9100   36.1330 N.ar  272  HIS272     -0.2212
    178  N         19.0590   28.6790   40.3260 N.am  273  ILE273     -0.1977
    179  CA        20.2380   27.8060   40.3030 C.3   273  ILE273      0.1596
    180  C         21.4620   28.4090   39.5650 C.2   273  ILE273      0.2287
    181  O         22.5830   28.3650   40.0740 O.2   273  ILE273     -0.2864
    182  CB        19.8720   26.4230   39.6960 C.3   273  ILE273      0.0276
    183  CG1       19.1080   25.6010   40.7360 C.3   273  ILE273      0.0022
    184  CG2       21.1040   25.6500   39.2110 C.3   273  ILE273      0.0022
    185  CD1       18.3620   24.4230   40.1530 C.3   273  ILE273      0.0001
@<TRIPOS>BOND
     1    72    71    2
     2    71    70    1
     3    73    70    1
     4    73    74    1
     5    70    69    1
     6    34    35    2
     7    34    33    1
     8    74    76   ar
     9    74    75   ar
    10    32    33    1
    11    76    78   ar
    12    75    77   ar
    13    33    36    1
    14    78    79   ar
    15    77    79   ar
    16    24    25    1
    17    27    26    2
    18    79    80    1
    19    36    37    1
    20    26    25    1
    21    58    57    2
    22    25    28    1
    23    37    39    1
    24    37    38    1
    25    57    56    1
    26    59    56    1
    27    28    29    1
    28    56    55    1
    29    30    29    1
    30    29    31    1
    31    55    49   am
    32    63    62    2
    33    62    61    1
    34    49    50    2
    35    49    48    1
    36    17    16    2
    37    15    14    1
    38    15    16    1
    39    15    18    1
    40    16    19   am
    41    48    51    1
    42    48    47    1
    43    51    52    1
    44    61    64    1
    45    61    60    1
    46    22    21    2
    47    21    20    1
    48    64    65    1
    49    43    42    2
    50    52    54   am
    51    52    53    2
    52    19    20    1
    53     8     7    2
    54     9     6    1
    55    47    42   am
    56    20    23    1
    57    42    41    1
    58    68    66   am
    59    65    66    1
    60    66    67    2
    61     6     7    1
    62     6     5    1
    63     7    10   am
    64   177   176   ar
    65   177   175   ar
    66   112   110    1
    67    41    44    1
    68    41    40    1
    69    13    12    2
    70   176   174   ar
    71     5     3   am
    72    10    11    1
    73    12    11    1
    74     4     3    2
    75     3     2    1
    76    44    45    1
    77    44    46    1
    78   111   110    1
    79   175   173   ar
    80   119   117    1
    81   110   107    1
    82   174   173   ar
    83     2     1    1
    84   173   172    1
    85   118   117    1
    86   117   114    1
    87   107   108    1
    88   107   106    1
    89   109   108    2
    90   136   137   ar
    91   136   134   ar
    92   108   113   am
    93   184   182    1
    94    84    83    2
    95   137   135   ar
    96   113   114    1
    97   180   181    2
    98   180   179    1
    99   172   169    1
   100   182   179    1
   101   182   183    1
   102   114   115    1
   103   106    98   am
   104   134   133   ar
   105   185   183    1
   106   179   178    1
   107   178   170   am
   108    83    82    1
   109    83    85   am
   110    82    81    1
   111   170   169    1
   112   170   171    2
   113   135   133   ar
   114   145   146    1
   115   145   144    1
   116   169   168    1
   117   116   115    2
   118    98    99    2
   119    98    97    1
   120   133   132    1
   121    92    93    1
   122    92    87   am
   123    85    86    1
   124    86    87    1
   125    86    89    1
   126    93    94    1
   127   144   143    1
   128    96    94   am
   129    96    97    1
   130    91    89    1
   131    87    88    2
   132    94    95    2
   133   168   161   am
   134    97   100    1
   135   158   157    1
   136   132   129    1
   137    89    90    1
   138   100   101    1
   139   143   142    1
   140   162   161    2
   141   161   160    1
   142   126   125    2
   143   127   125   am
   144   128   129    1
   145   128   122   am
   146   167   165   ar
   147   129   130    1
   148   157   156   ar
   149   157   155   ar
   150   125   124    1
   151   142   139    1
   152   164   165    1
   153   164   163    1
   154   101   102   ar
   155   101   103   ar
   156   130   138   am
   157   130   131    2
   158   138   139    1
   159   156   154   ar
   160   121   122    1
   161   121   124    1
   162   121   120    1
   163   155   153   ar
   164   165   166   ar
   165   160   163    1
   166   160   159    1
   167   122   123    2
   168   102   104   ar
   169   139   140    1
   170   103   105   ar
   171   154   152   ar
   172   153   152   ar
   173   104   105   ar
   174   140   141    2
   175   152   151    1
   176   151   148    1
   177   147   148    1
   178   148   149    1
   179   149   150    2
