@<TRIPOS>MOLECULE
tmp/5a3cA00.pdb
 212 206 0 0 0
SMALL
GASTEIGER

@<TRIPOS>ATOM
      1  N         18.6340   17.3060   38.7650 N.3    27  GLY27      -0.1210
      2  CA        17.4170   17.0970   38.0200 C.3    27  GLY27       0.1956
      3  C         17.2180   18.1490   36.9540 C.2    27  GLY27       0.2612
      4  O         18.0810   18.9880   36.7170 O.2    27  GLY27      -0.2717
      5  N         16.0370   18.1200   36.3510 N.am   28  ALA28      -0.1965
      6  CA        15.7490   18.9080   35.1520 C.3    28  ALA28       0.1728
      7  C         15.8590   20.4120   35.3860 C.2    28  ALA28       0.2616
      8  O         16.1390   21.1520   34.4560 O.2    28  ALA28      -0.2715
      9  CB        14.3790   18.5500   34.6050 C.3    28  ALA28       0.0334
     10  N         15.6780   20.8540   36.6240 N.am   29  GLY29      -0.1955
     11  CA        15.7870   22.2800   36.9740 C.3    29  GLY29       0.1869
     12  C         17.1360   22.8970   36.6310 C.2    29  GLY29       0.2309
     13  O         17.2140   24.0530   36.2280 O.2    29  GLY29      -0.2863
     14  N         19.2160   22.0300   34.1420 N.3    31  SER31      -0.1202
     15  CA        19.2640   22.2640   32.6990 C.3    31  SER31       0.2020
     16  C         18.3020   23.3930   32.2540 C.2    31  SER31       0.2619
     17  O         18.6580   24.2210   31.4080 O.2    31  SER31      -0.2717
     18  CB        19.0040   20.9620   31.9520 C.3    31  SER31       0.2103
     19  OG        20.1490   20.1140   32.0350 O.3    31  SER31      -0.2182
     20  N         17.1220   23.4510   32.8650 N.am   32  ALA32      -0.1965
     21  CA        16.1550   24.5200   32.5860 C.3    32  ALA32       0.1728
     22  C         16.6830   25.8950   32.9950 C.2    32  ALA32       0.2616
     23  O         16.4390   26.8720   32.3000 O.2    32  ALA32      -0.2715
     24  CB        14.8250   24.2390   33.2640 C.3    32  ALA32       0.0334
     25  N         17.4420   25.9490   34.0890 N.am   33  ALA33      -0.1977
     26  CA        18.0760   27.1830   34.5460 C.3    33  ALA33       0.1597
     27  C         19.1230   27.7220   33.5800 C.2    33  ALA33       0.2287
     28  O         19.3570   28.9230   33.5590 O.2    33  ALA33      -0.2864
     29  CB        18.6970   26.9970   35.9330 C.3    33  ALA33       0.0319
     30  N         11.8240   22.7140   28.4290 N.3    38  TYR38      -0.1241
     31  CA        10.9770   21.6840   27.8100 C.3    38  TYR38       0.1605
     32  C          9.5350   22.1610   27.5580 C.2    38  TYR38       0.2264
     33  O          8.6520   21.3820   27.2050 O.2    38  TYR38      -0.2867
     34  CB        11.0270   20.3910   28.6410 C.3    38  TYR38       0.0534
     35  CG        12.3090   19.6000   28.3840 C.ar   38  TYR38      -0.0201
     36  CD1       13.5560   20.1730   28.6040 C.ar   38  TYR38      -0.0009
     37  CD2       12.2700   18.2820   27.9230 C.ar   38  TYR38      -0.0009
     38  CE1       14.7260   19.4750   28.3580 C.ar   38  TYR38       0.0417
     39  CE2       13.4470   17.5730   27.6810 C.ar   38  TYR38       0.0417
     40  CZ        14.6680   18.1780   27.8960 C.ar   38  TYR38       0.1957
     41  OH        15.8430   17.4970   27.6710 O.3    38  TYR38      -0.2866
     42  N          8.2790   17.1260   27.3620 N.3    60  LEU60      -0.1245
     43  CA         8.3430   15.8920   28.1390 C.3    60  LEU60       0.1561
     44  C          7.1560   15.0270   27.8070 C.2    60  LEU60       0.2260
     45  O          7.2900   13.8330   27.5810 O.2    60  LEU60      -0.2867
     46  CB         8.3520   16.1630   29.6490 C.3    60  LEU60       0.0270
     47  CG         8.3530   14.8790   30.4930 C.3    60  LEU60       0.0019
     48  CD1        9.6080   14.0360   30.2160 C.3    60  LEU60       0.0001
     49  CD2        8.1910   15.2020   31.9790 C.3    60  LEU60       0.0001
     50  N         19.0200   12.4320   37.0760 N.3   111  THR111     -0.1203
     51  CA        17.8830   11.9050   36.3540 C.3   111  THR111      0.1994
     52  C         17.8260   12.5090   34.9550 C.2   111  THR111      0.2618
     53  O         16.9680   12.1280   34.1470 O.2   111  THR111     -0.2717
     54  CB        16.5670   12.2020   37.0990 C.3   111  THR111      0.1784
     55  OG1       16.5760   13.5540   37.5530 O.3   111  THR111     -0.2211
     56  CG2       16.4210   11.2830   38.2980 C.3   111  THR111      0.0376
     57  N         18.7160   13.4610   34.6750 N.am  112  ASN112     -0.1960
     58  CA        18.7910   14.0600   33.3320 C.3   112  ASN112      0.1819
     59  C         19.4100   13.1120   32.3230 C.2   112  ASN112      0.2621
     60  O         20.3140   12.3320   32.6480 O.2   112  ASN112     -0.2715
     61  CB        19.6090   15.3470   33.3570 C.3   112  ASN112      0.1195
     62  CG        18.9290   16.4570   34.1350 C.2   112  ASN112      0.2630
     63  OD1       17.7450   16.3790   34.4300 O.2   112  ASN112     -0.2716
     64  ND2       19.6710   17.5170   34.4310 N.am  112  ASN112     -0.0877
     65  N         18.9230   13.1930   31.0920 N.am  113  ALA113     -0.1963
     66  CA        19.3990   12.3200   30.0450 C.3   113  ALA113      0.1728
     67  C         20.0240   13.0930   28.8850 C.2   113  ALA113      0.2616
     68  O         20.3840   12.4950   27.8820 O.2   113  ALA113     -0.2715
     69  CB        18.2640   11.4140   29.5710 C.3   113  ALA113      0.0334
     70  N         20.2010   14.4050   29.0480 N.am  114  ASP114     -0.1971
     71  CA        20.8140   15.2430   28.0040 C.3   114  ASP114      0.1709
     72  C         22.3460   15.1420   28.0290 C.2   114  ASP114      0.2293
     73  O         22.8980   14.3250   28.7780 O.2   114  ASP114     -0.2864
     74  CB        20.3180   16.7010   28.1130 C.3   114  ASP114      0.1436
     75  CG        20.7360   17.4180   29.4230 C.2   114  ASP114      0.3671
     76  OD1       21.7310   17.0340   30.0800 O.co2 114  ASP114     -0.2456
     77  OD2       20.0670   18.4320   29.7790 O.co2 114  ASP114     -0.2456
     78  N         18.6010    7.4480   34.7510 N.3   131  GLN131     -0.1245
     79  CA        17.5090    7.4150   33.7540 C.3   131  GLN131      0.1566
     80  C         17.9800    7.2160   32.3040 C.2   131  GLN131      0.2260
     81  O         17.2340    7.4890   31.3550 O.2   131  GLN131     -0.2867
     82  CB        16.6930    8.7220   33.8440 C.3   131  GLN131      0.0367
     83  CG        15.9260    8.8600   35.1570 C.3   131  GLN131      0.0905
     84  CD        14.6800    8.0110   35.1380 C.2   131  GLN131      0.2608
     85  OE1       14.7610    6.7790   35.1140 O.2   131  GLN131     -0.2717
     86  NE2       13.5200    8.6550   35.0960 N.am  131  GLN131     -0.0878
     87  N         19.8160   10.1120   26.1010 N.3   134  TYR134     -0.1241
     88  CA        19.0590   10.2040   24.8580 C.3   134  TYR134      0.1605
     89  C         19.8560    9.7450   23.6490 C.2   134  TYR134      0.2264
     90  O         19.2790    9.3840   22.6280 O.2   134  TYR134     -0.2867
     91  CB        18.6230   11.6420   24.5910 C.3   134  TYR134      0.0534
     92  CG        17.7130   12.2690   25.6120 C.ar  134  TYR134     -0.0201
     93  CD1       16.6150   11.5840   26.1460 C.ar  134  TYR134     -0.0009
     94  CD2       17.9210   13.5940   26.0110 C.ar  134  TYR134     -0.0009
     95  CE1       15.7650   12.2020   27.0700 C.ar  134  TYR134      0.0417
     96  CE2       17.0850   14.2100   26.9210 C.ar  134  TYR134      0.0417
     97  CZ        16.0110   13.5150   27.4450 C.ar  134  TYR134      0.1957
     98  OH        15.2070   14.1640   28.3460 O.3   134  TYR134     -0.2866
     99  N         15.2020    4.8370   27.5160 N.3   185  LYS185     -0.1245
    100  CA        14.4610    5.5950   28.5260 C.3   185  LYS185      0.1561
    101  C         13.7920    4.6390   29.5040 C.2   185  LYS185      0.2260
    102  O         13.4720    3.5010   29.1670 O.2   185  LYS185     -0.2867
    103  CB        13.4190    6.5220   27.8760 C.3   185  LYS185      0.0271
    104  CG        14.0020    7.5210   26.8760 C.3   185  LYS185      0.0035
    105  CD        12.9490    8.4480   26.2680 C.3   185  LYS185      0.0206
    106  CE        12.8420    9.7730   27.0120 C.3   185  LYS185      0.1093
    107  NZ        12.7220    9.5740   28.4860 N.3   185  LYS185     -0.1314
    108  N         17.4890   21.2670   41.5210 N.3   223  GLY223     -0.1210
    109  CA        16.4660   21.2700   40.4770 C.3   223  GLY223      0.1956
    110  C         15.7330   19.9500   40.3380 C.2   223  GLY223      0.2612
    111  O         15.4180   19.5050   39.2220 O.2   223  GLY223     -0.2717
    112  N         15.4510   19.3270   41.4740 N.am  224  VAL224     -0.1965
    113  CA        14.7390   18.0540   41.4990 C.3   224  VAL224      0.1727
    114  C         13.3410   18.2910   42.0290 C.2   224  VAL224      0.2617
    115  O         13.1850   18.8440   43.1190 O.2   224  VAL224     -0.2715
    116  CB        15.4310   17.0310   42.4080 C.3   224  VAL224      0.0290
    117  CG1       14.6570   15.7160   42.4090 C.3   224  VAL224      0.0023
    118  CG2       16.8780   16.8230   41.9800 C.3   224  VAL224      0.0023
    119  N         12.3350   17.8370   41.2890 N.am  225  GLY225     -0.1940
    120  CA        10.9370   18.0550   41.6610 C.3   225  GLY225      0.2014
    121  C         10.1670   16.7880   41.9850 C.2   225  GLY225      0.2639
    122  O         10.6890   15.8810   42.6450 O.2   225  GLY225     -0.2714
    123  N          8.9220   16.7310   41.5020 N.am  226  HIS226     -0.1959
    124  CA         7.9760   15.6690   41.8410 C.3   226  HIS226      0.1787
    125  C          7.6430   14.7420   40.6830 C.2   226  HIS226      0.2621
    126  O          6.8700   13.8140   40.8590 O.2   226  HIS226     -0.2715
    127  CB         6.6680   16.2750   42.3930 C.3   226  HIS226      0.0785
    128  CG         6.4520   16.0560   43.8610 C.ar  226  HIS226      0.0821
    129  ND1        7.4790   15.8260   44.7500 N.ar  226  HIS226     -0.2267
    130  CD2        5.3140   16.0670   44.5990 C.ar  226  HIS226      0.1154
    131  CE1        6.9840   15.6890   45.9700 C.ar  226  HIS226      0.1986
    132  NE2        5.6710   15.8310   45.9060 N.ar  226  HIS226     -0.2212
    133  N          8.2260   14.9510   39.5110 N.am  227  THR227     -0.1937
    134  CA         8.0000   14.0160   38.4200 C.3   227  THR227      0.2028
    135  C          8.4640   12.5760   38.7500 C.2   227  THR227      0.2642
    136  O          7.7460   11.6380   38.4610 O.2   227  THR227     -0.2714
    137  CB         8.6670   14.5060   37.1300 C.3   227  THR227      0.1808
    138  OG1        8.3090   15.8800   36.9090 O.3   227  THR227     -0.2208
    139  CG2        8.2290   13.6590   35.9390 C.3   227  THR227      0.0379
    140  N          9.6450   12.3910   39.3420 N.am  228  THR228     -0.1950
    141  CA        10.1300   11.0310   39.6790 C.3   228  THR228      0.1897
    142  C         10.9740   11.0560   40.9450 C.2   228  THR228      0.2313
    143  O         12.1580   10.7440   40.9110 O.2   228  THR228     -0.2863
    144  CB        10.9710   10.3570   38.5420 C.3   228  THR228      0.1794
    145  OG1       12.1270   11.1560   38.2110 O.3   228  THR228     -0.2208
    146  CG2       10.1310   10.0940   37.2850 C.3   228  THR228      0.0378
    147  N         16.0440   24.8580   44.9180 N.3   252  ASN252     -0.1225
    148  CA        14.7840   24.7720   44.2070 C.3   252  ASN252      0.1785
    149  C         13.9560   26.0260   44.4790 C.2   252  ASN252      0.2597
    150  O         13.7770   26.4050   45.6340 O.2   252  ASN252     -0.2718
    151  CB        14.0240   23.5230   44.6770 C.3   252  ASN252      0.1169
    152  CG        13.0840   22.9750   43.6210 C.2   252  ASN252      0.2627
    153  OD1       12.1750   23.6630   43.1600 O.2   252  ASN252     -0.2716
    154  ND2       13.3010   21.7350   43.2290 N.am  252  ASN252     -0.0877
    155  N         13.4390   26.6810   43.4440 N.am  253  HIS253     -0.1961
    156  CA        12.6400   27.8910   43.6970 C.3   253  HIS253      0.1787
    157  C         11.2070   27.5670   44.1680 C.2   253  HIS253      0.2620
    158  O         10.4400   28.4750   44.4630 O.2   253  HIS253     -0.2715
    159  CB        12.6690   28.9000   42.5270 C.3   253  HIS253      0.0785
    160  CG        12.1910   28.3590   41.2160 C.ar  253  HIS253      0.0821
    161  ND1       12.4760   28.9770   40.0190 N.ar  253  HIS253     -0.2267
    162  CD2       11.4500   27.2690   40.9060 C.ar  253  HIS253      0.1154
    163  CE1       11.9260   28.3000   39.0280 C.ar  253  HIS253      0.1986
    164  NE2       11.3040   27.2530   39.5380 N.ar  253  HIS253     -0.2212
    165  N         10.8730   26.2760   44.2480 N.am  254  LYS254     -0.1977
    166  CA         9.6400   25.7960   44.8770 C.3   254  LYS254      0.1596
    167  C          9.9380   24.9950   46.1490 C.2   254  LYS254      0.2287
    168  O         10.9700   24.3120   46.2420 O.2   254  LYS254     -0.2864
    169  CB         8.8500   24.9280   43.9010 C.3   254  LYS254      0.0298
    170  CG         8.2710   25.7140   42.7380 C.3   254  LYS254      0.0038
    171  CD         7.1440   24.9540   42.0590 C.3   254  LYS254      0.0206
    172  CE         6.3040   25.8770   41.1850 C.3   254  LYS254      0.1093
    173  NZ         4.9840   25.2640   40.8440 N.3   254  LYS254     -0.1314
    174  N          9.2610   22.0010   48.6310 N.3   256  TYR256     -0.1241
    175  CA         8.7310   20.6330   48.7710 C.3   256  TYR256      0.1605
    176  C          8.8790   20.2080   50.2330 C.2   256  TYR256      0.2264
    177  O          9.9650   20.2980   50.8090 O.2   256  TYR256     -0.2867
    178  CB         9.4700   19.6490   47.8630 C.3   256  TYR256      0.0534
    179  CG         9.2450   19.9030   46.3880 C.ar  256  TYR256     -0.0201
    180  CD1        9.9600   20.8960   45.7210 C.ar  256  TYR256     -0.0009
    181  CD2        8.3190   19.1620   45.6620 C.ar  256  TYR256     -0.0009
    182  CE1        9.7640   21.1420   44.3740 C.ar  256  TYR256      0.0417
    183  CE2        8.1180   19.4020   44.3090 C.ar  256  TYR256      0.0417
    184  CZ         8.8400   20.3990   43.6730 C.ar  256  TYR256      0.1957
    185  OH         8.6560   20.6600   42.3360 O.3   256  TYR256     -0.2866
    186  N         16.8280   30.7800   45.4420 N.3   271  GLU271     -0.1231
    187  CA        17.2960   31.6290   44.3420 C.3   271  GLU271      0.1699
    188  C         17.5080   30.8480   43.0390 C.2   271  GLU271      0.2592
    189  O         17.8740   29.6660   43.0510 O.2   271  GLU271     -0.2718
    190  CB        18.5750   32.3830   44.7350 C.3   271  GLU271      0.0402
    191  CG        18.2970   33.5930   45.6220 C.3   271  GLU271      0.1161
    192  CD        19.5460   34.1680   46.2730 C.2   271  GLU271      0.3649
    193  OE1       20.6540   34.0370   45.6880 O.co2 271  GLU271     -0.2457
    194  OE2       19.4110   34.7650   47.3700 O.co2 271  GLU271     -0.2457
    195  N         17.2670   31.5250   41.9190 N.am  272  HIS272     -0.1962
    196  CA        17.4200   30.9320   40.5970 C.3   272  HIS272      0.1787
    197  C         18.7560   30.1740   40.5660 C.2   272  HIS272      0.2620
    198  O         19.7900   30.7180   40.9310 O.2   272  HIS272     -0.2715
    199  CB        17.3470   32.0460   39.5480 C.3   272  HIS272      0.0785
    200  CG        17.3110   31.5720   38.1290 C.ar  272  HIS272      0.0821
    201  ND1       18.3840   30.9610   37.5210 N.ar  272  HIS272     -0.2267
    202  CD2       16.3600   31.6940   37.1700 C.ar  272  HIS272      0.1154
    203  CE1       18.0870   30.6920   36.2620 C.ar  272  HIS272      0.1986
    204  NE2       16.8600   31.1180   36.0270 N.ar  272  HIS272     -0.2212
    205  N         18.7050   28.8940   40.2070 N.am  273  ILE273     -0.1977
    206  CA        19.8720   28.0050   40.2720 C.3   273  ILE273      0.1596
    207  C         21.1060   28.5700   39.5560 C.2   273  ILE273      0.2287
    208  O         22.2100   28.5180   40.0870 O.2   273  ILE273     -0.2864
    209  CB        19.5340   26.6200   39.6910 C.3   273  ILE273      0.0276
    210  CG1       18.7530   25.8020   40.7180 C.3   273  ILE273      0.0022
    211  CG2       20.7880   25.8580   39.2730 C.3   273  ILE273      0.0022
    212  CD1       17.9130   24.7100   40.0850 C.3   273  ILE273      0.0001
@<TRIPOS>BOND
     1    90    89    2
     2    89    88    1
     3    91    88    1
     4    91    92    1
     5    88    87    1
     6    92    94   ar
     7    92    93   ar
     8    94    96   ar
     9    93    95   ar
    10   105   104    1
    11   105   106    1
    12   104   103    1
    13    96    97   ar
    14   106   107    1
    15    95    97   ar
    16    33    32    2
    17    42    43    1
    18    97    98    1
    19    99   100    1
    20    32    31    1
    21    45    44    2
    22    41    40    1
    23    39    40   ar
    24    39    37   ar
    25    44    43    1
    26    31    30    1
    27    31    34    1
    28   103   100    1
    29    68    67    2
    30    40    38   ar
    31    37    35   ar
    32    71    72    1
    33    71    74    1
    34    71    70    1
    35    72    73    2
    36    74    75    1
    37    43    46    1
    38    38    36   ar
    39    35    36   ar
    40    35    34    1
    41   100   101    1
    42    67    70   am
    43    67    66    1
    44   102   101    2
    45    75    77   ar
    46    75    76   ar
    47    69    66    1
    48    46    47    1
    49    66    65    1
    50    48    47    1
    51    47    49    1
    52    65    59   am
    53    81    80    2
    54    17    16    2
    55    18    19    1
    56    18    15    1
    57    16    15    1
    58    16    20   am
    59    23    22    2
    60    80    79    1
    61    59    60    2
    62    59    58    1
    63    21    20    1
    64    21    22    1
    65    21    24    1
    66    15    14    1
    67    22    25   am
    68    58    61    1
    69    58    57    1
    70    61    62    1
    71    28    27    2
    72    27    26    1
    73    79    82    1
    74    79    78    1
    75    82    83    1
    76    25    26    1
    77    62    63    2
    78    62    64   am
    79    53    52    2
    80     8     7    2
    81    26    29    1
    82     9     6    1
    83    57    52   am
    84    52    51    1
    85    86    84   am
    86    85    84    2
    87    84    83    1
    88     6     7    1
    89     6     5    1
    90     7    10   am
    91   139   137    1
    92   204   203   ar
    93   204   202   ar
    94    13    12    2
    95   203   201   ar
    96     5     3   am
    97    51    50    1
    98    51    54    1
    99    10    11    1
   100    12    11    1
   101     4     3    2
   102   138   137    1
   103     3     2    1
   104    54    55    1
   105    54    56    1
   106   137   134    1
   107   202   200   ar
   108   146   144    1
   109   201   200   ar
   110     2     1    1
   111   200   199    1
   112   145   144    1
   113   134   135    1
   114   134   133    1
   115   136   135    2
   116   144   141    1
   117   135   140   am
   118   163   164   ar
   119   163   161   ar
   120   111   110    2
   121   211   209    1
   122   140   141    1
   123   133   125   am
   124   164   162   ar
   125   199   196    1
   126   207   208    2
   127   207   206    1
   128   141   142    1
   129   209   206    1
   130   209   210    1
   131   161   160   ar
   132   212   210    1
   133   205   206    1
   134   205   197   am
   135   110   109    1
   136   110   112   am
   137   109   108    1
   138   197   196    1
   139   197   198    2
   140   196   195    1
   141   125   126    2
   142   125   124    1
   143   173   172    1
   144   162   160   ar
   145   143   142    2
   146   172   171    1
   147   160   159    1
   148   119   120    1
   149   119   114   am
   150   112   113    1
   151   113   114    1
   152   113   116    1
   153   123   124    1
   154   123   121   am
   155   120   121    1
   156   124   127    1
   157   195   188   am
   158   118   116    1
   159   121   122    2
   160   114   115    2
   161   171   170    1
   162   185   184    1
   163   127   128    1
   164   116   117    1
   165   159   156    1
   166   170   169    1
   167   188   189    2
   168   188   187    1
   169   153   152    2
   170   154   152   am
   171   155   156    1
   172   155   149   am
   173   152   151    1
   174   184   183   ar
   175   184   182   ar
   176   156   157    1
   177   128   130   ar
   178   128   129   ar
   179   169   166    1
   180   157   165   am
   181   157   158    2
   182   148   149    1
   183   148   151    1
   184   148   147    1
   185   165   166    1
   186   183   181   ar
   187   187   190    1
   188   187   186    1
   189   182   180   ar
   190   149   150    2
   191   130   132   ar
   192   190   191    1
   193   129   131   ar
   194   166   167    1
   195   191   192    1
   196   181   179   ar
   197   193   192   ar
   198   180   179   ar
   199   132   131   ar
   200   167   168    2
   201   192   194   ar
   202   179   178    1
   203   178   175    1
   204   174   175    1
   205   175   176    1
   206   176   177    2
