@<TRIPOS>MOLECULE
tmp/5a3hA00.pdb
 152 147 0 0 0
SMALL
GASTEIGER

@<TRIPOS>ATOM
      1  N         62.0260   49.1770   28.2940 N.3    32  HIS32      -0.1241
      2  CA        61.3650   49.0540   29.5920 C.3    32  HIS32       0.1621
      3  C         59.8990   48.8940   29.1750 C.2    32  HIS32       0.2264
      4  O         59.6670   48.5550   27.9970 O.2    32  HIS32      -0.2867
      5  CB        61.7100   50.2640   30.4540 C.3    32  HIS32       0.0745
      6  CG        61.3070   50.2960   31.8930 C.ar   32  HIS32       0.0817
      7  ND1       60.0290   50.3570   32.3570 N.ar   32  HIS32      -0.2268
      8  CD2       62.1240   50.2290   32.9940 C.ar   32  HIS32       0.1154
      9  CE1       60.0430   50.3470   33.6840 C.ar   32  HIS32       0.1986
     10  NE2       61.3070   50.2940   34.0970 N.ar   32  HIS32      -0.2212
     11  N         54.9980   53.0040   29.4000 N.3    36  TRP36      -0.1241
     12  CA        55.6450   54.0260   30.1800 C.3    36  TRP36       0.1605
     13  C         56.7850   54.7070   29.4510 C.2    36  TRP36       0.2264
     14  O         56.9990   55.9220   29.6160 O.2    36  TRP36      -0.2867
     15  CB        56.2540   53.4030   31.4440 C.3    36  TRP36       0.0550
     16  CG        55.3330   52.8000   32.4360 C.ar   36  TRP36       0.0003
     17  CD1       54.1690   53.3330   32.9130 C.ar   36  TRP36       0.0946
     18  CD2       55.5210   51.5460   33.1080 C.ar   36  TRP36       0.0152
     19  NE1       53.6360   52.4730   33.8630 N.ar   36  TRP36      -0.2442
     20  CE2       54.4270   51.3600   33.9790 C.ar   36  TRP36       0.0810
     21  CE3       56.5120   50.5570   33.0460 C.ar   36  TRP36       0.0012
     22  CZ2       54.3000   50.2400   34.7880 C.ar   36  TRP36       0.0191
     23  CZ3       56.3680   49.4410   33.8470 C.ar   36  TRP36       0.0001
     24  CH2       55.2940   49.2830   34.7140 C.ar   36  TRP36       0.0015
     25  N         54.2900   45.0030   28.4550 N.3    63  TYR63      -0.1241
     26  CA        53.6310   44.5930   29.6830 C.3    63  TYR63       0.1605
     27  C         52.1560   44.3210   29.3190 C.2    63  TYR63       0.2264
     28  O         51.5560   45.0210   28.4880 O.2    63  TYR63      -0.2867
     29  CB        53.6350   45.6400   30.7740 C.3    63  TYR63       0.0534
     30  CG        54.7920   45.7310   31.7140 C.ar   63  TYR63      -0.0201
     31  CD1       56.0260   46.1820   31.2520 C.ar   63  TYR63      -0.0009
     32  CD2       54.6840   45.4190   33.0610 C.ar   63  TYR63      -0.0009
     33  CE1       57.1110   46.3060   32.1030 C.ar   63  TYR63       0.0417
     34  CE2       55.7590   45.5290   33.9180 C.ar   63  TYR63       0.0417
     35  CZ        56.9660   45.9900   33.4290 C.ar   63  TYR63       0.1957
     36  OH        58.0540   46.1510   34.2580 O.3    63  TYR63      -0.2866
     37  N         49.7200   46.1810   34.6640 N.3    66  SER66      -0.1217
     38  CA        50.3800   47.4140   35.0670 C.3    66  SER66       0.1889
     39  C         50.2350   48.5230   34.0380 C.2    66  SER66       0.2288
     40  O         51.1570   49.2470   33.6710 O.2    66  SER66      -0.2866
     41  CB        51.8630   47.1830   35.3530 C.3    66  SER66       0.2089
     42  OG        52.0730   46.1270   36.2620 O.3    66  SER66      -0.2183
     43  N         54.8120   40.5310   28.0960 N.3    98  HIS98      -0.1241
     44  CA        55.5250   40.7600   29.3220 C.3    98  HIS98       0.1621
     45  C         54.6640   40.6450   30.5730 C.2    98  HIS98       0.2264
     46  O         54.2740   41.6130   31.1820 O.2    98  HIS98      -0.2867
     47  CB        56.2680   42.0810   29.2220 C.3    98  HIS98       0.0745
     48  CG        57.3040   42.3450   30.2450 C.ar   98  HIS98       0.0817
     49  ND1       58.6280   42.0410   29.9570 N.ar   98  HIS98      -0.2268
     50  CD2       57.2890   42.8680   31.4950 C.ar   98  HIS98       0.1154
     51  CE1       59.3760   42.3900   30.9970 C.ar   98  HIS98       0.1986
     52  NE2       58.5840   42.8600   31.9570 N.ar   98  HIS98      -0.2212
     53  N         54.0060   39.7570   34.4960 N.3   100  LEU100     -0.1231
     54  CA        54.8030   39.9720   35.7260 C.3   100  LEU100      0.1693
     55  C         53.8570   39.9020   36.9270 C.2   100  LEU100      0.2592
     56  O         53.7700   38.8360   37.5420 O.2   100  LEU100     -0.2718
     57  CB        55.5480   41.2830   35.7320 C.3   100  LEU100      0.0284
     58  CG        56.5990   41.4700   36.8330 C.3   100  LEU100      0.0019
     59  CD1       57.7770   40.5130   36.7070 C.3   100  LEU100      0.0001
     60  CD2       57.0670   42.9200   36.8600 C.3   100  LEU100      0.0001
     61  N         53.1340   40.9700   37.2620 N.am  101  SER101     -0.1952
     62  CA        52.1670   40.8890   38.3740 C.3   101  SER101      0.1924
     63  C         51.0500   39.8930   38.1130 C.2   101  SER101      0.2314
     64  O         50.5190   39.2420   39.0340 O.2   101  SER101     -0.2863
     65  CB        51.6030   42.2780   38.6780 C.3   101  SER101      0.2116
     66  OG        52.6570   43.2270   38.6680 O.3   101  SER101     -0.2180
     67  N         56.9850   36.4440   29.6220 N.3   135  ASN135     -0.1225
     68  CA        58.1820   37.0100   30.2060 C.3   135  ASN135      0.1785
     69  C         58.6450   36.2890   31.4750 C.2   135  ASN135      0.2600
     70  O         59.6700   35.6420   31.4940 O.2   135  ASN135     -0.2717
     71  CB        57.9490   38.5000   30.4900 C.3   135  ASN135      0.1169
     72  CG        59.0070   39.0980   31.4000 C.2   135  ASN135      0.2627
     73  OD1       60.1950   39.0200   31.1130 O.2   135  ASN135     -0.2716
     74  ND2       58.6150   39.7000   32.5030 N.am  135  ASN135     -0.0877
     75  N         57.9190   36.4670   32.5640 N.am  136  GLU136     -0.1934
     76  CA        58.3160   35.9290   33.8380 C.3   136  GLU136      0.1818
     77  C         57.1990   35.3340   34.6830 C.2   136  GLU136      0.2332
     78  O         56.6450   35.9530   35.5850 O.2   136  GLU136     -0.2860
     79  CB        59.0330   37.0230   34.6500 C.2   136  GLU136      0.0097
     80  CG        60.4820   37.2940   34.2430 C.2   136  GLU136      0.0837
     81  CD        61.2550   38.2090   35.1560 C.2   136  GLU136      0.3877
     82  OE1       60.6590   38.8580   36.0560 O.co2 136  GLU136     -0.2406
     83  OE2       62.5060   38.2770   35.0500 O.co2 136  GLU136     -0.2406
     84  N         70.1890   38.9190   37.6530 N.3   199  TYR199     -0.1241
     85  CA        70.5090   40.2680   38.1000 C.3   199  TYR199      0.1605
     86  C         71.8710   40.1950   38.7700 C.2   199  TYR199      0.2264
     87  O         72.0360   39.3920   39.6960 O.2   199  TYR199     -0.2867
     88  CB        69.4430   40.8600   39.0230 C.3   199  TYR199      0.0534
     89  CG        68.0760   40.5260   38.4550 C.ar  199  TYR199     -0.0201
     90  CD1       67.5390   41.1960   37.3700 C.ar  199  TYR199     -0.0009
     91  CD2       67.4160   39.4040   38.9530 C.ar  199  TYR199     -0.0009
     92  CE1       66.3240   40.8190   36.8380 C.ar  199  TYR199      0.0417
     93  CE2       66.2150   39.0160   38.4290 C.ar  199  TYR199      0.0417
     94  CZ        65.6780   39.7170   37.3760 C.ar  199  TYR199      0.1957
     95  OH        64.4640   39.3440   36.8580 O.3   199  TYR199     -0.2866
     96  N         66.3660   38.6620   29.5090 N.3   225  GLU225     -0.1245
     97  CA        66.3550   39.8250   30.4100 C.3   225  GLU225      0.1567
     98  C         67.4900   39.5970   31.4310 C.2   225  GLU225      0.2260
     99  O         67.4980   38.5780   32.1340 O.2   225  GLU225     -0.2867
    100  CB        64.9850   39.9380   31.1470 C.3   225  GLU225      0.0388
    101  CG        64.9860   41.2500   31.9960 C.3   225  GLU225      0.1160
    102  CD        64.4090   41.0430   33.3470 C.2   225  GLU225      0.3649
    103  OE1       64.8700   40.1980   34.2500 O.co2 225  GLU225     -0.2457
    104  OE2       63.3160   41.7200   33.8200 O.co2 225  GLU225     -0.2457
    105  N         67.4830   42.4920   41.6280 N.3   231  ALA231     -0.1231
    106  CA        66.2930   41.9220   41.0520 C.3   231  ALA231      0.1694
    107  C         65.1350   42.8830   40.8670 C.2   231  ALA231      0.2593
    108  O         64.2690   42.7300   39.9970 O.2   231  ALA231     -0.2718
    109  CB        65.8400   40.7140   41.8670 C.3   231  ALA231      0.0304
    110  N         65.1130   43.9570   41.6690 N.am  232  THR232     -0.1939
    111  CA        64.0550   44.9570   41.5440 C.3   232  THR232      0.2028
    112  C         64.3540   45.9320   40.4160 C.2   232  THR232      0.2642
    113  O         63.4740   46.7110   40.0240 O.2   232  THR232     -0.2714
    114  CB        64.0220   45.7910   42.8370 C.3   232  THR232      0.1808
    115  OG1       65.3400   46.3400   42.9170 O.3   232  THR232     -0.2208
    116  CG2       63.7300   44.9550   44.0700 C.3   232  THR232      0.0379
    117  N         65.5550   45.8930   39.8350 N.am  233  GLY233     -0.1954
    118  CA        65.9120   46.7980   38.7600 C.3   233  GLY233      0.1869
    119  C         66.6060   48.0300   39.3150 C.2   233  GLY233      0.2309
    120  O         67.0700   48.9110   38.5740 O.2   233  GLY233     -0.2863
    121  N         68.2870   44.6970   30.3900 N.3   259  TRP259     -0.1241
    122  CA        67.2150   45.5030   30.9300 C.3   259  TRP259      0.1605
    123  C         67.8060   46.7250   31.6300 C.2   259  TRP259      0.2264
    124  O         68.5290   46.5300   32.6180 O.2   259  TRP259     -0.2867
    125  CB        66.4580   44.6700   31.9810 C.3   259  TRP259      0.0550
    126  CG        65.2160   45.3760   32.4720 C.ar  259  TRP259      0.0003
    127  CD1       65.1430   46.2030   33.5610 C.ar  259  TRP259      0.0946
    128  CD2       63.8980   45.3160   31.9180 C.ar  259  TRP259      0.0152
    129  NE1       63.8570   46.6430   33.7310 N.ar  259  TRP259     -0.2442
    130  CE2       63.0690   46.1180   32.7280 C.ar  259  TRP259      0.0810
    131  CE3       63.3400   44.6560   30.8150 C.ar  259  TRP259      0.0012
    132  CZ2       61.7170   46.3100   32.4420 C.ar  259  TRP259      0.0191
    133  CZ3       61.9850   44.8420   30.5400 C.ar  259  TRP259      0.0001
    134  CH2       61.2020   45.6950   31.3360 C.ar  259  TRP259      0.0015
    135  N         64.6830   56.2390   33.3390 N.3   264  LYS264     -0.1245
    136  CA        64.1630   56.1330   34.7080 C.3   264  LYS264      0.1561
    137  C         65.3120   56.1690   35.7170 C.2   264  LYS264      0.2260
    138  O         66.3920   55.6150   35.4300 O.2   264  LYS264     -0.2867
    139  CB        63.3930   54.8330   34.9020 C.3   264  LYS264      0.0271
    140  CG        62.6560   54.7120   36.2270 C.3   264  LYS264      0.0035
    141  CD        61.7420   53.5110   36.3330 C.3   264  LYS264      0.0206
    142  CE        61.1370   53.4320   37.7320 C.3   264  LYS264      0.1093
    143  NZ        59.9390   52.5490   37.8290 N.3   264  LYS264     -0.1314
    144  N         66.7290   54.5470   38.1140 N.3   266  GLU266     -0.1196
    145  CA        66.9310   53.2330   38.7600 C.3   266  GLU266      0.1783
    146  C         68.2380   52.7090   38.1720 C.2   266  GLU266      0.2306
    147  O         68.5840   52.9770   37.0110 O.2   266  GLU266     -0.2863
    148  CB        65.8150   52.2260   38.5730 C.2   266  GLU266      0.0071
    149  CG        65.4880   51.8260   37.1530 C.2   266  GLU266      0.0834
    150  CD        64.2330   51.0260   36.9850 C.2   266  GLU266      0.3877
    151  OE1       63.4340   50.9190   37.9680 O.co2 266  GLU266     -0.2406
    152  OE2       64.0230   50.4640   35.8760 O.co2 266  GLU266     -0.2406
@<TRIPOS>BOND
     1     4     3    2
     2    43    44    1
     3     1     2    1
     4    25    26    1
     5    28    27    2
     6     3     2    1
     7    47    44    1
     8    47    48    1
     9    27    26    1
    10    44    45    1
    11    11    12    1
    12    13    14    2
    13    13    12    1
    14    96    97    1
    15     2     5    1
    16    67    68    1
    17    26    29    1
    18    49    48   ar
    19    49    51   ar
    20    12    15    1
    21    68    71    1
    22    68    69    1
    23    48    50   ar
    24   121   122    1
    25    97   100    1
    26    97    98    1
    27     5     6    1
    28    71    72    1
    29   133   131   ar
    30   133   134   ar
    31    45    46    2
    32    29    30    1
    33   131   128   ar
    34   122   123    1
    35   122   125    1
    36    51    52   ar
    37    73    72    2
    38   100   101    1
    39    31    30   ar
    40    31    33   ar
    41   134   132   ar
    42    72    74   am
    43    98    99    2
    44    15    16    1
    45    69    70    2
    46    69    75   am
    47    50    52   ar
    48   123   124    2
    49    30    32   ar
    50     6     7   ar
    51     6     8   ar
    52   128   126   ar
    53   128   130   ar
    54   125   126    1
    55   101   102    1
    56    33    35   ar
    57     7     9   ar
    58    16    17   ar
    59    16    18   ar
    60   132   130   ar
    61   126   127   ar
    62    75    76    1
    63   130   129   ar
    64    17    19   ar
    65     8    10   ar
    66    21    18   ar
    67    21    23   ar
    68    32    34   ar
    69    18    20   ar
    70   135   136    1
    71   102   104   ar
    72   102   103   ar
    73    35    34   ar
    74    35    36    1
    75   127   129   ar
    76    40    39    2
    77     9    10   ar
    78    76    79    1
    79    76    77    1
    80    23    24   ar
    81    19    20   ar
    82    20    22   ar
    83    39    38    1
    84    80    79    2
    85    80    81    1
    86    53    54    1
    87    37    38    1
    88    77    78    2
    89   136   139    1
    90   136   137    1
    91    24    22   ar
    92   139   140    1
    93    83    81   ar
    94    38    41    1
    95    81    82   ar
    96    41    42    1
    97   138   137    2
    98    54    57    1
    99    54    55    1
   100    57    58    1
   101   152   150   ar
   102   140   141    1
   103   141   142    1
   104    59    58    1
   105    58    60    1
   106    92    90   ar
   107    92    94   ar
   108    95    94    1
   109    55    61   am
   110    55    56    2
   111   150   149    1
   112   150   151   ar
   113   147   146    2
   114   149   148    2
   115    61    62    1
   116    90    89   ar
   117    94    93   ar
   118    84    85    1
   119   142   143    1
   120    85    86    1
   121    85    88    1
   122    63    62    1
   123    63    64    2
   124   144   145    1
   125   146   145    1
   126    62    65    1
   127    93    91   ar
   128    89    91   ar
   129    89    88    1
   130   148   145    1
   131   120   119    2
   132    66    65    1
   133   118   119    1
   134   118   117    1
   135    86    87    2
   136   117   112   am
   137   108   107    2
   138   113   112    2
   139   112   111    1
   140   107   106    1
   141   107   110   am
   142   106   105    1
   143   106   109    1
   144   111   110    1
   145   111   114    1
   146   114   115    1
   147   114   116    1
