@<TRIPOS>MOLECULE
tmp/5a3jH01.pdb
 129 125 0 0 0
SMALL
GASTEIGER

@<TRIPOS>ATOM
      1  N        -29.0800  -34.1850  -26.7060 N.3    46  VAL46      -0.1245
      2  CA       -29.0800  -34.4440  -28.1380 C.3    46  VAL46       0.1561
      3  C        -29.2290  -35.9190  -28.4430 C.2    46  VAL46       0.2260
      4  O        -29.9710  -36.3140  -29.3540 O.2    46  VAL46      -0.2867
      5  CB       -27.8070  -33.9770  -28.7930 C.3    46  VAL46       0.0252
      6  CG1      -28.0770  -33.7300  -30.2450 C.3    46  VAL46       0.0019
      7  CG2      -27.2810  -32.7300  -28.0940 C.3    46  VAL46       0.0019
      8  N        -32.7600  -37.1540  -28.1020 N.3    49  LYS49      -0.1245
      9  CA       -33.5580  -36.3940  -29.0710 C.3    49  LYS49       0.1561
     10  C        -33.4130  -36.9370  -30.4920 C.2    49  LYS49       0.2260
     11  O        -34.3780  -37.0000  -31.2380 O.2    49  LYS49      -0.2867
     12  CB       -33.1820  -34.9070  -29.0490 C.3    49  LYS49       0.0271
     13  CG       -33.6700  -34.1430  -27.8100 C.3    49  LYS49       0.0035
     14  CD       -33.4160  -32.6780  -27.9880 C.3    49  LYS49       0.0206
     15  CE       -33.1860  -32.0150  -26.6700 C.3    49  LYS49       0.1093
     16  NZ       -32.2800  -30.8570  -26.8490 N.3    49  LYS49      -0.1314
     17  N        -36.3340  -36.0480  -33.4020 N.3    54  MET54      -0.1230
     18  CA       -36.3910  -34.5960  -33.4550 C.3    54  MET54       0.1702
     19  C        -35.3160  -33.9800  -34.3340 C.2    54  MET54       0.2592
     20  O        -35.4390  -32.8470  -34.7420 O.2    54  MET54      -0.2718
     21  CB       -36.2930  -34.0180  -32.0520 C.3    54  MET54       0.0401
     22  CG       -37.4770  -34.3900  -31.1800 C.3    54  MET54       0.0596
     23  SD       -37.1150  -34.0940  -29.4420 S.3    54  MET54      -0.1393
     24  CE       -36.7650  -32.3900  -29.4800 C.3    54  MET54       0.0692
     25  N        -34.2800  -34.7280  -34.6650 N.am   55  ILE55      -0.1980
     26  CA       -33.1990  -34.1480  -35.4480 C.3    55  ILE55       0.1595
     27  C        -33.2740  -34.6020  -36.9110 C.2    55  ILE55       0.2287
     28  O        -32.3640  -34.3670  -37.7190 O.2    55  ILE55      -0.2864
     29  CB       -31.8350  -34.5180  -34.8300 C.3    55  ILE55       0.0276
     30  CG1      -31.9090  -34.3550  -33.3190 C.3    55  ILE55       0.0022
     31  CG2      -30.7400  -33.6310  -35.3580 C.3    55  ILE55       0.0022
     32  CD1      -32.1900  -32.9530  -32.8990 C.3    55  ILE55       0.0001
     33  N        -31.5920  -34.6490  -40.4660 N.3    58  PHE58      -0.1227
     34  CA       -30.1270  -34.6440  -40.3650 C.3    58  PHE58       0.1736
     35  C        -29.5340  -35.8370  -39.6460 C.2    58  PHE58       0.2595
     36  O        -28.4960  -36.3320  -40.0700 O.2    58  PHE58      -0.2718
     37  CB       -29.6490  -33.3890  -39.6570 C.3    58  PHE58       0.0547
     38  CG       -30.2990  -32.1380  -40.1420 C.ar   58  PHE58      -0.0202
     39  CD1      -30.0740  -31.6740  -41.4270 C.ar   58  PHE58      -0.0042
     40  CD2      -31.1330  -31.4080  -39.3110 C.ar   58  PHE58      -0.0042
     41  CE1      -30.6870  -30.5120  -41.8740 C.ar   58  PHE58      -0.0003
     42  CE2      -31.7290  -30.2390  -39.7550 C.ar   58  PHE58      -0.0003
     43  CZ       -31.5080  -29.7930  -41.0320 C.ar   58  PHE58      -0.0000
     44  N        -30.1680  -36.2540  -38.5400 N.am   59  LEU59      -0.1980
     45  CA       -29.7080  -37.3890  -37.7270 C.3    59  LEU59       0.1596
     46  C        -30.8740  -38.2390  -37.2620 C.2    59  LEU59       0.2287
     47  O        -31.9670  -37.7300  -37.0310 O.2    59  LEU59      -0.2864
     48  CB       -28.9100  -36.9100  -36.5130 C.3    59  LEU59       0.0297
     49  CG       -27.6070  -36.1460  -36.7910 C.3    59  LEU59       0.0022
     50  CD1      -27.0380  -35.5440  -35.5140 C.3    59  LEU59       0.0001
     51  CD2      -26.5760  -37.0370  -37.4860 C.3    59  LEU59       0.0001
     52  N        -27.8860  -40.8020  -39.1560 N.3    61  ARG61      -0.1245
     53  CA       -27.5870  -41.0320  -40.5500 C.3    61  ARG61       0.1563
     54  C        -28.1040  -42.3760  -41.0800 C.2    61  ARG61       0.2260
     55  O        -28.7410  -42.4430  -42.1150 O.2    61  ARG61      -0.2867
     56  CB       -26.0970  -40.9140  -40.7180 C.3    61  ARG61       0.0307
     57  CG       -25.6070  -39.5170  -40.4490 C.3    61  ARG61       0.0489
     58  CD       -25.4830  -38.7670  -41.7530 C.3    61  ARG61       0.2205
     59  NE       -26.4810  -37.7290  -41.9260 N.pl3  61  ARG61      -0.0865
     60  CZ       -26.6070  -36.9850  -43.0180 C.cat  61  ARG61       0.5346
     61  NH1      -25.8020  -37.1730  -44.0510 N.pl3  61  ARG61       0.1354
     62  NH2      -27.5480  -36.0580  -43.0820 N.pl3  61  ARG61       0.1354
     63  N        -20.4980  -36.9060  -34.2960 N.3    97  HIS97      -0.1226
     64  CA       -21.9400  -36.9130  -34.0220 C.3    97  HIS97       0.1752
     65  C        -22.6870  -37.7360  -35.0530 C.2    97  HIS97       0.2595
     66  O        -23.8100  -38.1900  -34.7830 O.2    97  HIS97      -0.2718
     67  CB       -22.5080  -35.5130  -33.9560 C.3    97  HIS97       0.0759
     68  CG       -21.9640  -34.5740  -34.9850 C.ar   97  HIS97       0.0818
     69  ND1      -20.6260  -34.2520  -35.0690 N.ar   97  HIS97      -0.2268
     70  CD2      -22.5900  -33.8380  -35.9370 C.ar   97  HIS97       0.1154
     71  CE1      -20.4490  -33.3760  -36.0430 C.ar   97  HIS97       0.1986
     72  NE2      -21.6250  -33.1050  -36.5810 N.ar   97  HIS97      -0.2212
     73  N        -22.0270  -37.9590  -36.2010 N.am   98  LEU98      -0.1980
     74  CA       -22.5900  -38.6900  -37.3340 C.3    98  LEU98       0.1596
     75  C        -22.6290  -40.1750  -37.0650 C.2    98  LEU98       0.2287
     76  O        -23.5930  -40.8330  -37.4330 O.2    98  LEU98      -0.2864
     77  CB       -21.7900  -38.4260  -38.6020 C.3    98  LEU98       0.0297
     78  CG       -21.7820  -37.0080  -39.1590 C.3    98  LEU98       0.0022
     79  CD1      -20.8700  -36.9150  -40.3750 C.3    98  LEU98       0.0001
     80  CD2      -23.1790  -36.6010  -39.5280 C.3    98  LEU98       0.0001
     81  N        -28.7790  -22.2210  -26.6630 N.3   248  ILE248     -0.1231
     82  CA       -27.8120  -23.2730  -26.9260 C.3   248  ILE248      0.1692
     83  C        -28.5170  -24.5610  -27.3190 C.2   248  ILE248      0.2593
     84  O        -27.8760  -25.5930  -27.5290 O.2   248  ILE248     -0.2718
     85  CB       -26.8940  -23.5060  -25.7190 C.3   248  ILE248      0.0266
     86  CG1      -27.7030  -23.7540  -24.4510 C.3   248  ILE248      0.0019
     87  CG2      -25.9610  -22.3160  -25.5410 C.3   248  ILE248      0.0020
     88  CD1      -27.9390  -25.2070  -24.1350 C.3   248  ILE248      0.0001
     89  N        -29.8380  -24.4970  -27.4420 N.am  249  THR249     -0.1940
     90  CA       -30.6210  -25.6470  -27.8880 C.3   249  THR249      0.2013
     91  C        -31.7470  -25.1920  -28.8220 C.2   249  THR249      0.2484
     92  O        -32.9300  -25.4060  -28.5260 O.2   249  THR249     -0.2729
     93  CB       -31.1840  -26.4290  -26.6680 C.3   249  THR249      0.1807
     94  OG1      -32.1780  -27.3600  -27.0990 O.3   249  THR249     -0.2208
     95  CG2      -31.7950  -25.4750  -25.6330 C.3   249  THR249      0.0379
     96  N        -31.3800  -24.5650  -29.9670 N.am  250  PRO250     -0.2715
     97  CA       -32.2960  -23.7430  -30.7790 C.3   250  PRO250      0.1536
     98  C        -33.2580  -24.5430  -31.6570 C.2   250  PRO250      0.2599
     99  O        -32.8310  -25.3910  -32.4270 O.2   250  PRO250     -0.2715
    100  CB       -31.3360  -22.9220  -31.6520 C.3   250  PRO250      0.0310
    101  CG       -30.2000  -23.8280  -31.8770 C.3   250  PRO250      0.0237
    102  CD       -30.0750  -24.7080  -30.6370 C.3   250  PRO250      0.0939
    103  N        -34.5500  -24.2660  -31.5430 N.am  251  GLY251     -0.1941
    104  CA       -35.5180  -24.9020  -32.4130 C.3   251  GLY251      0.1998
    105  C        -35.9150  -23.9910  -33.5590 C.2   251  GLY251      0.2480
    106  O        -35.2750  -22.9760  -33.8220 O.2   251  GLY251     -0.2729
    107  N        -36.9820  -24.3570  -34.2660 N.am  252  PRO252     -0.2726
    108  CA       -37.5160  -23.5220  -35.3440 C.3   252  PRO252      0.1402
    109  C        -37.9500  -22.1410  -34.8350 C.2   252  PRO252      0.2269
    110  O        -37.7590  -21.1590  -35.5470 O.2   252  PRO252     -0.2865
    111  CB       -38.7180  -24.3210  -35.8360 C.3   252  PRO252      0.0296
    112  CG       -38.4370  -25.7240  -35.4050 C.3   252  PRO252      0.0237
    113  CD       -37.7450  -25.6030  -34.1020 C.3   252  PRO252      0.0939
    114  N        -27.0130  -21.0700  -31.0720 N.3   273  LEU273     -0.1231
    115  CA       -25.6420  -21.5520  -30.9920 C.3   273  LEU273      0.1693
    116  C        -25.4860  -22.9910  -31.4790 C.2   273  LEU273      0.2591
    117  O        -26.1490  -23.8880  -30.9980 O.2   273  LEU273     -0.2718
    118  CB       -25.1190  -21.4470  -29.5650 C.3   273  LEU273      0.0284
    119  CG       -23.6380  -21.8070  -29.4410 C.3   273  LEU273      0.0019
    120  CD1      -22.8670  -20.7470  -28.6790 C.3   273  LEU273      0.0001
    121  CD2      -23.4710  -23.1520  -28.7610 C.3   273  LEU273      0.0001
    122  N        -24.6000  -23.2020  -32.4420 N.am  274  LEU274     -0.1980
    123  CA       -24.1820  -24.5460  -32.7920 C.3   274  LEU274      0.1596
    124  C        -22.7230  -24.6940  -32.4110 C.2   274  LEU274      0.2287
    125  O        -21.8810  -23.8810  -32.7890 O.2   274  LEU274     -0.2864
    126  CB       -24.3790  -24.8660  -34.2850 C.3   274  LEU274      0.0297
    127  CG       -23.8950  -26.3060  -34.5660 C.3   274  LEU274      0.0022
    128  CD1      -24.9390  -27.3310  -34.1430 C.3   274  LEU274      0.0001
    129  CD2      -23.4720  -26.5140  -36.0000 C.3   274  LEU274      0.0001
@<TRIPOS>BOND
     1    61    60    1
     2    62    60    1
     3    60    59    2
     4    55    54    2
     5    59    58    1
     6    41    39   ar
     7    41    43   ar
     8    58    57    1
     9    39    38   ar
    10    54    53    1
    11    43    42   ar
    12    56    53    1
    13    56    57    1
    14    53    52    1
    15    33    34    1
    16    79    78    1
    17    34    37    1
    18    34    35    1
    19    38    37    1
    20    38    40   ar
    21    36    35    2
    22    42    40   ar
    23    35    44   am
    24    80    78    1
    25    78    77    1
    26    77    74    1
    27    44    45    1
    28    45    46    1
    29    45    48    1
    30    28    27    2
    31    51    49    1
    32    76    75    2
    33    74    75    1
    34    74    73    1
    35    46    47    2
    36    27    26    1
    37    49    48    1
    38    49    50    1
    39    72    71   ar
    40    72    70   ar
    41    73    65   am
    42    71    69   ar
    43   129   127    1
    44    70    68   ar
    45   111   112    1
    46   111   108    1
    47   110   109    2
    48    26    29    1
    49    26    25    1
    50   112   113    1
    51    31    29    1
    52   108   109    1
    53   108   107    1
    54    69    68   ar
    55    65    66    2
    56    65    64    1
    57    68    67    1
    58    29    30    1
    59    20    19    2
    60    25    19   am
    61   127   126    1
    62   127   128    1
    63    19    18    1
    64    63    64    1
    65   126   123    1
    66   107   113    1
    67   107   105   am
    68    64    67    1
    69   106   105    2
    70   105   104    1
    71    18    17    1
    72    18    21    1
    73    30    32    1
    74   123   122    1
    75   123   124    1
    76   125   124    2
    77   122   116   am
    78    99    98    2
    79   104   103    1
    80    21    22    1
    81   101   100    1
    82   101   102    1
    83    98   103   am
    84    98    97    1
    85   100    97    1
    86   116   117    2
    87   116   115    1
    88    11    10    2
    89    22    23    1
    90   114   115    1
    91   115   118    1
    92    97    96    1
    93   102    96    1
    94    10     9    1
    95     6     5    1
    96    96    91   am
    97   118   119    1
    98    24    23    1
    99   119   121    1
   100   119   120    1
   101     4     3    2
   102     9    12    1
   103     9     8    1
   104    12    13    1
   105    91    92    2
   106    91    90    1
   107     5     2    1
   108     5     7    1
   109     3     2    1
   110     2     1    1
   111    14    13    1
   112    14    15    1
   113    90    89    1
   114    90    93    1
   115    84    83    2
   116    89    83   am
   117    83    82    1
   118    94    93    1
   119    82    81    1
   120    82    85    1
   121    16    15    1
   122    93    95    1
   123    85    87    1
   124    85    86    1
   125    86    88    1
