@<TRIPOS>MOLECULE
tmp/5a3jF00.pdb
 93 88 0 0 0
SMALL
GASTEIGER

@<TRIPOS>ATOM
      1  N        -55.3390  -13.2000  -35.5780 N.3    46  VAL46      -0.1245
      2  CA       -54.3090  -12.5350  -36.3590 C.3    46  VAL46       0.1561
      3  C        -54.1800  -11.0630  -35.9810 C.2    46  VAL46       0.2260
      4  O        -53.0740  -10.5210  -35.8140 O.2    46  VAL46      -0.2867
      5  CB       -54.5980  -12.5970  -37.8310 C.3    46  VAL46       0.0252
      6  CG1      -53.3040  -12.4240  -38.5650 C.3    46  VAL46       0.0019
      7  CG2      -55.3050  -13.9190  -38.1800 C.3    46  VAL46       0.0019
      8  N        -46.1060  -11.1130  -36.3300 N.3    55  ILE55      -0.1245
      9  CA       -46.1590  -11.3090  -37.7650 C.3    55  ILE55       0.1561
     10  C        -45.0870  -10.4780  -38.4390 C.2    55  ILE55       0.2260
     11  O        -45.0780  -10.3340  -39.6570 O.2    55  ILE55      -0.2867
     12  CB       -47.5440  -10.9500  -38.3280 C.3    55  ILE55       0.0252
     13  CG1      -48.6220  -11.5100  -37.4110 C.3    55  ILE55       0.0019
     14  CG2      -47.7380  -11.5100  -39.7270 C.3    55  ILE55       0.0019
     15  CD1      -48.5120  -13.0080  -37.2150 C.3    55  ILE55       0.0001
     16  N        -43.4630   -9.2420  -41.8880 N.3    58  PHE58      -0.1227
     17  CA       -44.5190   -9.0340  -42.8960 C.3    58  PHE58       0.1736
     18  C        -45.6280   -8.0250  -42.5230 C.2    58  PHE58       0.2595
     19  O        -46.0690   -7.2380  -43.3630 O.2    58  PHE58      -0.2718
     20  CB       -45.1780  -10.3690  -43.2300 C.3    58  PHE58       0.0547
     21  CG       -44.2160  -11.5000  -43.3610 C.ar   58  PHE58      -0.0202
     22  CD1      -43.3130  -11.5350  -44.4090 C.ar   58  PHE58      -0.0042
     23  CD2      -44.2230  -12.5370  -42.4490 C.ar   58  PHE58      -0.0042
     24  CE1      -42.4300  -12.5780  -44.5470 C.ar   58  PHE58      -0.0003
     25  CE2      -43.3430  -13.5900  -42.5800 C.ar   58  PHE58      -0.0003
     26  CZ       -42.4430  -13.6090  -43.6300 C.ar   58  PHE58      -0.0000
     27  N        -46.0920   -8.0660  -41.2800 N.am   59  LEU59      -0.1980
     28  CA       -47.1110   -7.1250  -40.8270 C.3    59  LEU59       0.1596
     29  C        -46.8130   -6.5920  -39.4290 C.2    59  LEU59       0.2287
     30  O        -46.1540   -7.2490  -38.6200 O.2    59  LEU59      -0.2864
     31  CB       -48.5000   -7.7720  -40.8350 C.3    59  LEU59       0.0297
     32  CG       -49.0450   -8.2780  -42.1820 C.3    59  LEU59       0.0022
     33  CD1      -50.3250   -9.0400  -41.9900 C.3    59  LEU59       0.0001
     34  CD2      -49.2870   -7.1480  -43.1460 C.3    59  LEU59       0.0001
     35  N        -47.6940   -3.2390  -42.0690 N.3    61  ARG61      -0.1245
     36  CA       -46.8720   -2.5710  -43.0740 C.3    61  ARG61       0.1563
     37  C        -46.3240   -1.2330  -42.5830 C.2    61  ARG61       0.2260
     38  O        -45.1150   -1.0220  -42.5770 O.2    61  ARG61      -0.2867
     39  CB       -47.6720   -2.3950  -44.3530 C.3    61  ARG61       0.0307
     40  CG       -48.0080   -3.7300  -44.9960 C.3    61  ARG61       0.0489
     41  CD       -47.0040   -4.0720  -46.0560 C.3    61  ARG61       0.2205
     42  NE       -46.1190   -5.1560  -45.6720 N.pl3  61  ARG61      -0.0865
     43  CZ       -45.1130   -5.5700  -46.4260 C.cat  61  ARG61       0.5346
     44  NH1      -44.8660   -4.9770  -47.5780 N.pl3  61  ARG61       0.1354
     45  NH2      -44.3530   -6.5680  -46.0210 N.pl3  61  ARG61       0.1354
     46  N        -55.6700   -7.2320  -45.7190 N.3    97  HIS97      -0.1226
     47  CA       -54.9160   -7.4930  -44.5070 C.3    97  HIS97       0.1752
     48  C        -53.6930   -6.5940  -44.4590 C.2    97  HIS97       0.2595
     49  O        -53.0060   -6.5650  -43.4380 O.2    97  HIS97      -0.2718
     50  CB       -54.5010   -8.9570  -44.4450 C.3    97  HIS97       0.0759
     51  CG       -54.0210   -9.4690  -45.7620 C.ar   97  HIS97       0.0818
     52  ND1      -54.8720   -9.6940  -46.8210 N.ar   97  HIS97      -0.2268
     53  CD2      -52.7770   -9.7390  -46.2140 C.ar   97  HIS97       0.1154
     54  CE1      -54.1750  -10.1070  -47.8610 C.ar   97  HIS97       0.1986
     55  NE2      -52.9000  -10.1430  -47.5190 N.ar   97  HIS97      -0.2212
     56  N        -53.4100   -5.8840  -45.5530 N.am   98  LEU98      -0.1980
     57  CA       -52.2670   -4.9790  -45.5920 C.3    98  LEU98       0.1596
     58  C        -52.6130   -3.6420  -44.9680 C.2    98  LEU98       0.2287
     59  O        -51.7800   -2.9950  -44.3290 O.2    98  LEU98      -0.2864
     60  CB       -51.7770   -4.7610  -47.0190 C.3    98  LEU98       0.0297
     61  CG       -51.1320   -5.9570  -47.7340 C.3    98  LEU98       0.0022
     62  CD1      -50.7460   -5.5770  -49.1380 C.3    98  LEU98       0.0001
     63  CD2      -49.9100   -6.4680  -47.0170 C.3    98  LEU98       0.0001
     64  N        -62.7710  -14.4610  -42.6910 N.3   131  VAL131     -0.1245
     65  CA       -61.5750  -15.2200  -42.3320 C.3   131  VAL131      0.1561
     66  C        -61.8840  -16.5730  -41.6720 C.2   131  VAL131      0.2260
     67  O        -61.3840  -17.6020  -42.1090 O.2   131  VAL131     -0.2867
     68  CB       -60.6890  -14.4620  -41.3640 C.3   131  VAL131      0.0252
     69  CG1      -59.5030  -15.2950  -41.0260 C.3   131  VAL131      0.0019
     70  CG2      -60.2480  -13.1910  -41.9590 C.3   131  VAL131      0.0019
     71  N        -52.5280  -21.4390  -45.5500 N.3   274  LEU274     -0.1231
     72  CA       -52.7300  -20.0080  -45.6980 C.3   274  LEU274      0.1693
     73  C        -54.0080  -19.7680  -46.4860 C.2   274  LEU274      0.2591
     74  O        -54.1610  -20.2820  -47.5870 O.2   274  LEU274     -0.2718
     75  CB       -51.5590  -19.3150  -46.4030 C.3   274  LEU274      0.0284
     76  CG       -51.8360  -17.7840  -46.4450 C.3   274  LEU274      0.0019
     77  CD1      -51.6130  -17.0560  -45.0910 C.3   274  LEU274      0.0001
     78  CD2      -51.1070  -17.0650  -47.5670 C.3   274  LEU274      0.0001
     79  N        -54.9250  -18.9840  -45.9290 N.am  275  LEU275     -0.1980
     80  CA       -56.1750  -18.6750  -46.6040 C.3   275  LEU275      0.1596
     81  C        -55.9470  -17.8620  -47.8670 C.2   275  LEU275      0.2287
     82  O        -55.1360  -16.9270  -47.8920 O.2   275  LEU275     -0.2864
     83  CB       -57.1140  -17.9210  -45.6590 C.3   275  LEU275      0.0297
     84  CG       -58.4220  -17.3810  -46.2210 C.3   275  LEU275      0.0022
     85  CD1      -59.3120  -18.5300  -46.6970 C.3   275  LEU275      0.0001
     86  CD2      -59.1080  -16.5940  -45.1450 C.3   275  LEU275      0.0001
     87  N        -58.7030  -15.8610  -49.7260 N.3   277  PRO277     -0.2116
     88  CA       -60.1070  -15.4530  -49.7630 C.3   277  PRO277      0.1372
     89  C        -60.5790  -15.2040  -51.1850 C.2   277  PRO277      0.2244
     90  O        -60.0260  -14.3400  -51.8550 O.2   277  PRO277     -0.2868
     91  CB       -60.1130  -14.1560  -48.9480 C.3   277  PRO277      0.0268
     92  CG       -58.7240  -13.6420  -49.0580 C.3   277  PRO277      0.0207
     93  CD       -57.8480  -14.8530  -49.0870 C.3   277  PRO277      0.0892
@<TRIPOS>BOND
     1    90    89    2
     2    89    88    1
     3    88    87    1
     4    88    91    1
     5    87    93    1
     6    62    61    1
     7    93    92    1
     8    92    91    1
     9    82    81    2
    10    81    80    1
    11    54    55   ar
    12    54    52   ar
    13    61    60    1
    14    61    63    1
    15    74    73    2
    16    44    43    1
    17    78    76    1
    18    55    53   ar
    19    60    57    1
    20    52    51   ar
    21    85    84    1
    22    80    79    1
    23    80    83    1
    24    73    79   am
    25    73    72    1
    26    76    75    1
    27    76    77    1
    28    43    45    1
    29    43    42    2
    30    75    72    1
    31    84    83    1
    32    84    86    1
    33    53    51   ar
    34    41    42    1
    35    41    40    1
    36    51    50    1
    37    46    47    1
    38    72    71    1
    39    57    56    1
    40    57    58    1
    41    56    48   am
    42    40    39    1
    43    58    59    2
    44    24    22   ar
    45    24    26   ar
    46    47    48    1
    47    47    50    1
    48    48    49    2
    49    22    21   ar
    50    39    36    1
    51    26    25   ar
    52    19    18    2
    53    21    20    1
    54    21    23   ar
    55    20    17    1
    56    34    32    1
    57    36    37    1
    58    36    35    1
    59    17    18    1
    60    17    16    1
    61    64    65    1
    62    37    38    2
    63    25    23   ar
    64    18    27   am
    65    65    66    1
    66    65    68    1
    67    32    33    1
    68    32    31    1
    69    67    66    2
    70    70    68    1
    71    68    69    1
    72    27    28    1
    73    31    28    1
    74    28    29    1
    75    14    12    1
    76    11    10    2
    77    29    30    2
    78     6     5    1
    79    10     9    1
    80    12     9    1
    81    12    13    1
    82     7     5    1
    83     5     2    1
    84     9     8    1
    85    13    15    1
    86     2     3    1
    87     2     1    1
    88     3     4    2
