@<TRIPOS>MOLECULE
tmp/5a3jD01.pdb
 86 81 0 0 0
SMALL
GASTEIGER

@<TRIPOS>ATOM
      1  N         52.2360  -47.6400   21.8710 N.3    45  VAL45      -0.1245
      2  CA        51.2430  -47.2670   20.8840 C.3    45  VAL45       0.1561
      3  C         51.1450  -48.2770   19.7530 C.2    45  VAL45       0.2260
      4  O         50.0400  -48.6370   19.3110 O.2    45  VAL45      -0.2867
      5  CB        51.5690  -45.9180   20.2570 C.3    45  VAL45       0.0252
      6  CG1       50.3020  -45.3140   19.7210 C.3    45  VAL45       0.0019
      7  CG2       52.2530  -45.0090   21.2850 C.3    45  VAL45       0.0019
      8  N         43.1240  -47.9670   19.3650 N.3    54  ILE54      -0.1245
      9  CA        43.1750  -46.6040   18.8490 C.3    54  ILE54       0.1561
     10  C         42.1340  -46.3660   17.7520 C.2    54  ILE54       0.2260
     11  O         42.1260  -45.3450   17.0630 O.2    54  ILE54      -0.2867
     12  CB        44.5720  -46.2540   18.3450 C.3    54  ILE54       0.0252
     13  CG1       45.6150  -46.7590   19.3380 C.3    54  ILE54       0.0019
     14  CG2       44.7460  -44.7330   18.2220 C.3    54  ILE54       0.0019
     15  CD1       45.4500  -46.1800   20.7010 C.3    54  ILE54       0.0001
     16  N         40.5950  -43.8600   15.0590 N.3    57  PHE57      -0.1227
     17  CA        41.6630  -43.0710   14.4350 C.3    57  PHE57       0.1736
     18  C         42.7690  -43.8800   13.7250 C.2    57  PHE57       0.2595
     19  O         43.2500  -43.4730   12.6670 O.2    57  PHE57      -0.2718
     20  CB        42.3100  -42.1790   15.4810 C.3    57  PHE57       0.0547
     21  CG        41.3300  -41.5150   16.3840 C.ar   57  PHE57      -0.0202
     22  CD1       40.4410  -40.5820   15.8880 C.ar   57  PHE57      -0.0042
     23  CD2       41.2900  -41.8270   17.7280 C.ar   57  PHE57      -0.0042
     24  CE1       39.5370  -39.9860   16.7110 C.ar   57  PHE57      -0.0003
     25  CE2       40.3800  -41.2280   18.5570 C.ar   57  PHE57      -0.0003
     26  CZ        39.5060  -40.3150   18.0490 C.ar   57  PHE57      -0.0000
     27  N         43.1830  -45.0040   14.3140 N.am   58  LEU58      -0.1980
     28  CA        44.2590  -45.8340   13.7570 C.3    58  LEU58       0.1596
     29  C         43.9510  -47.3020   13.9660 C.2    58  LEU58       0.2287
     30  O         43.3210  -47.6710   14.9530 O.2    58  LEU58      -0.2864
     31  CB        45.6070  -45.5050   14.3910 C.3    58  LEU58       0.0297
     32  CG        46.1600  -44.0990   14.2270 C.3    58  LEU58       0.0022
     33  CD1       47.4000  -43.9150   15.0780 C.3    58  LEU58       0.0001
     34  CD2       46.4610  -43.8280   12.7840 C.3    58  LEU58       0.0001
     35  N         44.9540  -46.5610    9.7940 N.3    60  ARG60      -0.1245
     36  CA        44.1440  -45.9750    8.7310 C.3    60  ARG60       0.1563
     37  C         43.6040  -47.0170    7.7510 C.2    60  ARG60       0.2260
     38  O         42.4040  -47.0840    7.4980 O.2    60  ARG60      -0.2867
     39  CB        44.9660  -44.9250    8.0060 C.3    60  ARG60       0.0307
     40  CG        45.3420  -43.7380    8.8980 C.3    60  ARG60       0.0489
     41  CD        44.3650  -42.6240    8.6890 C.3    60  ARG60       0.2205
     42  NE        43.4390  -42.4370    9.7980 N.pl3  60  ARG60      -0.0865
     43  CZ        42.4180  -41.5930    9.7650 C.cat  60  ARG60       0.5346
     44  NH1       42.1720  -40.8720    8.6750 N.pl3  60  ARG60       0.1354
     45  NH2       41.6390  -41.4740   10.8220 N.pl3  60  ARG60       0.1354
     46  N         52.9050  -41.4100   11.8890 N.3    96  HIS96      -0.1226
     47  CA        52.1230  -42.3450   12.6660 C.3    96  HIS96       0.1752
     48  C         51.0250  -42.9630   11.8030 C.2    96  HIS96       0.2595
     49  O         50.5480  -44.0560   12.1110 O.2    96  HIS96      -0.2718
     50  CB        51.5350  -41.6800   13.9240 C.3    96  HIS96       0.0759
     51  CG        51.0480  -40.2720   13.7300 C.ar   96  HIS96       0.0818
     52  ND1       51.8630  -39.2430   13.3080 N.ar   96  HIS96      -0.2268
     53  CD2       49.8350  -39.7140   13.9690 C.ar   96  HIS96       0.1154
     54  CE1       51.1640  -38.1210   13.2630 C.ar   96  HIS96       0.1986
     55  NE2       49.9320  -38.3790   13.6620 N.ar   96  HIS96      -0.2212
     56  N         50.6610  -42.2760   10.7120 N.am   97  LEU97      -0.1980
     57  CA        49.5470  -42.6760    9.8420 C.3    97  LEU97       0.1596
     58  C         49.9150  -43.8480    8.9420 C.2    97  LEU97       0.2287
     59  O         49.1000  -44.7380    8.6770 O.2    97  LEU97      -0.2864
     60  CB        49.0910  -41.4950    8.9780 C.3    97  LEU97       0.0297
     61  CG        48.4920  -40.2660    9.6750 C.3    97  LEU97       0.0022
     62  CD1       48.1570  -39.1960    8.6630 C.3    97  LEU97       0.0001
     63  CD2       47.2560  -40.6270   10.4470 C.3    97  LEU97       0.0001
     64  N         59.8130  -40.8460   19.8530 N.3   130  VAL130     -0.1245
     65  CA        58.5990  -40.7750   20.6530 C.3   130  VAL130      0.1561
     66  C         58.8830  -40.6790   22.1510 C.2   130  VAL130      0.2260
     67  O         58.4220  -39.7470   22.8060 O.2   130  VAL130     -0.2867
     68  CB        57.6930  -41.9730   20.4130 C.3   130  VAL130      0.0252
     69  CG1       56.4890  -41.8840   21.3080 C.3   130  VAL130      0.0019
     70  CG2       57.2530  -41.9880   18.9800 C.3   130  VAL130      0.0019
     71  N         49.4900  -34.9770   24.3460 N.3   273  LEU273     -0.1231
     72  CA        49.7110  -35.5580   23.0200 C.3   273  LEU273      0.1693
     73  C         50.9870  -34.9730   22.4470 C.2   273  LEU273      0.2591
     74  O         51.1720  -33.7600   22.4080 O.2   273  LEU273     -0.2718
     75  CB        48.5490  -35.3120   22.0550 C.3   273  LEU273      0.0284
     76  CG        48.8540  -35.9110   20.6700 C.3   273  LEU273      0.0019
     77  CD1       48.6160  -37.4100   20.6620 C.3   273  LEU273      0.0001
     78  CD2       48.1190  -35.2460   19.5080 C.3   273  LEU273      0.0001
     79  N         51.8840  -35.8430   22.0250 N.am  274  LEU274     -0.1980
     80  CA        53.1660  -35.4000   21.5190 C.3   274  LEU274      0.1596
     81  C         53.0010  -34.6480   20.2070 C.2   274  LEU274      0.2287
     82  O         52.2090  -35.0360   19.3440 O.2   274  LEU274     -0.2864
     83  CB        54.0990  -36.5940   21.3350 C.3   274  LEU274      0.0297
     84  CG        55.4430  -36.3410   20.6640 C.3   274  LEU274      0.0022
     85  CD1       56.2570  -35.3640   21.4770 C.3   274  LEU274      0.0001
     86  CD2       56.1940  -37.6410   20.5080 C.3   274  LEU274      0.0001
@<TRIPOS>BOND
     1    38    37    2
     2    37    36    1
     3    39    36    1
     4    39    40    1
     5    62    61    1
     6    44    43    1
     7    59    58    2
     8    41    40    1
     9    41    42    1
    10    36    35    1
    11    58    57    1
    12    60    61    1
    13    60    57    1
    14    61    63    1
    15    43    42    2
    16    43    45    1
    17    57    56    1
    18    56    48   am
    19    48    49    2
    20    48    47    1
    21    46    47    1
    22    47    50    1
    23    19    18    2
    24    34    32    1
    25    54    52   ar
    26    54    55   ar
    27    52    51   ar
    28    55    53   ar
    29    18    27   am
    30    18    17    1
    31    51    50    1
    32    51    53   ar
    33    28    29    1
    34    28    27    1
    35    28    31    1
    36    29    30    2
    37    32    31    1
    38    32    33    1
    39    17    16    1
    40    17    20    1
    41    20    21    1
    42    22    21   ar
    43    22    24   ar
    44    21    23   ar
    45    24    26   ar
    46    11    10    2
    47    23    25   ar
    48    10     9    1
    49    26    25   ar
    50    14    12    1
    51    12     9    1
    52    12    13    1
    53     9     8    1
    54    70    68    1
    55     4     3    2
    56    13    15    1
    57    82    81    2
    58    78    76    1
    59     6     5    1
    60     3     2    1
    61    64    65    1
    62    81    80    1
    63     5     2    1
    64     5     7    1
    65    68    65    1
    66    68    69    1
    67    86    84    1
    68    65    66    1
    69    77    76    1
    70    84    83    1
    71    84    85    1
    72    76    75    1
    73     2     1    1
    74    83    80    1
    75    80    79    1
    76    79    73   am
    77    75    72    1
    78    66    67    2
    79    74    73    2
    80    73    72    1
    81    72    71    1
