@<TRIPOS>MOLECULE
tmp/5a3lA00.pdb
 96 94 0 0 0
SMALL
GASTEIGER

@<TRIPOS>ATOM
      1  N         19.1520  -54.8140   59.9980 N.3    27  LEU27      -0.1245
      2  CA        17.9130  -54.4250   59.2940 C.3    27  LEU27       0.1561
      3  C         16.8130  -54.0280   60.2730 C.2    27  LEU27       0.2260
      4  O         15.6550  -53.8890   59.8860 O.2    27  LEU27      -0.2867
      5  CB        17.4660  -55.5600   58.3580 C.3    27  LEU27       0.0270
      6  CG        18.4530  -55.8540   57.2210 C.3    27  LEU27       0.0019
      7  CD1       17.9570  -57.0050   56.3680 C.3    27  LEU27       0.0001
      8  CD2       18.7240  -54.6470   56.3430 C.3    27  LEU27       0.0001
      9  N         27.2570  -49.7180   44.5040 N.3    60  TRP60      -0.1241
     10  CA        27.3640  -51.1240   44.8860 C.3    60  TRP60       0.1605
     11  C         28.5750  -51.7370   44.1820 C.2    60  TRP60       0.2264
     12  O         28.5940  -51.8450   42.9590 O.2    60  TRP60      -0.2867
     13  CB        26.0890  -51.8690   44.5360 C.3    60  TRP60       0.0550
     14  CG        26.1610  -53.3740   44.6450 C.ar   60  TRP60       0.0003
     15  CD1       25.6470  -54.2690   43.7320 C.ar   60  TRP60       0.0946
     16  CD2       26.7330  -54.1720   45.6840 C.ar   60  TRP60       0.0152
     17  NE1       25.8570  -55.5490   44.1420 N.ar   60  TRP60      -0.2442
     18  CE2       26.5200  -55.5310   45.3360 C.ar   60  TRP60       0.0810
     19  CE3       27.4010  -53.8830   46.8720 C.ar   60  TRP60       0.0012
     20  CZ2       26.9510  -56.5850   46.1210 C.ar   60  TRP60       0.0191
     21  CZ3       27.8310  -54.9460   47.6640 C.ar   60  TRP60       0.0001
     22  CH2       27.6130  -56.2780   47.2790 C.ar   60  TRP60       0.0015
     23  N         17.6490  -47.3050   49.3650 N.3   104  ASP104     -0.1225
     24  CA        18.2190  -48.5650   49.8970 C.3   104  ASP104      0.1805
     25  C         19.3360  -48.1430   50.8480 C.2   104  ASP104      0.2597
     26  O         20.3750  -47.7050   50.3790 O.2   104  ASP104     -0.2718
     27  CB        18.7390  -49.4050   48.7270 C.3   104  ASP104      0.1424
     28  CG        19.3690  -50.7040   49.1580 C.2   104  ASP104      0.3668
     29  OD1       19.6580  -50.8490   50.3700 O.co2 104  ASP104     -0.2456
     30  OD2       19.5540  -51.5960   48.2930 O.co2 104  ASP104     -0.2456
     31  N         19.1580  -48.2330   52.1620 N.am  105  ASP105     -0.1974
     32  CA        18.0800  -48.9390   52.8610 C.3   105  ASP105      0.1709
     33  C         16.9530  -48.0600   53.4400 C.2   105  ASP105      0.2293
     34  O         15.7980  -48.4700   53.4440 O.2   105  ASP105     -0.2864
     35  CB        18.6650  -49.7770   54.0100 C.3   105  ASP105      0.1436
     36  CG        19.3130  -51.0310   53.5320 C.2   105  ASP105      0.3671
     37  OD1       18.5690  -52.0010   53.2860 O.co2 105  ASP105     -0.2456
     38  OD2       20.5260  -51.0460   53.3350 O.co2 105  ASP105     -0.2456
     39  N         13.3780  -49.5320   52.6630 N.3   140  LYS140     -0.1231
     40  CA        13.3640  -50.6610   51.7340 C.3   140  LYS140      0.1678
     41  C         12.9160  -51.9320   52.4400 C.2   140  LYS140      0.2434
     42  O         13.5420  -52.3360   53.4120 O.2   140  LYS140     -0.2733
     43  CB        14.7640  -50.8650   51.1460 C.3   140  LYS140      0.0284
     44  CG        14.8790  -52.0440   50.1850 C.3   140  LYS140      0.0035
     45  CD        16.3200  -52.1880   49.6710 C.3   140  LYS140      0.0206
     46  CE        16.4550  -53.2770   48.6330 C.3   140  LYS140      0.1093
     47  NZ        16.0550  -54.6250   49.1040 N.3   140  LYS140     -0.1314
     48  N         11.8690  -52.6140   51.9280 N.am  141  PRO141     -0.2718
     49  CA        11.5420  -53.9230   52.5330 C.3   141  PRO141      0.1535
     50  C         12.7010  -54.9050   52.3740 C.2   141  PRO141      0.2599
     51  O         13.3880  -54.8900   51.3540 O.2   141  PRO141     -0.2715
     52  CB        10.3080  -54.3950   51.7560 C.3   141  PRO141      0.0310
     53  CG         9.8580  -53.2250   50.9460 C.3   141  PRO141      0.0237
     54  CD        11.0370  -52.3010   50.7710 C.3   141  PRO141      0.0939
     55  N         12.8930  -55.7360   53.3960 N.am  142  SER142     -0.1936
     56  CA        14.0570  -56.5920   53.4740 C.3   142  SER142      0.2055
     57  C         14.1210  -57.5000   52.2700 C.2   142  SER142      0.2643
     58  O         13.1910  -58.2620   52.0420 O.2   142  SER142     -0.2714
     59  CB        14.0010  -57.4310   54.7530 C.3   142  SER142      0.2130
     60  OG        14.1250  -56.5860   55.8730 O.3   142  SER142     -0.2179
     61  N         15.2000  -57.4150   51.4820 N.am  143  ASN143     -0.1971
     62  CA        15.4150  -58.2830   50.3410 C.3   143  ASN143      0.1688
     63  C         14.4190  -58.1530   49.2100 C.2   143  ASN143      0.2292
     64  O         14.3420  -59.0600   48.3910 O.2   143  ASN143     -0.2864
     65  CB        15.5060  -59.7530   50.7980 C.3   143  ASN143      0.1181
     66  CG        16.4830  -59.9360   51.9560 C.2   143  ASN143      0.2629
     67  OD1       16.1100  -60.3470   53.0600 O.2   143  ASN143     -0.2716
     68  ND2       17.7250  -59.5980   51.7110 N.am  143  ASN143     -0.0877
     69  N         23.7410  -52.7400   54.3910 N.3   172  LEU172     -0.1231
     70  CA        24.6430  -53.6720   53.6970 C.3   172  LEU172      0.1693
     71  C         24.4990  -53.4830   52.2160 C.2   172  LEU172      0.2592
     72  O         23.4620  -53.0250   51.7150 O.2   172  LEU172     -0.2718
     73  CB        24.3720  -55.1590   54.0330 C.3   172  LEU172      0.0284
     74  CG        23.0940  -55.8190   53.4850 C.3   172  LEU172      0.0019
     75  CD1       23.2410  -57.3360   53.4370 C.3   172  LEU172      0.0001
     76  CD2       21.8670  -55.4640   54.2860 C.3   172  LEU172      0.0001
     77  N         25.5400  -53.8490   51.4990 N.am  173  GLU173     -0.1966
     78  CA        25.5530  -53.9230   50.0410 C.3   173  GLU173      0.1733
     79  C         25.2010  -52.5760   49.4090 C.2   173  GLU173      0.2616
     80  O         25.8720  -51.5960   49.6830 O.2   173  GLU173     -0.2715
     81  CB        24.7150  -55.1160   49.5360 C.3   173  GLU173      0.0429
     82  CG        25.2480  -56.4330   50.0770 C.3   173  GLU173      0.1163
     83  CD        24.5150  -57.6640   49.5800 C.2   173  GLU173      0.3649
     84  OE1       23.4650  -57.5430   48.9180 O.co2 173  GLU173     -0.2457
     85  OE2       25.0250  -58.7840   49.8580 O.co2 173  GLU173     -0.2457
     86  N         24.1910  -52.5310   48.5420 N.am  174  ARG174     -0.1977
     87  CA        23.9420  -51.3330   47.7480 C.3   174  ARG174      0.1597
     88  C         23.4660  -50.1690   48.6400 C.2   174  ARG174      0.2287
     89  O         22.6180  -50.3460   49.5100 O.2   174  ARG174     -0.2864
     90  CB        22.9110  -51.5980   46.6440 C.3   174  ARG174      0.0334
     91  CG        22.5300  -50.3630   45.8520 C.3   174  ARG174      0.0492
     92  CD        21.5440  -50.6970   44.7210 C.3   174  ARG174      0.2205
     93  NE        22.0870  -51.6450   43.7280 N.pl3 174  ARG174     -0.0865
     94  CZ        22.9120  -51.3420   42.7270 C.cat 174  ARG174      0.5346
     95  NH1       23.3220  -50.1020   42.5420 N.pl3 174  ARG174      0.1354
     96  NH2       23.3310  -52.3070   41.8940 N.pl3 174  ARG174      0.1354
@<TRIPOS>BOND
     1    96    94    1
     2    95    94    1
     3    94    93    2
     4    12    11    2
     5    93    92    1
     6    15    17   ar
     7    15    14   ar
     8    17    18   ar
     9    11    10    1
    10     9    10    1
    11    13    14    1
    12    13    10    1
    13    14    16   ar
    14    92    91    1
    15    18    16   ar
    16    18    20   ar
    17    16    19   ar
    18    91    90    1
    19    20    22   ar
    20    90    87    1
    21    19    21   ar
    22    22    21   ar
    23    87    86    1
    24    87    88    1
    25    30    28   ar
    26    64    63    2
    27    86    79   am
    28    46    47    1
    29    46    45    1
    30    88    89    2
    31    27    28    1
    32    27    24    1
    33    84    83   ar
    34    28    29   ar
    35    63    62    1
    36    23    24    1
    37    79    80    2
    38    79    78    1
    39    81    78    1
    40    81    82    1
    41    83    85   ar
    42    83    82    1
    43    45    44    1
    44    24    25    1
    45    78    77    1
    46    44    43    1
    47    62    65    1
    48    62    61    1
    49    26    25    2
    50    54    53    1
    51    54    48    1
    52    65    66    1
    53    25    31   am
    54    53    52    1
    55    43    40    1
    56    51    50    2
    57    61    57   am
    58    77    71   am
    59    68    66   am
    60    72    71    2
    61    40    41    1
    62    40    39    1
    63    52    49    1
    64    48    41   am
    65    48    49    1
    66    66    67    2
    67    58    57    2
    68    31    32    1
    69    71    70    1
    70    57    56    1
    71    50    49    1
    72    50    55   am
    73    41    42    2
    74    32    33    1
    75    32    35    1
    76    37    36   ar
    77    38    36   ar
    78    55    56    1
    79    75    74    1
    80    33    34    2
    81    56    59    1
    82    74    73    1
    83    74    76    1
    84    36    35    1
    85    70    73    1
    86    70    69    1
    87    59    60    1
    88     8     6    1
    89     7     6    1
    90     6     5    1
    91     5     2    1
    92     2     1    1
    93     2     3    1
    94     4     3    2
