@<TRIPOS>MOLECULE
tmp/5a3mB00.pdb
 103 100 0 0 0
SMALL
GASTEIGER

@<TRIPOS>ATOM
      1  N        -27.5760  -11.2860   18.5430 N.3    27  LEU27      -0.1245
      2  CA       -27.1600  -12.4920   19.2610 C.3    27  LEU27       0.1561
      3  C        -26.7080  -13.5890   18.3230 C.2    27  LEU27       0.2260
      4  O        -26.5220  -14.7340   18.7390 O.2    27  LEU27      -0.2867
      5  CB       -28.2730  -12.9860   20.1630 C.3    27  LEU27       0.0270
      6  CG       -28.6810  -12.0020   21.2660 C.3    27  LEU27       0.0019
      7  CD1      -29.8760  -12.5560   22.0430 C.3    27  LEU27       0.0001
      8  CD2      -27.5430  -11.6800   22.2180 C.3    27  LEU27       0.0001
      9  N        -23.3040   -2.7430   33.9610 N.3    60  TRP60      -0.1241
     10  CA       -24.7060   -2.7650   33.5680 C.3    60  TRP60       0.1605
     11  C        -25.4440   -1.6140   34.2150 C.2    60  TRP60       0.2264
     12  O        -25.5470   -1.5420   35.4320 O.2    60  TRP60      -0.2867
     13  CB       -25.3350   -4.1190   33.9470 C.3    60  TRP60       0.0550
     14  CG       -26.8450   -4.1720   33.8400 C.ar   60  TRP60       0.0003
     15  CD1      -27.7050   -4.7150   34.7590 C.ar   60  TRP60       0.0946
     16  CD2      -27.6680   -3.6310   32.8110 C.ar   60  TRP60       0.0152
     17  NE1      -28.9880   -4.6080   34.3380 N.ar   60  TRP60      -0.2442
     18  CE2      -29.0100   -3.9340   33.1510 C.ar   60  TRP60       0.0810
     19  CE3      -27.4140   -2.9540   31.6110 C.ar   60  TRP60       0.0012
     20  CZ2      -30.0780   -3.5600   32.3460 C.ar   60  TRP60       0.0191
     21  CZ3      -28.4740   -2.5660   30.8260 C.ar   60  TRP60       0.0001
     22  CH2      -29.7900   -2.8720   31.1850 C.ar   60  TRP60       0.0015
     23  N        -20.1780  -12.1280   29.3690 N.3   104  ASP104     -0.1225
     24  CA       -21.4450  -11.6860   28.8100 C.3   104  ASP104      0.1805
     25  C        -21.1210  -10.5800   27.8060 C.2   104  ASP104      0.2597
     26  O        -20.7460   -9.5290   28.2630 O.2   104  ASP104     -0.2718
     27  CB       -22.3210  -11.1850   29.9470 C.3   104  ASP104      0.1424
     28  CG       -23.6710  -10.6690   29.4810 C.2   104  ASP104      0.3668
     29  OD1      -23.8770  -10.4740   28.2820 O.co2 104  ASP104     -0.2456
     30  OD2      -24.5520  -10.4670   30.3020 O.co2 104  ASP104     -0.2456
     31  N        -21.2000  -10.8100   26.4910 N.am  105  ASP105     -0.1974
     32  CA       -21.8480  -11.9610   25.8480 C.3   105  ASP105      0.1709
     33  C        -20.9140  -13.0600   25.3390 C.2   105  ASP105      0.2293
     34  O        -21.2580  -14.2360   25.4060 O.2   105  ASP105     -0.2864
     35  CB       -22.7040  -11.5040   24.6680 C.3   105  ASP105      0.1436
     36  CG       -24.0120  -10.8960   25.1250 C.2   105  ASP105      0.3671
     37  OD1      -24.9670  -11.6490   25.3390 O.co2 105  ASP105     -0.2456
     38  OD2      -24.0380   -9.6570   25.2900 O.co2 105  ASP105     -0.2456
     39  N        -22.1600  -16.6650   26.4000 N.3   140  LYS140     -0.1231
     40  CA       -23.2610  -16.6990   27.3940 C.3   140  LYS140      0.1678
     41  C        -24.5300  -17.2940   26.8080 C.2   140  LYS140      0.2434
     42  O        -24.9850  -16.8370   25.7690 O.2   140  LYS140     -0.2733
     43  CB       -23.5570  -15.2870   27.8640 C.3   140  LYS140      0.0284
     44  CG       -24.6940  -15.1880   28.8610 C.3   140  LYS140      0.0035
     45  CD       -24.9900  -13.7460   29.1980 C.3   140  LYS140      0.0206
     46  CE       -26.1080  -13.6290   30.2110 C.3   140  LYS140      0.1093
     47  NZ       -27.3950  -14.2060   29.7260 N.3   140  LYS140     -0.1314
     48  N        -25.1450  -18.2580   27.4970 N.am  141  PRO141     -0.2718
     49  CA       -26.4920  -18.6650   27.0350 C.3   141  PRO141      0.1535
     50  C        -27.5000  -17.5510   27.2330 C.2   141  PRO141      0.2599
     51  O        -27.4360  -16.8140   28.2060 O.2   141  PRO141     -0.2715
     52  CB       -26.8400  -19.8970   27.8910 C.3   141  PRO141      0.0310
     53  CG       -25.6390  -20.1710   28.7350 C.3   141  PRO141      0.0237
     54  CD       -24.7200  -19.0060   28.6980 C.3   141  PRO141      0.0939
     55  N        -28.4720  -17.4620   26.3470 N.am  142  SER142     -0.1936
     56  CA       -29.4700  -16.3880   26.4260 C.3   142  SER142      0.2055
     57  C        -30.1970  -16.3570   27.7550 C.2   142  SER142      0.2643
     58  O        -30.5340  -15.2990   28.2540 O.2   142  SER142     -0.2714
     59  CB       -30.5170  -16.5530   25.3340 C.3   142  SER142      0.2130
     60  OG       -31.3050  -17.7120   25.5520 O.3   142  SER142     -0.2179
     61  N        -30.4390  -17.5230   28.3190 N.am  143  ASN143     -0.1971
     62  CA       -31.3580  -17.6200   29.4550 C.3   143  ASN143      0.1688
     63  C        -30.7410  -17.6560   30.8560 C.2   143  ASN143      0.2292
     64  O        -31.4750  -17.7910   31.8330 O.2   143  ASN143     -0.2864
     65  CB       -32.2450  -18.8540   29.2870 C.3   143  ASN143      0.1181
     66  CG       -31.4650  -20.1630   29.4220 C.2   143  ASN143      0.2629
     67  OD1      -30.2310  -20.1770   29.4860 O.2   143  ASN143     -0.2716
     68  ND2      -32.1860  -21.2790   29.4270 N.am  143  ASN143     -0.0877
     69  N        -27.0010  -16.4390   33.4710 N.3   145  VAL145     -0.1245
     70  CA       -25.6460  -15.9600   33.6560 C.3   145  VAL145      0.1561
     71  C        -24.7070  -17.0330   33.1150 C.2   145  VAL145      0.2260
     72  O        -24.9540  -18.2080   33.2450 O.2   145  VAL145     -0.2867
     73  CB       -25.3900  -15.6630   35.1470 C.3   145  VAL145      0.0252
     74  CG1      -23.9280  -15.3530   35.4280 C.3   145  VAL145      0.0019
     75  CG2      -26.2990  -14.5040   35.5820 C.3   145  VAL145      0.0019
     76  N        -25.8830   -6.5880   24.1480 N.3   172  LEU172     -0.1231
     77  CA       -26.8930   -5.7190   24.8040 C.3   172  LEU172      0.1693
     78  C        -26.7290   -5.8380   26.3020 C.2   172  LEU172      0.2592
     79  O        -26.2190   -6.8550   26.8040 O.2   172  LEU172     -0.2718
     80  CB       -28.3520   -6.0870   24.4480 C.3   172  LEU172      0.0284
     81  CG       -28.9560   -7.3770   25.0150 C.3   172  LEU172      0.0019
     82  CD1      -30.4950   -7.3170   24.9830 C.3   172  LEU172      0.0001
     83  CD2      -28.4460   -8.5600   24.2370 C.3   172  LEU172      0.0001
     84  N        -27.1540   -4.7960   27.0060 N.am  173  GLU173     -0.1966
     85  CA       -27.2510   -4.7790   28.4440 C.3   173  GLU173      0.1733
     86  C        -25.9150   -5.0410   29.0930 C.2   173  GLU173      0.2616
     87  O        -24.9370   -4.3260   28.7970 O.2   173  GLU173     -0.2715
     88  CB       -28.3850   -5.7110   28.9200 C.3   173  GLU173      0.0429
     89  CG       -29.7130   -5.2400   28.3860 C.3   173  GLU173      0.1163
     90  CD       -30.9070   -6.0540   28.8110 C.2   173  GLU173      0.3649
     91  OE1      -30.7470   -7.1520   29.3540 O.co2 173  GLU173     -0.2457
     92  OE2      -32.0270   -5.6020   28.5230 O.co2 173  GLU173     -0.2457
     93  N        -25.8340   -6.0260   29.9770 N.am  174  ARG174     -0.1977
     94  CA       -24.6140   -6.2150   30.7760 C.3   174  ARG174      0.1597
     95  C        -23.4180   -6.6240   29.9140 C.2   174  ARG174      0.2287
     96  O        -23.5230   -7.5050   29.0740 O.2   174  ARG174     -0.2864
     97  CB       -24.8230   -7.2670   31.8610 C.3   174  ARG174      0.0334
     98  CG       -23.5700   -7.5720   32.6620 C.3   174  ARG174      0.0492
     99  CD       -23.8340   -8.5470   33.7950 C.3   174  ARG174      0.2205
    100  NE       -24.2020   -7.8840   35.0420 N.pl3 174  ARG174     -0.0865
    101  CZ       -25.3830   -7.9370   35.6250 C.cat 174  ARG174      0.5346
    102  NH1      -26.3980   -8.5540   35.0470 N.pl3 174  ARG174      0.1354
    103  NH2      -25.5240   -7.3750   36.8160 N.pl3 174  ARG174      0.1354
@<TRIPOS>BOND
     1     3     4    2
     2     3     2    1
     3     1     2    1
     4     2     5    1
     5     5     6    1
     6     6     7    1
     7     6     8    1
     8    76    77    1
     9    83    81    1
    10    80    77    1
    11    80    81    1
    12    35    36    1
    13    35    32    1
    14    77    78    1
    15    82    81    1
    16    36    38   ar
    17    36    37   ar
    18    59    60    1
    19    59    56    1
    20    33    34    2
    21    33    32    1
    22    42    41    2
    23    32    31    1
    24    78    79    2
    25    78    84   am
    26    55    56    1
    27    55    50   am
    28    39    40    1
    29    56    57    1
    30    31    25   am
    31    41    40    1
    32    41    48   am
    33    84    85    1
    34    49    50    1
    35    49    48    1
    36    49    52    1
    37    50    51    2
    38    40    43    1
    39    48    54    1
    40    57    58    2
    41    57    61   am
    42    25    26    2
    43    25    24    1
    44    43    44    1
    45    52    53    1
    46    29    28   ar
    47    61    62    1
    48    89    90    1
    49    89    88    1
    50    85    88    1
    51    85    86    1
    52    92    90   ar
    53    54    53    1
    54    87    86    2
    55    24    23    1
    56    24    27    1
    57    90    91   ar
    58    44    45    1
    59    96    95    2
    60    86    93   am
    61    45    46    1
    62    65    66    1
    63    65    62    1
    64    66    68   am
    65    66    67    2
    66    62    63    1
    67    28    27    1
    68    28    30   ar
    69    47    46    1
    70    95    94    1
    71    93    94    1
    72    94    97    1
    73    21    22   ar
    74    21    19   ar
    75    63    64    2
    76    22    20   ar
    77    19    16   ar
    78    97    98    1
    79    20    18   ar
    80    98    99    1
    81    16    18   ar
    82    16    14   ar
    83    71    72    2
    84    71    70    1
    85    18    17   ar
    86    69    70    1
    87    10    13    1
    88    10     9    1
    89    10    11    1
    90    70    73    1
    91    99   100    1
    92    14    13    1
    93    14    15   ar
    94    11    12    2
    95    17    15   ar
    96   100   101    2
    97   102   101    1
    98    73    74    1
    99    73    75    1
   100   101   103    1
