@<TRIPOS>MOLECULE
tmp/5a3nA00.pdb
 192 183 0 0 0
SMALL
GASTEIGER

@<TRIPOS>ATOM
      1  N         83.3220   56.8420    5.0530 N.3    75  ARG75      -0.1231
      2  CA        83.1330   57.6850    6.2310 C.3    75  ARG75       0.1694
      3  C         83.1050   56.8840    7.5510 C.2    75  ARG75       0.2591
      4  O         83.5600   57.3890    8.5620 O.2    75  ARG75      -0.2718
      5  CB        81.9030   58.5900    6.0890 C.3    75  ARG75       0.0321
      6  CG        81.9010   59.7280    7.0980 C.3    75  ARG75       0.0489
      7  CD        80.8960   60.8150    6.7630 C.3    75  ARG75       0.2205
      8  NE        80.5960   61.6220    7.9490 N.pl3  75  ARG75      -0.0865
      9  CZ        79.6790   62.5870    8.0210 C.cat  75  ARG75       0.5346
     10  NH1       78.9390   62.9180    6.9640 N.pl3  75  ARG75       0.1354
     11  NH2       79.5060   63.2340    9.1730 N.pl3  75  ARG75       0.1354
     12  N         82.6180   55.6380    7.5250 N.am   76  VAL76      -0.1980
     13  CA        82.6800   54.7270    8.6880 C.3    76  VAL76       0.1595
     14  C         83.0410   53.2870    8.2740 C.2    76  VAL76       0.2287
     15  O         82.5940   52.8140    7.2280 O.2    76  VAL76      -0.2864
     16  CB        81.3480   54.7280    9.4830 C.3    76  VAL76       0.0276
     17  CG1       81.1310   56.0770   10.1650 C.3    76  VAL76       0.0022
     18  CG2       80.1540   54.3890    8.5910 C.3    76  VAL76       0.0022
     19  N         93.2600   55.7490   13.1710 N.3   128  TYR128     -0.1241
     20  CA        92.2510   56.7860   13.4770 C.3   128  TYR128      0.1605
     21  C         91.1830   56.1900   14.4170 C.2   128  TYR128      0.2264
     22  O         90.4940   55.2540   14.0230 O.2   128  TYR128     -0.2867
     23  CB        91.6140   57.2400   12.1530 C.3   128  TYR128      0.0534
     24  CG        90.5340   58.3250   12.2250 C.ar  128  TYR128     -0.0201
     25  CD1       89.1640   57.9960   12.3520 C.ar  128  TYR128     -0.0009
     26  CD2       90.8720   59.6860   12.1020 C.ar  128  TYR128     -0.0009
     27  CE1       88.1800   58.9990   12.3920 C.ar  128  TYR128      0.0417
     28  CE2       89.9030   60.6850   12.1400 C.ar  128  TYR128      0.0417
     29  CZ        88.5590   60.3520   12.2830 C.ar  128  TYR128      0.1957
     30  OH        87.6350   61.3780   12.3150 O.3   128  TYR128     -0.2866
     31  N         87.5970   56.3870   16.3100 N.3   130  ALA130     -0.1245
     32  CA        86.2620   57.0330   16.4150 C.3   130  ALA130      0.1562
     33  C         85.2300   56.1080   17.1030 C.2   130  ALA130      0.2260
     34  O         85.0090   55.0140   16.6220 O.2   130  ALA130     -0.2867
     35  CB        85.7570   57.4500   15.0540 C.3   130  ALA130      0.0290
     36  N         73.1830   58.4020   17.3380 N.3   184  GLY184     -0.1225
     37  CA        74.2970   59.1130   16.7110 C.3   184  GLY184      0.1811
     38  C         74.2770   60.6400   16.7370 C.2   184  GLY184      0.2280
     39  O         75.3340   61.2590   16.6270 O.2   184  GLY184     -0.2866
     40  N         80.5720   61.6490   20.4450 N.3   189  TRP189     -0.1241
     41  CA        81.5350   60.7040   19.8970 C.3   189  TRP189      0.1605
     42  C         82.9390   61.0930   20.3450 C.2   189  TRP189      0.2264
     43  O         83.2510   62.2820   20.4580 O.2   189  TRP189     -0.2867
     44  CB        81.4720   60.7280   18.3710 C.3   189  TRP189      0.0550
     45  CG        80.2110   60.1500   17.8560 C.ar  189  TRP189      0.0003
     46  CD1       78.9810   60.7350   17.8570 C.ar  189  TRP189      0.0946
     47  CD2       80.0450   58.8560   17.2870 C.ar  189  TRP189      0.0152
     48  NE1       78.0570   59.8820   17.3130 N.ar  189  TRP189     -0.2442
     49  CE2       78.6870   58.7250   16.9410 C.ar  189  TRP189      0.0810
     50  CE3       80.9230   57.7980   17.0050 C.ar  189  TRP189      0.0012
     51  CZ2       78.1720   57.5650   16.3480 C.ar  189  TRP189      0.0191
     52  CZ3       80.4110   56.6410   16.4100 C.ar  189  TRP189      0.0001
     53  CH2       79.0490   56.5380   16.0890 C.ar  189  TRP189      0.0015
     54  N         87.1570   60.8230   19.8390 N.3   191  TYR191     -0.1241
     55  CA        88.2010   60.6680   18.8150 C.3   191  TYR191      0.1605
     56  C         89.5700   60.6710   19.4830 C.2   191  TYR191      0.2264
     57  O         89.9550   61.6710   20.0670 O.2   191  TYR191     -0.2867
     58  CB        88.1200   61.8090   17.8130 C.3   191  TYR191      0.0534
     59  CG        86.7910   61.9010   17.1000 C.ar  191  TYR191     -0.0201
     60  CD1       86.5160   61.0950   15.9980 C.ar  191  TYR191     -0.0009
     61  CD2       85.8120   62.7800   17.5320 C.ar  191  TYR191     -0.0009
     62  CE1       85.3020   61.1710   15.3290 C.ar  191  TYR191      0.0417
     63  CE2       84.5900   62.8600   16.8830 C.ar  191  TYR191      0.0417
     64  CZ        84.3400   62.0560   15.7820 C.ar  191  TYR191      0.1957
     65  OH        83.1380   62.1640   15.1530 O.3   191  TYR191     -0.2866
     66  N         90.6490   63.7280    9.4770 N.3   199  PHE199     -0.1241
     67  CA        89.2310   63.7210    9.1450 C.3   199  PHE199      0.1605
     68  C         89.0510   64.3750    7.7780 C.2   199  PHE199      0.2264
     69  O         89.4130   65.5450    7.5750 O.2   199  PHE199     -0.2867
     70  CB        88.3120   64.3160   10.2430 C.3   199  PHE199      0.0534
     71  CG        88.7100   65.6650   10.7810 C.ar  199  PHE199     -0.0203
     72  CD1       89.7260   65.7900   11.7360 C.ar  199  PHE199     -0.0042
     73  CD2       87.9930   66.8090   10.4230 C.ar  199  PHE199     -0.0042
     74  CE1       90.0460   67.0330   12.2780 C.ar  199  PHE199     -0.0003
     75  CE2       88.3110   68.0440   10.9590 C.ar  199  PHE199     -0.0003
     76  CZ        89.3440   68.1630   11.8860 C.ar  199  PHE199     -0.0000
     77  N         83.9510   66.9350    4.9270 N.3   202  HIS202     -0.1241
     78  CA        82.5600   66.4980    5.1000 C.3   202  HIS202      0.1621
     79  C         81.7340   67.6020    5.7010 C.2   202  HIS202      0.2264
     80  O         82.2570   68.6020    6.2170 O.2   202  HIS202     -0.2867
     81  CB        82.5090   65.2760    6.0130 C.3   202  HIS202      0.0745
     82  CG        82.8740   65.6090    7.4120 C.ar  202  HIS202      0.0817
     83  ND1       84.1790   65.8430    7.8070 N.ar  202  HIS202     -0.2268
     84  CD2       82.1010   65.8610    8.4870 C.ar  202  HIS202      0.1154
     85  CE1       84.1860   66.1980    9.0780 C.ar  202  HIS202      0.1986
     86  NE2       82.9350   66.2210    9.5080 N.ar  202  HIS202     -0.2212
     87  N         78.0160   67.7980    8.2950 N.3   204  GLU204     -0.1231
     88  CA        77.3420   66.9430    9.2840 C.3   204  GLU204      0.1699
     89  C         75.9730   66.4790    8.7640 C.2   204  GLU204      0.2592
     90  O         75.4000   67.0770    7.8510 O.2   204  GLU204     -0.2718
     91  CB        77.1810   67.6460   10.6230 C.3   204  GLU204      0.0402
     92  CG        78.4550   68.2040   11.2480 C.3   204  GLU204      0.1161
     93  CD        79.5900   67.1890   11.3740 C.2   204  GLU204      0.3649
     94  OE1       79.3490   65.9810   11.5300 O.co2 204  GLU204     -0.2457
     95  OE2       80.7470   67.6100   11.3100 O.co2 204  GLU204     -0.2457
     96  N         75.4910   65.3880    9.3370 N.am  205  ASP205     -0.1974
     97  CA        74.1820   64.8490    8.9870 C.3   205  ASP205      0.1709
     98  C         73.0950   65.8890    9.1930 C.2   205  ASP205      0.2293
     99  O         73.0880   66.5990   10.1970 O.2   205  ASP205     -0.2864
    100  CB        73.8920   63.6100    9.8260 C.3   205  ASP205      0.1436
    101  CG        74.7420   62.4300    9.4290 C.2   205  ASP205      0.3671
    102  OD1       75.2040   62.3680    8.2720 O.co2 205  ASP205     -0.2456
    103  OD2       74.9380   61.5580   10.2920 O.co2 205  ASP205     -0.2456
    104  N         78.0670   71.2040   14.5970 N.3   210  SER210     -0.1217
    105  CA        78.7860   70.3180   15.5120 C.3   210  SER210      0.1889
    106  C         79.5730   71.1720   16.5040 C.2   210  SER210      0.2288
    107  O         79.9760   72.2880   16.2000 O.2   210  SER210     -0.2866
    108  CB        79.6980   69.3010   14.8070 C.3   210  SER210      0.2089
    109  OG        80.9020   69.8840   14.2940 O.3   210  SER210     -0.2183
    110  N         82.8800   70.6740   19.1540 N.3   212  ASN212     -0.1240
    111  CA        84.0300   69.7890   19.2290 C.3   212  ASN212      0.1653
    112  C         84.9640   70.3070   20.3210 C.2   212  ASN212      0.2266
    113  O         85.3680   71.4600   20.2830 O.2   212  ASN212     -0.2867
    114  CB        84.7600   69.8070   17.8770 C.3   212  ASN212      0.1155
    115  CG        83.8660   69.4110   16.6990 C.2   212  ASN212      0.2627
    116  OD1       83.9010   68.2680   16.2420 O.2   212  ASN212     -0.2716
    117  ND2       83.0700   70.3690   16.1920 N.am  212  ASN212     -0.0877
    118  N         94.7890   69.9430   17.3240 N.3   220  LYS220     -0.1245
    119  CA        94.0470   69.4550   16.1730 C.3   220  LYS220      0.1561
    120  C         93.9640   70.6050   15.1910 C.2   220  LYS220      0.2260
    121  O         93.4810   71.6880   15.5340 O.2   220  LYS220     -0.2867
    122  CB        92.6480   68.9980   16.6090 C.3   220  LYS220      0.0271
    123  CG        91.8220   68.3190   15.5260 C.3   220  LYS220      0.0035
    124  CD        90.3790   68.0260   15.9800 C.3   220  LYS220      0.0206
    125  CE        90.2950   67.0030   17.0960 C.3   220  LYS220      0.1093
    126  NZ        90.7890   65.6530   16.7200 N.3   220  LYS220     -0.1314
    127  N         92.5070   72.3830   11.8550 N.3   222  TRP222     -0.1241
    128  CA        91.2390   72.3970   11.1330 C.3   222  TRP222      0.1605
    129  C         91.2930   73.2660    9.9070 C.2   222  TRP222      0.2264
    130  O         91.9530   74.3050    9.9030 O.2   222  TRP222     -0.2867
    131  CB        90.1440   73.0130   11.9940 C.3   222  TRP222      0.0550
    132  CG        89.7450   72.2410   13.1730 C.ar  222  TRP222      0.0003
    133  CD1       90.4580   72.0460   14.3190 C.ar  222  TRP222      0.0946
    134  CD2       88.4870   71.5900   13.3620 C.ar  222  TRP222      0.0152
    135  NE1       89.7300   71.2930   15.2050 N.ar  222  TRP222     -0.2442
    136  CE2       88.5160   70.9910   14.6380 C.ar  222  TRP222      0.0810
    137  CE3       87.3420   71.4400   12.5590 C.ar  222  TRP222      0.0012
    138  CZ2       87.4280   70.2550   15.1500 C.ar  222  TRP222      0.0191
    139  CZ3       86.2640   70.7100   13.0620 C.ar  222  TRP222      0.0001
    140  CH2       86.3170   70.1330   14.3480 C.ar  222  TRP222      0.0015
    141  N         79.2580   56.2190    2.5450 N.3   254  GLN254     -0.1245
    142  CA        79.5770   57.5790    2.0910 C.3   254  GLN254      0.1566
    143  C         81.0720   57.6850    1.8070 C.2   254  GLN254      0.2260
    144  O         81.8940   57.2220    2.6030 O.2   254  GLN254     -0.2867
    145  CB        79.2060   58.6160    3.1520 C.3   254  GLN254      0.0367
    146  CG        77.7370   58.6450    3.5360 C.3   254  GLN254      0.0905
    147  CD        77.4940   59.4620    4.7950 C.2   254  GLN254      0.2608
    148  OE1       77.6200   60.6900    4.7960 O.2   254  GLN254     -0.2717
    149  NE2       77.1530   58.7790    5.8790 N.am  254  GLN254     -0.0878
    150  N         84.3000   70.8800    6.5070 N.3   290  HIS290     -0.1241
    151  CA        85.5360   70.9180    7.2710 C.3   290  HIS290      0.1621
    152  C         86.3200   69.6280    7.1440 C.2   290  HIS290      0.2264
    153  O         85.7580   68.5630    6.8290 O.2   290  HIS290     -0.2867
    154  CB        85.2900   71.2650    8.7450 C.3   290  HIS290      0.0745
    155  CG        84.2810   70.3940    9.4190 C.ar  290  HIS290      0.0817
    156  ND1       82.9260   70.5600    9.2300 N.ar  290  HIS290     -0.2268
    157  CD2       84.4180   69.3690   10.2940 C.ar  290  HIS290      0.1154
    158  CE1       82.2720   69.6660    9.9450 C.ar  290  HIS290      0.1986
    159  NE2       83.1520   68.9370   10.6080 N.ar  290  HIS290     -0.2212
    160  N         95.3640   65.6030   13.1770 N.3   294  ASN294     -0.1240
    161  CA        95.8850   65.7600   14.5110 C.3   294  ASN294      0.1653
    162  C         97.3950   65.9840   14.4460 C.2   294  ASN294      0.2266
    163  O         98.0770   65.3960   13.6080 O.2   294  ASN294     -0.2867
    164  CB        95.5460   64.5250   15.3290 C.3   294  ASN294      0.1155
    165  CG        94.0510   64.3930   15.5370 C.2   294  ASN294      0.2627
    166  OD1       93.4380   65.2810   16.1410 O.2   294  ASN294     -0.2716
    167  ND2       93.4480   63.3450   14.9690 N.am  294  ASN294     -0.0877
    168  N         89.5970   63.9510   21.8250 N.3   300  ALA300     -0.1245
    169  CA        88.5750   64.9190   21.4860 C.3   300  ALA300      0.1562
    170  C         87.1770   64.3070   21.5880 C.2   300  ALA300      0.2260
    171  O         87.0080   63.0940   21.5540 O.2   300  ALA300     -0.2867
    172  CB        88.8020   65.4490   20.0830 C.3   300  ALA300      0.0290
    173  N         82.9590   65.1980   20.3640 N.3   302  ALA302     -0.1231
    174  CA        82.1280   66.0140   19.5200 C.3   302  ALA302      0.1694
    175  C         80.6580   65.5730   19.5720 C.2   302  ALA302      0.2592
    176  O         80.3740   64.3930   19.7730 O.2   302  ALA302     -0.2718
    177  CB        82.6420   65.9510   18.0960 C.3   302  ALA302      0.0304
    178  N         79.7550   66.5150   19.3470 N.am  303  VAL303     -0.1966
    179  CA        78.3270   66.2000   19.2830 C.3   303  VAL303      0.1727
    180  C         77.6610   67.0490   18.2250 C.2   303  VAL303      0.2616
    181  O         78.0320   68.2200   18.0290 O.2   303  VAL303     -0.2715
    182  CB        77.6630   66.3630   20.6850 C.3   303  VAL303      0.0290
    183  CG1       77.4500   67.8120   21.0450 C.3   303  VAL303      0.0023
    184  CG2       76.3640   65.5820   20.7840 C.3   303  VAL303      0.0023
    185  N         76.6790   66.4470   17.5480 N.am  304  ASN304     -0.1972
    186  CA        75.7790   67.1720   16.6540 C.3   304  ASN304      0.1688
    187  C         74.8600   68.0370   17.4820 C.2   304  ASN304      0.2292
    188  O         74.6500   67.7720   18.6560 O.2   304  ASN304     -0.2864
    189  CB        74.9380   66.2190   15.8080 C.3   304  ASN304      0.1181
    190  CG        75.7700   65.4040   14.8610 C.2   304  ASN304      0.2629
    191  OD1       75.9120   64.1950   15.0230 O.2   304  ASN304     -0.2716
    192  ND2       76.3570   66.0600   13.9010 N.am  304  ASN304     -0.0877
@<TRIPOS>BOND
     1   143   142    1
     2   143   144    2
     3   142   141    1
     4   142   145    1
     5   145   146    1
     6   146   147    1
     7   147   148    2
     8   147   149   am
     9    77    78    1
    10     1     2    1
    11    78    79    1
    12    78    81    1
    13    79    80    2
    14    81    82    1
    15     5     2    1
    16     5     6    1
    17     2     3    1
    18   150   151    1
    19     7     6    1
    20     7     8    1
    21   153   152    2
    22    10     9    1
    23   152   151    1
    24    15    14    2
    25   151   154    1
    26    82    83   ar
    27    82    84   ar
    28    12     3   am
    29    12    13    1
    30     3     4    2
    31    69    68    2
    32    68    67    1
    33    83    85   ar
    34    90    89    2
    35     8     9    2
    36     9    11    1
    37   102   101   ar
    38    14    13    1
    39    87    88    1
    40    84    86   ar
    41    18    16    1
    42    13    16    1
    43   154   155    1
    44    89    88    1
    45    89    96   am
    46    97    98    1
    47    97    96    1
    48    97   100    1
    49    85    86   ar
    50    67    66    1
    51    67    70    1
    52    98    99    2
    53   156   155   ar
    54   156   158   ar
    55    88    91    1
    56   155   157   ar
    57   101   100    1
    58   101   103   ar
    59    16    17    1
    60   130   129    2
    61   129   128    1
    62   158   159   ar
    63    70    71    1
    64   157   159   ar
    65    73    71   ar
    66    73    75   ar
    67    91    92    1
    68    71    72   ar
    69    75    76   ar
    70   128   127    1
    71   128   131    1
    72    92    93    1
    73    95    93   ar
    74    93    94   ar
    75    72    74   ar
    76    76    74   ar
    77   131   132    1
    78    26    28   ar
    79    26    24   ar
    80    28    29   ar
    81    23    24    1
    82    23    20    1
    83    24    25   ar
    84    29    30    1
    85    29    27   ar
    86    25    27   ar
    87   137   139   ar
    88   137   134   ar
    89   139   140   ar
    90    19    20    1
    91   132   134   ar
    92   132   133   ar
    93   160   161    1
    94   134   136   ar
    95    20    21    1
    96   163   162    2
    97   192   190   am
    98    22    21    2
    99   109   108    1
   100   133   135   ar
   101   140   138   ar
   102   162   161    1
   103   161   164    1
   104   104   105    1
   105   136   138   ar
   106   136   135   ar
   107   108   105    1
   108   190   191    2
   109   190   189    1
   110   167   165   am
   111    35    32    1
   112    65    64    1
   113   120   121    2
   114   120   119    1
   115    62    64   ar
   116    62    60   ar
   117   164   165    1
   118   105   106    1
   119   123   124    1
   120   123   122    1
   121   165   166    2
   122    64    63   ar
   123   189   186    1
   124   124   125    1
   125    60    59   ar
   126    53    51   ar
   127    53    52   ar
   128   119   122    1
   129   119   118    1
   130   117   115   am
   131   107   106    2
   132   116   115    2
   133    31    32    1
   134    51    49   ar
   135    52    50   ar
   136    32    33    1
   137    34    33    2
   138    39    38    2
   139   186   187    1
   140   186   185    1
   141   115   114    1
   142    37    38    1
   143    37    36    1
   144   126   125    1
   145    63    61   ar
   146    49    47   ar
   147    49    48   ar
   148    50    47   ar
   149    59    61   ar
   150    59    58    1
   151    47    45   ar
   152    48    46   ar
   153   187   188    2
   154   185   180   am
   155    58    55    1
   156    45    46   ar
   157    45    44    1
   158   114   111    1
   159   181   180    2
   160   177   174    1
   161   180   179    1
   162    44    41    1
   163    55    56    1
   164    55    54    1
   165   110   111    1
   166   111   112    1
   167   179   178    1
   168   179   182    1
   169   178   175   am
   170    56    57    2
   171   174   175    1
   172   174   173    1
   173   175   176    2
   174    41    42    1
   175    41    40    1
   176   172   169    1
   177   113   112    2
   178    42    43    2
   179   182   184    1
   180   182   183    1
   181   169   170    1
   182   169   168    1
   183   171   170    2
