@<TRIPOS>MOLECULE
tmp/5a3qA01.pdb
 211 196 0 0 0
SMALL
GASTEIGER

@<TRIPOS>ATOM
      1  N         27.3670    2.0250   -9.5150 N.3   174  ARG174     -0.1245
      2  CA        26.9880    3.3640   -9.9530 C.3   174  ARG174      0.1563
      3  C         27.2190    3.5050  -11.4500 C.2   174  ARG174      0.2260
      4  O         28.3300    3.2770  -11.9350 O.2   174  ARG174     -0.2867
      5  CB        27.7680    4.4230   -9.1830 C.3   174  ARG174      0.0307
      6  CG        27.7590    4.1620   -7.6880 C.3   174  ARG174      0.0489
      7  CD        27.7670    5.4430   -6.8800 C.3   174  ARG174      0.2205
      8  NE        28.3970    5.2200   -5.5880 N.pl3 174  ARG174     -0.0865
      9  CZ        28.4680    6.1290   -4.6290 C.cat 174  ARG174      0.5346
     10  NH1       27.9320    7.3270   -4.8210 N.pl3 174  ARG174      0.1354
     11  NH2       29.0640    5.8320   -3.4780 N.pl3 174  ARG174      0.1354
     12  N         24.6070   12.5730  -13.6400 N.3   185  VAL185     -0.1231
     13  CA        24.5850   12.0010  -12.3000 C.3   185  VAL185      0.1692
     14  C         24.5890   10.4830  -12.3790 C.2   185  VAL185      0.2593
     15  O         23.8740    9.8830  -13.1880 O.2   185  VAL185     -0.2718
     16  CB        23.3520   12.5160  -11.5450 C.3   185  VAL185      0.0266
     17  CG1       22.9760   11.5570  -10.4650 C.3   185  VAL185      0.0020
     18  CG2       23.6180   13.9080  -10.9840 C.3   185  VAL185      0.0020
     19  N         25.4060    9.8550  -11.5450 N.am  186  SER186     -0.1938
     20  CA        25.5410    8.4060  -11.5620 C.3   186  SER186      0.2055
     21  C         24.4190    7.7710  -10.7490 C.2   186  SER186      0.2643
     22  O         24.1490    8.1840   -9.6220 O.2   186  SER186     -0.2714
     23  CB        26.9080    8.0030  -11.0100 C.3   186  SER186      0.2130
     24  OG        27.9510    8.6880  -11.6900 O.3   186  SER186     -0.2179
     25  N         23.7700    6.7730  -11.3100 N.am  187  VAL187     -0.1963
     26  CA        22.6090    6.1820  -10.6630 C.3   187  VAL187      0.1727
     27  C         23.0070    4.8700  -10.0100 C.2   187  VAL187      0.2616
     28  O         23.8400    4.1090  -10.5200 O.2   187  VAL187     -0.2715
     29  CB        21.4280    5.9940  -11.6390 C.3   187  VAL187      0.0290
     30  CG1       21.1980    7.2660  -12.3840 C.3   187  VAL187      0.0023
     31  CG2       21.6700    4.8740  -12.5890 C.3   187  VAL187      0.0023
     32  N         22.3960    4.6110   -8.8610 N.am  188  ILE188     -0.1977
     33  CA        22.7370    3.4880   -8.0050 C.3   188  ILE188      0.1596
     34  C         21.7540    2.3580   -8.2920 C.2   188  ILE188      0.2287
     35  O         20.5650    2.4470   -7.9640 O.2   188  ILE188     -0.2864
     36  CB        22.7240    3.9060   -6.5300 C.3   188  ILE188      0.0276
     37  CG1       23.8880    4.8640   -6.2760 C.3   188  ILE188      0.0022
     38  CG2       22.8080    2.6900   -5.6270 C.3   188  ILE188      0.0022
     39  CD1       23.7840    5.6350   -5.0080 C.3   188  ILE188      0.0001
     40  N         14.4180    5.1860  -16.7010 N.3   202  GLN202     -0.1245
     41  CA        14.7700    5.8320  -15.4440 C.3   202  GLN202      0.1566
     42  C         14.2740    5.0510  -14.2350 C.2   202  GLN202      0.2260
     43  O         14.8100    5.2250  -13.1370 O.2   202  GLN202     -0.2867
     44  CB        14.2270    7.2590  -15.4130 C.3   202  GLN202      0.0367
     45  CG        14.9970    8.2370  -16.2910 C.3   202  GLN202      0.0905
     46  CD        14.4770    8.3030  -17.7180 C.2   202  GLN202      0.2608
     47  OE1       14.4420    7.2970  -18.4290 O.2   202  GLN202     -0.2717
     48  NE2       14.0750    9.4930  -18.1440 N.am  202  GLN202     -0.0878
     49  N         15.8310    0.3070  -12.3940 N.3   205  LYS205     -0.1245
     50  CA        17.0610    0.3780  -11.6130 C.3   205  LYS205      0.1561
     51  C         17.7730   -0.9590  -11.4770 C.2   205  LYS205      0.2260
     52  O         18.8350   -1.0050  -10.8560 O.2   205  LYS205     -0.2867
     53  CB        16.7660    0.9460  -10.2330 C.3   205  LYS205      0.0271
     54  CG        16.1610    2.3260  -10.2650 C.3   205  LYS205      0.0035
     55  CD        16.5080    3.0690   -9.0040 C.3   205  LYS205      0.0206
     56  CE        16.0070    4.4790   -9.0510 C.3   205  LYS205      0.1093
     57  NZ        16.6760    5.3060   -8.0100 N.3   205  LYS205     -0.1314
     58  N         26.5700   20.7240  -11.2800 N.3   361  MET361     -0.1245
     59  CA        25.8340   20.7710  -10.0250 C.3   361  MET361      0.1570
     60  C         26.3540   21.9020   -9.1440 C.2   361  MET361      0.2261
     61  O         27.5670   22.0680   -8.9660 O.2   361  MET361     -0.2867
     62  CB        25.9550   19.4290   -9.3010 C.3   361  MET361      0.0387
     63  CG        24.8360   19.1350   -8.3200 C.3   361  MET361      0.0595
     64  SD        23.2110   19.0420   -9.1300 S.3   361  MET361     -0.1393
     65  CE        23.3080   17.4710   -9.9790 C.3   361  MET361      0.0692
     66  N         32.0900   12.3810   -8.7820 N.3   439  GLU439     -0.1245
     67  CA        30.6510   12.5890   -8.8470 C.3   439  GLU439      0.1567
     68  C         30.3240   14.0710   -8.8930 C.2   439  GLU439      0.2260
     69  O         30.9010   14.8670   -8.1420 O.2   439  GLU439     -0.2867
     70  CB        29.9470   11.9360   -7.6550 C.3   439  GLU439      0.0388
     71  CG        29.9440   10.4050   -7.6510 C.3   439  GLU439      0.1160
     72  CD        29.3850    9.7630   -8.9280 C.2   439  GLU439      0.3649
     73  OE1       28.6700   10.4310   -9.7130 O.co2 439  GLU439     -0.2457
     74  OE2       29.6630    8.5650   -9.1380 O.co2 439  GLU439     -0.2457
     75  N         27.5450   15.4580   -7.8610 N.3   441  THR441     -0.1203
     76  CA        27.0210   15.7810   -6.5360 C.3   441  THR441      0.1994
     77  C         28.1330   16.1790   -5.5790 C.2   441  THR441      0.2617
     78  O         28.0280   17.1850   -4.8690 O.2   441  THR441     -0.2717
     79  CB        26.2700   14.5830   -5.9660 C.3   441  THR441      0.1784
     80  OG1       25.3760   14.0610   -6.9550 O.3   441  THR441     -0.2211
     81  CG2       25.4990   14.9990   -4.7300 C.3   441  THR441      0.0376
     82  N         29.2130   15.3900   -5.5520 N.am  442  GLU442     -0.1979
     83  CA        30.3020   15.6470   -4.6200 C.3   442  GLU442      0.1602
     84  C         31.1680   16.8090   -5.0820 C.2   442  GLU442      0.2287
     85  O         31.6330   17.6120   -4.2630 O.2   442  GLU442     -0.2864
     86  CB        31.1390   14.3860   -4.4480 C.3   442  GLU442      0.0415
     87  CG        30.5050   13.3360   -3.5750 C.3   442  GLU442      0.1163
     88  CD        31.4420   12.1840   -3.2860 C.2   442  GLU442      0.3649
     89  OE1       32.1290   11.7290   -4.2240 O.co2 442  GLU442     -0.2457
     90  OE2       31.5030   11.7390   -2.1190 O.co2 442  GLU442     -0.2457
     91  N         29.3430    4.7230    0.8440 N.3   487  PHE487     -0.1241
     92  CA        27.8930    4.8660    0.8030 C.3   487  PHE487      0.1605
     93  C         27.2320    3.5060    0.6250 C.2   487  PHE487      0.2264
     94  O         27.7420    2.6380   -0.0890 O.2   487  PHE487     -0.2867
     95  CB        27.5020    5.8050   -0.3410 C.3   487  PHE487      0.0534
     96  CG        26.0170    5.9800   -0.5230 C.ar  487  PHE487     -0.0203
     97  CD1       25.2790    5.0630   -1.2580 C.ar  487  PHE487     -0.0042
     98  CD2       25.3680    7.0850    0.0060 C.ar  487  PHE487     -0.0042
     99  CE1       23.9240    5.2320   -1.4330 C.ar  487  PHE487     -0.0003
    100  CE2       24.0090    7.2570   -0.1720 C.ar  487  PHE487     -0.0003
    101  CZ        23.2890    6.3320   -0.8920 C.ar  487  PHE487     -0.0000
    102  N         21.7200    5.2890    3.2570 N.3   492  LYS492     -0.1231
    103  CA        21.7380    6.4890    2.4160 C.3   492  LYS492      0.1693
    104  C         22.6870    7.5610    2.9510 C.2   492  LYS492      0.2593
    105  O         22.3840    8.7540    2.9040 O.2   492  LYS492     -0.2718
    106  CB        20.3260    7.0630    2.2350 C.3   492  LYS492      0.0285
    107  CG        19.3450    6.1740    1.4640 C.3   492  LYS492      0.0035
    108  CD        18.0660    6.9330    1.1290 C.3   492  LYS492      0.0206
    109  CE        17.0550    6.0510    0.4000 C.3   492  LYS492      0.1093
    110  NZ        16.4290    5.0290    1.2870 N.3   492  LYS492     -0.1314
    111  N         23.8520    7.1390    3.4510 N.am  493  SER493     -0.1938
    112  CA        24.8960    8.0820    3.8470 C.3   493  SER493      0.2055
    113  C         26.2630    7.4250    3.7450 C.2   493  SER493      0.2642
    114  O         26.3880    6.2160    3.5300 O.2   493  SER493     -0.2714
    115  CB        24.6930    8.6100    5.2710 C.3   493  SER493      0.2130
    116  OG        24.7200    7.5430    6.2050 O.3   493  SER493     -0.2179
    117  N         27.2920    8.2520    3.9130 N.am  494  MET494     -0.1976
    118  CA        28.6790    7.8110    3.9690 C.3   494  MET494      0.1605
    119  C         29.4050    8.6670    4.9920 C.2   494  MET494      0.2287
    120  O         28.9610    9.7670    5.3370 O.2   494  MET494     -0.2864
    121  CB        29.3910    7.9360    2.6170 C.3   494  MET494      0.0413
    122  CG        29.6600    9.3860    2.2180 C.3   494  MET494      0.0598
    123  SD        30.9920    9.6080    1.0250 S.3   494  MET494     -0.1393
    124  CE        32.3750    8.9890    1.9670 C.3   494  MET494      0.0692
    125  N         27.8430   12.6670    5.6680 N.3   515  LYS515     -0.1231
    126  CA        26.8860   13.3480    4.8110 C.3   515  LYS515      0.1693
    127  C         25.9170   12.3120    4.2680 C.2   515  LYS515      0.2593
    128  O         26.2390   11.1220    4.1890 O.2   515  LYS515     -0.2718
    129  CB        27.5690   14.1170    3.6660 C.3   515  LYS515      0.0285
    130  CG        28.0790   13.2470    2.5440 C.3   515  LYS515      0.0035
    131  CD        28.9820   14.0330    1.6070 C.3   515  LYS515      0.0206
    132  CE        29.5220   13.1530    0.4720 C.3   515  LYS515      0.1093
    133  NZ        28.4750   12.7650   -0.4950 N.3   515  LYS515     -0.1314
    134  N         24.7180   12.7610    3.9310 N.am  516  GLY516     -0.1942
    135  CA        23.7480   11.8580    3.3470 C.3   516  GLY516      0.2014
    136  C         22.3780   12.4900    3.2500 C.2   516  GLY516      0.2638
    137  O         22.1960   13.6970    3.4400 O.2   516  GLY516     -0.2714
    138  N         21.4150   11.6390    2.9260 N.am  517  ALA517     -0.1977
    139  CA        20.0290   12.0630    2.8770 C.3   517  ALA517      0.1597
    140  C         19.6240   12.6550    4.2240 C.2   517  ALA517      0.2287
    141  O         19.9350   12.0670    5.2710 O.2   517  ALA517     -0.2864
    142  CB        19.1250   10.8890    2.5150 C.3   517  ALA517      0.0319
    143  N         18.2340   19.4940   -4.1220 N.3   560  ARG560     -0.1245
    144  CA        18.6320   18.2880   -3.4100 C.3   560  ARG560      0.1563
    145  C         19.4650   18.6930   -2.2130 C.2   560  ARG560      0.2260
    146  O         20.4330   19.4460   -2.3450 O.2   560  ARG560     -0.2867
    147  CB        19.4180   17.3330   -4.3000 C.3   560  ARG560      0.0307
    148  CG        18.5310   16.6320   -5.2870 C.3   560  ARG560      0.0489
    149  CD        17.7480   15.5090   -4.6470 C.3   560  ARG560      0.2205
    150  NE        18.5570   14.3030   -4.5370 N.pl3 560  ARG560     -0.0865
    151  CZ        18.0540   13.0780   -4.5300 C.cat 560  ARG560      0.5346
    152  NH1       16.7420   12.9020   -4.6240 N.pl3 560  ARG560      0.1354
    153  NH2       18.8590   12.0330   -4.4330 N.pl3 560  ARG560      0.1354
    154  N         21.7100   17.7070    1.2880 N.3   562  LEU562     -0.1245
    155  CA        22.5250   16.7600    2.0280 C.3   562  LEU562      0.1561
    156  C         22.6510   17.2780    3.4460 C.2   562  LEU562      0.2260
    157  O         22.9040   18.4690    3.6500 O.2   562  LEU562     -0.2867
    158  CB        23.9060   16.5970    1.4030 C.3   562  LEU562      0.0270
    159  CG        23.8480   15.9140    0.0490 C.3   562  LEU562      0.0019
    160  CD1       25.2340   15.7630   -0.5350 C.3   562  LEU562      0.0001
    161  CD2       23.1610   14.5680    0.2040 C.3   562  LEU562      0.0001
    162  N         21.3510   21.6230   -3.4190 N.3   599  MET599     -0.1230
    163  CA        22.0530   21.4970   -4.6860 C.3   599  MET599      0.1702
    164  C         21.1190   21.7300   -5.8620 C.2   599  MET599      0.2592
    165  O         19.8970   21.6100   -5.7480 O.2   599  MET599     -0.2718
    166  CB        22.6780   20.1110   -4.8080 C.3   599  MET599      0.0401
    167  CG        24.1480   20.1280   -4.9760 C.3   599  MET599      0.0596
    168  SD        24.7490   18.4630   -4.7470 S.3   599  MET599     -0.1393
    169  CE        24.2990   18.1640   -3.0460 C.3   599  MET599      0.0692
    170  N         21.7210   22.0190   -7.0150 N.am  600  LEU600     -0.1980
    171  CA        20.9440   22.3500   -8.2010 C.3   600  LEU600      0.1596
    172  C         21.8530   22.4850   -9.4130 C.2   600  LEU600      0.2287
    173  O         22.9400   23.0610   -9.3220 O.2   600  LEU600     -0.2864
    174  CB        20.1770   23.6560   -7.9960 C.3   600  LEU600      0.0297
    175  CG        19.3760   24.1260   -9.1930 C.3   600  LEU600      0.0022
    176  CD1       18.1540   23.2340   -9.3590 C.3   600  LEU600      0.0001
    177  CD2       19.0050   25.5870   -9.0270 C.3   600  LEU600      0.0001
    178  N         14.9710   14.3050  -16.8330 N.3   627  ASP627     -0.1225
    179  CA        15.1170   14.5240  -15.4040 C.3   627  ASP627      0.1805
    180  C         13.7400   14.5680  -14.7440 C.2   627  ASP627      0.2597
    181  O         12.6980   14.6090  -15.4090 O.2   627  ASP627     -0.2718
    182  CB        15.8850   15.8210  -15.1480 C.3   627  ASP627      0.1424
    183  CG        16.4620   15.9040  -13.7560 C.2   627  ASP627      0.3668
    184  OD1       16.1370   15.0470  -12.9160 O.co2 627  ASP627     -0.2456
    185  OD2       17.2290   16.8450  -13.4940 O.co2 627  ASP627     -0.2456
    186  N         13.7410   14.5610  -13.4170 N.am  628  ASN628     -0.1974
    187  CA        12.5050   14.3940  -12.6740 C.3   628  ASN628      0.1688
    188  C         11.5560   15.5600  -12.9140 C.2   628  ASN628      0.2292
    189  O         11.9750   16.6980  -13.1420 O.2   628  ASN628     -0.2864
    190  CB        12.8060   14.2310  -11.1840 C.3   628  ASN628      0.1181
    191  CG        13.4680   12.9180  -10.8870 C.2   628  ASN628      0.2629
    192  OD1       14.0730   12.7220   -9.8310 O.2   628  ASN628     -0.2716
    193  ND2       13.3790   12.0020  -11.8440 N.am  628  ASN628     -0.0877
    194  N         12.1280   18.6430  -10.6340 N.3   631  THR631     -0.1218
    195  CA        13.2200   19.5260  -11.0340 C.3   631  THR631      0.1862
    196  C         12.8780   20.3190  -12.2920 C.2   631  THR631      0.2287
    197  O         13.1410   21.5270  -12.3640 O.2   631  THR631     -0.2866
    198  CB        14.4930   18.7130  -11.2580 C.3   631  THR631      0.1770
    199  OG1       15.0330   18.2890   -9.9960 O.3   631  THR631     -0.2211
    200  CG2       15.5120   19.5360  -12.0200 C.3   631  THR631      0.0375
    201  N         11.1000   13.0920  -17.2000 N.3   678  ARG678     -0.1245
    202  CA        11.2990   11.6610  -16.9840 C.3   678  ARG678      0.1563
    203  C         10.9070   10.8620  -18.2360 C.2   678  ARG678      0.2260
    204  O         10.2320    9.8360  -18.1700 O.2   678  ARG678     -0.2867
    205  CB        10.5260   11.2020  -15.7420 C.3   678  ARG678      0.0307
    206  CG        10.8640    9.8110  -15.1980 C.3   678  ARG678      0.0489
    207  CD        11.0870    9.8120  -13.6810 C.3   678  ARG678      0.2205
    208  NE        11.4020    8.4740  -13.1950 N.pl3 678  ARG678     -0.0865
    209  CZ        12.2250    8.2040  -12.1860 C.cat 678  ARG678      0.5346
    210  NH1       12.8340    9.1800  -11.5360 N.pl3 678  ARG678      0.1354
    211  NH2       12.4440    6.9460  -11.8270 N.pl3 678  ARG678      0.1354
@<TRIPOS>BOND
     1    47    46    2
     2   203   204    2
     3   203   202    1
     4    48    46   am
     5    46    45    1
     6   201   202    1
     7   202   205    1
     8   178   179    1
     9    40    41    1
    10    45    44    1
    11   205   206    1
    12    41    44    1
    13    41    42    1
    14   181   180    2
    15   179   182    1
    16   179   180    1
    17   206   207    1
    18   182   183    1
    19   180   186   am
    20    42    43    2
    21   183   185   ar
    22   183   184   ar
    23   207   208    1
    24    12    13    1
    25   186   187    1
    26   208   209    2
    27    15    14    2
    28   189   188    2
    29   188   187    1
    30   187   190    1
    31    31    29    1
    32    49    50    1
    33    30    29    1
    34    14    13    1
    35    14    19   am
    36   197   196    2
    37    13    16    1
    38   196   195    1
    39   209   211    1
    40   209   210    1
    41   200   198    1
    42     4     3    2
    43   193   191   am
    44    24    23    1
    45    29    26    1
    46    50    51    1
    47    50    53    1
    48    20    19    1
    49    20    23    1
    50    20    21    1
    51    16    18    1
    52    16    17    1
    53    51    52    2
    54     3     2    1
    55    25    21   am
    56    25    26    1
    57    58    59    1
    58   198   195    1
    59   198   199    1
    60   190   191    1
    61   195   194    1
    62   191   192    2
    63    21    22    2
    64    26    27    1
    65    28    27    2
    66    54    53    1
    67    54    55    1
    68    59    62    1
    69    59    60    1
    70    27    32   am
    71    65    64    1
    72     2     1    1
    73     2     5    1
    74    73    72   ar
    75   172   173    2
    76   172   171    1
    77   176   175    1
    78    62    63    1
    79   175   177    1
    80   175   174    1
    81     5     6    1
    82    60    61    2
    83    74    72   ar
    84    64    63    1
    85    56    55    1
    86    56    57    1
    87    72    71    1
    88    68    67    1
    89    68    69    2
    90    32    33    1
    91    67    66    1
    92    67    70    1
    93    34    33    1
    94    34    35    2
    95   171   174    1
    96   171   170    1
    97    33    36    1
    98    75    76    1
    99     6     7    1
   100    70    71    1
   101   170   164   am
   102    80    79    1
   103     7     8    1
   104    76    79    1
   105    76    77    1
   106    36    37    1
   107    36    38    1
   108    37    39    1
   109    79    81    1
   110   164   165    2
   111   164   163    1
   112     8     9    2
   113    77    82   am
   114    77    78    2
   115    82    83    1
   116   148   149    1
   117   148   147    1
   118    84    83    1
   119    84    85    2
   120   167   166    1
   121   167   168    1
   122    10     9    1
   123   166   163    1
   124   168   169    1
   125   163   162    1
   126   149   150    1
   127     9    11    1
   128   152   151    1
   129    83    86    1
   130   150   151    2
   131   151   153    1
   132    86    87    1
   133   147   144    1
   134    89    88   ar
   135   143   144    1
   136    87    88    1
   137   144   145    1
   138    88    90   ar
   139   146   145    2
   140    99    97   ar
   141    99   101   ar
   142    97    96   ar
   143   101   100   ar
   144   160   159    1
   145    96    95    1
   146    96    98   ar
   147   133   132    1
   148    95    92    1
   149   100    98   ar
   150    94    93    2
   151   159   161    1
   152   159   158    1
   153   109   108    1
   154   109   110    1
   155   132   131    1
   156    93    92    1
   157    92    91    1
   158   123   124    1
   159   123   122    1
   160   108   107    1
   161   154   155    1
   162   158   155    1
   163   107   106    1
   164   131   130    1
   165   155   156    1
   166   122   121    1
   167   106   103    1
   168   103   104    1
   169   103   102    1
   170   142   139    1
   171   130   129    1
   172   121   118    1
   173   139   138    1
   174   139   140    1
   175   105   104    2
   176   138   136   am
   177   104   111   am
   178   136   135    1
   179   136   137    2
   180   135   134    1
   181   156   157    2
   182   111   112    1
   183   114   113    2
   184   129   126    1
   185   113   112    1
   186   113   117   am
   187   112   115    1
   188   117   118    1
   189   134   127   am
   190   118   119    1
   191   128   127    2
   192   140   141    2
   193   127   126    1
   194   126   125    1
   195   119   120    2
   196   115   116    1
