@<TRIPOS>MOLECULE
tmp/5a3sA01.pdb
 231 214 0 0 0
SMALL
GASTEIGER

@<TRIPOS>ATOM
      1  N         53.2480  -25.9270   27.7750 N.3   174  ARG174     -0.1245
      2  CA        53.0830  -25.4910   26.3960 C.3   174  ARG174      0.1563
      3  C         51.5960  -25.3850   26.0930 C.2   174  ARG174      0.2260
      4  O         50.8560  -26.3650   26.2430 O.2   174  ARG174     -0.2867
      5  CB        53.7760  -26.4570   25.4360 C.3   174  ARG174      0.0307
      6  CG        55.2330  -26.7100   25.7920 C.3   174  ARG174      0.0489
      7  CD        55.8930  -27.6700   24.8210 C.3   174  ARG174      0.2205
      8  NE        57.2000  -28.1090   25.3000 N.pl3 174  ARG174     -0.0865
      9  CZ        57.9250  -29.0620   24.7240 C.cat 174  ARG174      0.5346
     10  NH1       57.4710  -29.6800   23.6420 N.pl3 174  ARG174      0.1354
     11  NH2       59.1020  -29.3990   25.2300 N.pl3 174  ARG174      0.1354
     12  N         48.3650  -18.4090   15.9870 N.3   183  GLU183     -0.1245
     13  CA        49.5720  -19.1840   15.7350 C.3   183  GLU183      0.1567
     14  C         49.4300  -20.5700   16.3460 C.2   183  GLU183      0.2260
     15  O         49.1570  -20.7010   17.5440 O.2   183  GLU183     -0.2867
     16  CB        50.8040  -18.4760   16.3020 C.3   183  GLU183      0.0388
     17  CG        51.1260  -17.1580   15.6200 C.3   183  GLU183      0.1160
     18  CD        51.5390  -17.3360   14.1710 C.2   183  GLU183      0.3649
     19  OE1       52.0150  -18.4340   13.8120 O.co2 183  GLU183     -0.2457
     20  OE2       51.3870  -16.3750   13.3890 O.co2 183  GLU183     -0.2457
     21  N         51.8120  -22.5720   16.8470 N.3   185  VAL185     -0.1231
     22  CA        52.9240  -22.8060   17.7580 C.3   185  VAL185      0.1692
     23  C         52.4450  -22.6440   19.1940 C.2   185  VAL185      0.2593
     24  O         51.6480  -21.7490   19.5070 O.2   185  VAL185     -0.2718
     25  CB        54.0790  -21.8450   17.4310 C.3   185  VAL185      0.0266
     26  CG1       55.2000  -21.9970   18.4300 C.3   185  VAL185      0.0020
     27  CG2       54.5860  -22.0920   16.0190 C.3   185  VAL185      0.0020
     28  N         52.9150  -23.5240   20.0750 N.am  186  SER186     -0.1938
     29  CA        52.5190  -23.5200   21.4780 C.3   186  SER186      0.2055
     30  C         53.5380  -22.7330   22.2930 C.2   186  SER186      0.2643
     31  O         54.7320  -23.0580   22.2850 O.2   186  SER186     -0.2714
     32  CB        52.3930  -24.9440   22.0160 C.3   186  SER186      0.2130
     33  OG        53.6690  -25.5160   22.2440 O.3   186  SER186     -0.2179
     34  N         53.0610  -21.7090   23.0010 N.am  187  VAL187     -0.1963
     35  CA        53.9200  -20.8610   23.8180 C.3   187  VAL187      0.1727
     36  C         54.3060  -21.5920   25.0960 C.2   187  VAL187      0.2616
     37  O         53.5420  -22.4020   25.6290 O.2   187  VAL187     -0.2715
     38  CB        53.2140  -19.5270   24.1270 C.3   187  VAL187      0.0290
     39  CG1       53.0700  -18.6970   22.8630 C.3   187  VAL187      0.0023
     40  CG2       51.8540  -19.7830   24.7440 C.3   187  VAL187      0.0023
     41  N         55.5040  -21.3010   25.5920 N.am  188  ILE188     -0.1977
     42  CA        56.0000  -21.8530   26.8480 C.3   188  ILE188      0.1596
     43  C         55.7890  -20.7990   27.9270 C.2   188  ILE188      0.2287
     44  O         56.4150  -19.7340   27.9020 O.2   188  ILE188     -0.2864
     45  CB        57.4730  -22.2650   26.7460 C.3   188  ILE188      0.0276
     46  CG1       57.6240  -23.4430   25.7830 C.3   188  ILE188      0.0022
     47  CG2       58.0240  -22.6170   28.1180 C.3   188  ILE188      0.0022
     48  CD1       59.0540  -23.8400   25.5250 C.3   188  ILE188      0.0001
     49  N         50.1760  -11.5980   23.6130 N.3   202  GLN202     -0.1245
     50  CA        51.4150  -12.2730   23.2420 C.3   202  GLN202      0.1566
     51  C         52.5020  -12.0750   24.2900 C.2   202  GLN202      0.2260
     52  O         53.3820  -12.9300   24.4380 O.2   202  GLN202     -0.2867
     53  CB        51.9020  -11.7750   21.8790 C.3   202  GLN202      0.0367
     54  CG        51.0930  -12.2650   20.6800 C.3   202  GLN202      0.0905
     55  CD        49.8110  -11.4800   20.4590 C.2   202  GLN202      0.2608
     56  OE1       49.0300  -11.2620   21.3860 O.2   202  GLN202     -0.2717
     57  NE2       49.5900  -11.0480   19.2220 N.am  202  GLN202     -0.0878
     58  N         53.0290  -13.8530   29.0660 N.3   205  LYS205     -0.1245
     59  CA        53.5300  -15.2240   29.1260 C.3   205  LYS205      0.1561
     60  C         53.2980  -15.8930   30.4770 C.2   205  LYS205      0.2260
     61  O         53.8080  -17.0030   30.6750 O.2   205  LYS205     -0.2867
     62  CB        55.0190  -15.2480   28.7760 C.3   205  LYS205      0.0271
     63  CG        55.3300  -14.6880   27.3980 C.3   205  LYS205      0.0035
     64  CD        56.7390  -15.0370   26.9570 C.3   205  LYS205      0.0206
     65  CE        56.9970  -14.5720   25.5330 C.3   205  LYS205      0.1093
     66  NZ        58.3220  -15.0290   25.0330 N.3   205  LYS205     -0.1314
     67  N         54.7890  -25.2550    9.2530 N.3   361  MET361     -0.1245
     68  CA        56.1960  -24.9160    9.4310 C.3   361  MET361      0.1570
     69  C         57.0770  -25.7320    8.4950 C.2   361  MET361      0.2261
     70  O         56.9940  -26.9640    8.4580 O.2   361  MET361     -0.2867
     71  CB        56.6100  -25.1520   10.8840 C.3   361  MET361      0.0387
     72  CG        57.8680  -24.4100   11.3010 C.3   361  MET361      0.0595
     73  SD        57.5950  -22.6330   11.4500 S.3   361  MET361     -0.1393
     74  CE        56.3730  -22.5820   12.7600 C.3   361  MET361      0.0692
     75  N         53.9520  -30.7820   18.0050 N.3   439  GLU439     -0.1245
     76  CA        54.2670  -29.3720   17.8260 C.3   439  GLU439      0.1567
     77  C         54.6670  -29.0910   16.3850 C.2   439  GLU439      0.2260
     78  O         55.3160  -29.9130   15.7330 O.2   439  GLU439     -0.2867
     79  CB        55.3870  -28.9480   18.7760 C.3   439  GLU439      0.0388
     80  CG        55.0080  -29.0360   20.2470 C.3   439  GLU439      0.1160
     81  CD        53.7610  -28.2360   20.5730 C.2   439  GLU439      0.3649
     82  OE1       53.5990  -27.1300   20.0140 O.co2 439  GLU439     -0.2457
     83  OE2       52.9380  -28.7170   21.3800 O.co2 439  GLU439     -0.2457
     84  N         56.8310  -27.0000   15.3040 N.3   441  THR441     -0.1203
     85  CA        58.2800  -26.8550   15.1930 C.3   441  THR441      0.1994
     86  C         58.9580  -28.1950   14.9230 C.2   441  THR441      0.2617
     87  O         59.7490  -28.3260   13.9810 O.2   441  THR441     -0.2717
     88  CB        58.8290  -26.2210   16.4730 C.3   441  THR441      0.1784
     89  OG1       58.2310  -24.9330   16.6650 O.3   441  THR441     -0.2211
     90  CG2       60.3370  -26.0730   16.3990 C.3   441  THR441      0.0376
     91  N         58.6630  -29.2060   15.7460 N.am  442  GLU442     -0.1979
     92  CA        59.2710  -30.5210   15.5580 C.3   442  GLU442      0.1602
     93  C         58.7080  -31.2330   14.3340 C.2   442  GLU442      0.2287
     94  O         59.4390  -31.9680   13.6510 O.2   442  GLU442     -0.2864
     95  CB        59.0670  -31.3740   16.8080 C.3   442  GLU442      0.0415
     96  CG        59.6570  -30.7680   18.0720 C.3   442  GLU442      0.1163
     97  CD        59.3260  -31.5700   19.3130 C.2   442  GLU442      0.3649
     98  OE1       58.3990  -32.4060   19.2540 O.co2 442  GLU442     -0.2457
     99  OE2       59.9950  -31.3660   20.3470 O.co2 442  GLU442     -0.2457
    100  N         62.5630  -30.5960   27.1040 N.3   487  PHE487     -0.1241
    101  CA        62.9650  -29.2030   27.0030 C.3   487  PHE487      0.1605
    102  C         62.7800  -28.4910   28.3380 C.2   487  PHE487      0.2264
    103  O         61.7680  -28.6690   29.0220 O.2   487  PHE487     -0.2867
    104  CB        62.1460  -28.5150   25.9100 C.3   487  PHE487      0.0534
    105  CG        62.5400  -27.0930   25.6530 C.ar  487  PHE487     -0.0203
    106  CD1       61.9930  -26.0610   26.3970 C.ar  487  PHE487     -0.0042
    107  CD2       63.4430  -26.7840   24.6500 C.ar  487  PHE487     -0.0042
    108  CE1       62.3510  -24.7550   26.1610 C.ar  487  PHE487     -0.0003
    109  CE2       63.8010  -25.4770   24.4050 C.ar  487  PHE487     -0.0003
    110  CZ        63.2540  -24.4600   25.1620 C.ar  487  PHE487     -0.0000
    111  N         63.5290  -24.4990   30.3430 N.3   489  ARG489     -0.1245
    112  CA        63.7480  -23.0860   30.0550 C.3   489  ARG489      0.1563
    113  C         65.1790  -22.6560   30.3520 C.2   489  ARG489      0.2260
    114  O         65.6790  -21.7120   29.7300 O.2   489  ARG489     -0.2867
    115  CB        62.7660  -22.2330   30.8550 C.3   489  ARG489      0.0307
    116  CG        61.3100  -22.4610   30.4970 C.3   489  ARG489      0.0489
    117  CD        60.3970  -21.5870   31.3420 C.3   489  ARG489      0.2205
    118  NE        60.8620  -20.2040   31.4010 N.pl3 489  ARG489     -0.0865
    119  CZ        60.6610  -19.3040   30.4430 C.cat 489  ARG489      0.5346
    120  NH1       60.0050  -19.6390   29.3400 N.pl3 489  ARG489      0.1354
    121  NH2       61.1210  -18.0680   30.5860 N.pl3 489  ARG489      0.1354
    122  N         67.2660  -24.1670   27.2320 N.3   492  LYS492     -0.1231
    123  CA        66.6530  -23.9130   25.9260 C.3   492  LYS492      0.1693
    124  C         67.0570  -24.9690   24.8960 C.2   492  LYS492      0.2593
    125  O         67.4050  -24.6590   23.7550 O.2   492  LYS492     -0.2718
    126  CB        66.9920  -22.5070   25.4220 C.3   492  LYS492      0.0285
    127  CG        66.3180  -21.3730   26.1840 C.3   492  LYS492      0.0035
    128  CD        66.5800  -20.0290   25.5140 C.3   492  LYS492      0.0206
    129  CE        65.9510  -18.8800   26.2890 C.3   492  LYS492      0.1093
    130  NZ        66.5700  -18.7070   27.6330 N.3   492  LYS492     -0.1314
    131  N         66.9970  -26.2350   25.3070 N.am  493  SER493     -0.1938
    132  CA        67.3520  -27.3430   24.4280 C.3   493  SER493      0.2055
    133  C         66.7980  -28.6330   25.0170 C.2   493  SER493      0.2642
    134  O         66.4070  -28.6880   26.1860 O.2   493  SER493     -0.2714
    135  CB        68.8690  -27.4320   24.2270 C.3   493  SER493      0.2130
    136  OG        69.5510  -27.4280   25.4690 O.3   493  SER493     -0.2179
    137  N         66.7630  -29.6750   24.1850 N.am  494  MET494     -0.1976
    138  CA        66.3150  -30.9960   24.6050 C.3   494  MET494      0.1605
    139  C         67.2400  -32.0470   24.0090 C.2   494  MET494      0.2287
    140  O         67.9140  -31.8090   22.9980 O.2   494  MET494     -0.2864
    141  CB        64.8680  -31.2820   24.1800 C.3   494  MET494      0.0413
    142  CG        64.6950  -31.4740   22.6820 C.3   494  MET494      0.0598
    143  SD        63.1570  -32.3080   22.2440 S.3   494  MET494     -0.1393
    144  CE        63.5580  -34.0040   22.6480 C.3   494  MET494      0.0692
    145  N         69.2680  -31.0200   20.4660 N.3   515  LYS515     -0.1231
    146  CA        68.8840  -29.9050   19.6110 C.3   515  LYS515      0.1693
    147  C         68.3910  -28.7610   20.4850 C.2   515  LYS515      0.2593
    148  O         67.8770  -28.9850   21.5860 O.2   515  LYS515     -0.2718
    149  CB        67.8000  -30.3060   18.5990 C.3   515  LYS515      0.0285
    150  CG        66.4060  -30.4580   19.1950 C.3   515  LYS515      0.0035
    151  CD        65.3650  -30.7120   18.1150 C.3   515  LYS515      0.0206
    152  CE        63.9780  -30.2900   18.5730 C.3   515  LYS515      0.1093
    153  NZ        63.0900  -31.4390   18.9040 N.3   515  LYS515     -0.1314
    154  N         68.5550  -27.5320   20.0040 N.am  516  GLY516     -0.1942
    155  CA        68.0700  -26.4060   20.7760 C.3   516  GLY516      0.2014
    156  C         68.4730  -25.0770   20.1680 C.2   516  GLY516      0.2638
    157  O         68.9820  -25.0110   19.0490 O.2   516  GLY516     -0.2714
    158  N         68.2180  -24.0190   20.9380 N.am  517  ALA517     -0.1977
    159  CA        68.5530  -22.6730   20.5000 C.3   517  ALA517      0.1597
    160  C         70.0560  -22.5650   20.2490 C.2   517  ALA517      0.2287
    161  O         70.8520  -23.1580   20.9880 O.2   517  ALA517     -0.2864
    162  CB        68.1130  -21.6440   21.5430 C.3   517  ALA517      0.0319
    163  N         63.8880  -19.4370   11.8880 N.3   560  ARG560     -0.1245
    164  CA        64.1090  -19.8890   13.2580 C.3   560  ARG560      0.1563
    165  C         65.1830  -20.9670   13.2260 C.2   560  ARG560      0.2260
    166  O         64.9230  -22.1010   12.8100 O.2   560  ARG560     -0.2867
    167  CB        62.8190  -20.4100   13.8830 C.3   560  ARG560      0.0307
    168  CG        61.8160  -19.3220   14.2070 C.3   560  ARG560      0.0489
    169  CD        62.3140  -18.4080   15.3180 C.3   560  ARG560      0.2205
    170  NE        62.3020  -19.0630   16.6230 N.pl3 560  ARG560     -0.0865
    171  CZ        62.3930  -18.4180   17.7820 C.cat 560  ARG560      0.5346
    172  NH1       62.4980  -17.0960   17.7990 N.pl3 560  ARG560      0.1354
    173  NH2       62.3730  -19.0930   18.9230 N.pl3 560  ARG560      0.1354
    174  N         67.7260  -23.6920   14.6100 N.3   562  LEU562     -0.1245
    175  CA        67.9840  -24.6470   15.6750 C.3   562  LEU562      0.1561
    176  C         69.3280  -25.3100   15.4200 C.2   562  LEU562      0.2260
    177  O         69.6100  -25.7400   14.2960 O.2   562  LEU562     -0.2867
    178  CB        66.8790  -25.7050   15.7660 C.3   562  LEU562      0.0270
    179  CG        65.5210  -25.2550   16.3070 C.3   562  LEU562      0.0019
    180  CD1       64.7350  -26.4510   16.8260 C.3   562  LEU562      0.0001
    181  CD2       65.6860  -24.2030   17.3930 C.3   562  LEU562      0.0001
    182  N         63.7770  -22.7530   10.1590 N.3   599  MET599     -0.1230
    183  CA        62.3480  -22.9440    9.9690 C.3   599  MET599      0.1702
    184  C         61.6510  -21.6260    9.6640 C.2   599  MET599      0.2592
    185  O         62.1180  -20.5440   10.0270 O.2   599  MET599     -0.2718
    186  CB        61.7140  -23.5790   11.2080 C.3   599  MET599      0.0401
    187  CG        62.1700  -24.9920   11.4880 C.3   599  MET599      0.0596
    188  SD        61.6320  -25.5230   13.1160 S.3   599  MET599     -0.1393
    189  CE        62.2730  -24.1730   14.1070 C.3   599  MET599      0.0692
    190  N         60.5050  -21.7410    8.9980 N.am  600  LEU600     -0.1980
    191  CA        59.6650  -20.6070    8.6470 C.3   600  LEU600      0.1596
    192  C         58.3340  -21.1410    8.1460 C.2   600  LEU600      0.2287
    193  O         58.2950  -22.1670    7.4650 O.2   600  LEU600     -0.2864
    194  CB        60.3220  -19.7290    7.5730 C.3   600  LEU600      0.0297
    195  CG        59.5510  -18.4740    7.1650 C.3   600  LEU600      0.0022
    196  CD1       59.3100  -17.5880    8.3770 C.3   600  LEU600      0.0001
    197  CD2       60.2980  -17.7170    6.0800 C.3   600  LEU600      0.0001
    198  N         51.6930  -12.6440   14.7040 N.3   627  ASP627     -0.1225
    199  CA        53.0660  -13.1250   14.7220 C.3   627  ASP627      0.1805
    200  C         54.0370  -11.9680   14.9650 C.2   627  ASP627      0.2597
    201  O         53.6540  -10.7980   14.9940 O.2   627  ASP627     -0.2718
    202  CB        53.3980  -13.8370   13.4110 C.3   627  ASP627      0.1424
    203  CG        54.4140  -14.9540   13.5950 C.2   627  ASP627      0.3668
    204  OD1       55.2560  -14.8650   14.5140 O.co2 627  ASP627     -0.2456
    205  OD2       54.3720  -15.9300   12.8140 O.co2 627  ASP627     -0.2456
    206  N         55.3150  -12.3070   15.1370 N.am  628  ASN628     -0.1974
    207  CA        56.3200  -11.2940   15.4290 C.3   628  ASN628      0.1688
    208  C         56.5050  -10.3520   14.2410 C.2   628  ASN628      0.2292
    209  O         56.1660  -10.6680   13.0970 O.2   628  ASN628     -0.2864
    210  CB        57.6520  -11.9460   15.8030 C.3   628  ASN628      0.1181
    211  CG        57.5540  -12.7720   17.0700 C.2   628  ASN628      0.2629
    212  OD1       58.2080  -13.8050   17.2120 O.2   628  ASN628     -0.2716
    213  ND2       56.7160  -12.3230   17.9980 N.am  628  ASN628     -0.0877
    214  N         59.2480  -11.4810   11.5500 N.3   631  THR631     -0.1218
    215  CA        58.7310  -12.5470   10.6980 C.3   631  THR631      0.1862
    216  C         57.7310  -12.0010    9.6880 C.2   631  THR631      0.2287
    217  O         57.8080  -12.3080    8.4930 O.2   631  THR631     -0.2866
    218  CB        58.0860  -13.6410   11.5530 C.3   631  THR631      0.1770
    219  OG1       59.0700  -14.2200   12.4190 O.3   631  THR631     -0.2211
    220  CG2       57.4960  -14.7320   10.6690 C.3   631  THR631      0.0375
    221  N         52.0700   -8.6310   15.8430 N.3   678  ARG678     -0.1245
    222  CA        51.9290   -8.7670   17.2940 C.3   678  ARG678      0.1563
    223  C         50.7290   -7.9710   17.8050 C.2   678  ARG678      0.2260
    224  O         50.8020   -7.2440   18.7980 O.2   678  ARG678     -0.2867
    225  CB        53.2170   -8.3550   18.0130 C.3   678  ARG678      0.0307
    226  CG        53.3560   -8.9310   19.4200 C.3   678  ARG678      0.0489
    227  CD        54.7900   -8.8450   19.9270 C.3   678  ARG678      0.2205
    228  NE        54.9320   -9.3870   21.2780 N.pl3 678  ARG678     -0.0865
    229  CZ        55.2440  -10.6500   21.5510 C.cat 678  ARG678      0.5346
    230  NH1       55.4490  -11.5120   20.5640 N.pl3 678  ARG678      0.1354
    231  NH2       55.3520  -11.0530   22.8100 N.pl3 678  ARG678      0.1354
@<TRIPOS>BOND
     1   197   195    1
     2   195   194    1
     3   195   196    1
     4   193   192    2
     5   194   191    1
     6   192   191    1
     7    70    69    2
     8   217   216    2
     9    69    68    1
    10   191   190    1
    11   190   184   am
    12    67    68    1
    13    68    71    1
    14   184   183    1
    15   184   185    2
    16   216   215    1
    17   183   182    1
    18   183   186    1
    19   220   218    1
    20   215   214    1
    21   215   218    1
    22    71    72    1
    23   186   187    1
    24    72    73    1
    25    73    74    1
    26   187   188    1
    27   218   219    1
    28   163   164    1
    29   166   165    2
    30   205   203   ar
    31   209   208    2
    32   188   189    1
    33   165   164    1
    34   164   167    1
    35    20    18   ar
    36   202   203    1
    37   202   199    1
    38   203   204   ar
    39    94    93    2
    40    19    18   ar
    41   167   168    1
    42    87    86    2
    43    18    17    1
    44   168   169    1
    45   208   207    1
    46   177   176    2
    47    93    92    1
    48   174   175    1
    49   198   199    1
    50   199   200    1
    51    86    85    1
    52    86    91   am
    53   200   201    2
    54   200   206   am
    55   206   207    1
    56    85    84    1
    57    85    88    1
    58   169   170    1
    59   176   175    1
    60   207   210    1
    61    92    91    1
    62    92    95    1
    63    17    16    1
    64   175   178    1
    65    78    77    2
    66    13    12    1
    67    13    16    1
    68    13    14    1
    69   178   179    1
    70   210   211    1
    71   221   222    1
    72    27    25    1
    73   179   180    1
    74   179   181    1
    75    14    15    2
    76    77    76    1
    77    90    88    1
    78    88    89    1
    79   170   171    2
    80    95    96    1
    81    21    22    1
    82   211   212    2
    83   211   213   am
    84   222   223    1
    85   222   225    1
    86    25    22    1
    87    25    26    1
    88    22    23    1
    89   171   172    1
    90   171   173    1
    91   223   224    2
    92    76    75    1
    93    76    79    1
    94   225   226    1
    95    96    97    1
    96   151   152    1
    97   151   150    1
    98   152   153    1
    99   149   150    1
   100   149   146    1
   101    79    80    1
   102   157   156    2
   103    23    24    2
   104    23    28   am
   105    57    55   am
   106    98    97   ar
   107    97    99   ar
   108   226   227    1
   109   146   145    1
   110   146   147    1
   111   227   228    1
   112   154   147   am
   113   154   155    1
   114    82    81   ar
   115    28    29    1
   116   156   155    1
   117   156   158   am
   118    80    81    1
   119   160   159    1
   120   160   161    2
   121    55    54    1
   122    55    56    2
   123   147   148    2
   124   159   158    1
   125   159   162    1
   126   230   229    1
   127    81    83   ar
   128    54    53    1
   129   228   229    2
   130    29    32    1
   131    29    30    1
   132   229   231    1
   133    53    50    1
   134    32    33    1
   135   143   144    1
   136   143   142    1
   137    31    30    2
   138    30    34   am
   139   142   141    1
   140    39    38    1
   141   140   139    2
   142    34    35    1
   143    50    49    1
   144    50    51    1
   145    10     9    1
   146   125   124    2
   147    35    38    1
   148    35    36    1
   149   139   138    1
   150    38    40    1
   151   141   138    1
   152   137   138    1
   153   137   133   am
   154   135   132    1
   155   135   136    1
   156    51    52    2
   157   109   107   ar
   158   109   110   ar
   159   132   133    1
   160   132   131    1
   161   107   105   ar
   162     9    11    1
   163     9     8    2
   164     7     8    1
   165     7     6    1
   166   124   131   am
   167   124   123    1
   168   133   134    2
   169    66    65    1
   170    36    41   am
   171    36    37    2
   172   110   108   ar
   173   126   123    1
   174   126   127    1
   175     5     6    1
   176     5     2    1
   177   128   127    1
   178   128   129    1
   179    48    46    1
   180    65    64    1
   181    41    42    1
   182   105   104    1
   183   105   106   ar
   184    46    45    1
   185   104   101    1
   186   123   122    1
   187     3     4    2
   188     3     2    1
   189   108   106   ar
   190   129   130    1
   191     2     1    1
   192    45    42    1
   193    45    47    1
   194    42    43    1
   195    64    63    1
   196   101   100    1
   197   101   102    1
   198    63    62    1
   199    44    43    2
   200   102   103    2
   201    62    59    1
   202    58    59    1
   203    59    60    1
   204   120   119    1
   205   114   113    2
   206   112   111    1
   207   112   113    1
   208   112   115    1
   209   119   121    1
   210   119   118    2
   211    60    61    2
   212   116   115    1
   213   116   117    1
   214   117   118    1
