@<TRIPOS>MOLECULE
tmp/5a3uC00.pdb
 172 163 0 0 0
SMALL
GASTEIGER

@<TRIPOS>ATOM
      1  N        -30.8170    5.4710  -13.8890 N.3    93  MET93      -0.1245
      2  CA       -30.3920    4.8080  -12.6670 C.3    93  MET93       0.1570
      3  C        -31.3100    3.6240  -12.4030 C.2    93  MET93       0.2261
      4  O        -32.3780    3.7770  -11.8000 O.2    93  MET93      -0.2867
      5  CB       -30.4080    5.7560  -11.4650 C.3    93  MET93       0.0387
      6  CG       -29.7470    5.1470  -10.2360 C.3    93  MET93       0.0595
      7  SD       -29.8400    6.1500   -8.7410 S.3    93  MET93      -0.1393
      8  CE       -31.4150    5.6170   -8.0720 C.3    93  MET93       0.0692
      9  N        -33.4220   -2.1660   -4.7460 N.3    97  TYR97      -0.1241
     10  CA       -33.3460   -1.8680   -3.3240 C.3    97  TYR97       0.1605
     11  C        -33.5080   -3.2000   -2.5910 C.2    97  TYR97       0.2264
     12  O        -34.1340   -4.1200   -3.1190 O.2    97  TYR97      -0.2867
     13  CB       -34.3520   -0.7710   -2.9580 C.3    97  TYR97       0.0534
     14  CG       -34.1340    0.5230   -3.7240 C.ar   97  TYR97      -0.0201
     15  CD1      -33.1510    1.4280   -3.3390 C.ar   97  TYR97      -0.0009
     16  CD2      -34.9100    0.8380   -4.8350 C.ar   97  TYR97      -0.0009
     17  CE1      -32.9470    2.6090   -4.0380 C.ar   97  TYR97       0.0417
     18  CE2      -34.7130    2.0150   -5.5380 C.ar   97  TYR97       0.0417
     19  CZ       -33.7320    2.8960   -5.1360 C.ar   97  TYR97       0.1957
     20  OH       -33.5390    4.0660   -5.8370 O.3    97  TYR97      -0.2866
     21  N        -34.8520    5.0820    3.7560 N.3   104  TYR104     -0.1241
     22  CA       -33.8370    6.0840    3.4660 C.3   104  TYR104      0.1605
     23  C        -34.2630    7.4110    4.0840 C.2   104  TYR104      0.2264
     24  O        -35.3660    7.9020    3.8410 O.2   104  TYR104     -0.2867
     25  CB       -33.6110    6.1920    1.9530 C.3   104  TYR104      0.0534
     26  CG       -33.0840    4.9000    1.3480 C.ar  104  TYR104     -0.0201
     27  CD1      -33.9230    3.8010    1.1660 C.ar  104  TYR104     -0.0009
     28  CD2      -31.7490    4.7710    0.9740 C.ar  104  TYR104     -0.0009
     29  CE1      -33.4490    2.6140    0.6270 C.ar  104  TYR104      0.0417
     30  CE2      -31.2660    3.5850    0.4310 C.ar  104  TYR104      0.0417
     31  CZ       -32.1220    2.5130    0.2610 C.ar  104  TYR104      0.1957
     32  OH       -31.6510    1.3350   -0.2750 O.3   104  TYR104     -0.2866
     33  N        -34.4740   13.6310    2.9190 N.3   107  HIS107     -0.1226
     34  CA       -33.4440   14.4340    2.2730 C.3   107  HIS107      0.1752
     35  C        -33.9790   15.1580    1.0430 C.2   107  HIS107      0.2596
     36  O        -35.1610   15.0610    0.7190 O.2   107  HIS107     -0.2718
     37  CB       -32.2780   13.5480    1.8670 C.3   107  HIS107      0.0759
     38  CG       -32.6080   12.6180    0.7410 C.ar  107  HIS107      0.0818
     39  ND1      -33.7250   11.8150    0.7440 N.ar  107  HIS107     -0.2268
     40  CD2      -31.9690   12.3800   -0.4270 C.ar  107  HIS107      0.1154
     41  CE1      -33.7590   11.1120   -0.3770 C.ar  107  HIS107      0.1986
     42  NE2      -32.7090   11.4350   -1.1020 N.ar  107  HIS107     -0.2212
     43  N        -33.0950   15.8730    0.3570 N.am  108  VAL108     -0.1966
     44  CA       -33.4450   16.5560   -0.8800 C.3   108  VAL108      0.1727
     45  C        -32.4050   16.2070   -1.9420 C.2   108  VAL108      0.2616
     46  O        -31.2050   16.1890   -1.6670 O.2   108  VAL108     -0.2715
     47  CB       -33.5350   18.0850   -0.6740 C.3   108  VAL108      0.0290
     48  CG1      -32.2670   18.6200   -0.0400 C.3   108  VAL108      0.0023
     49  CG2      -33.8200   18.7970   -1.9830 C.3   108  VAL108      0.0023
     50  N        -32.8690   15.9100   -3.1510 N.am  109  ASP109     -0.1971
     51  CA       -31.9770   15.4720   -4.2200 C.3   109  ASP109      0.1709
     52  C        -30.9070   16.5100   -4.5460 C.2   109  ASP109      0.2293
     53  O        -29.7110   16.2350   -4.4280 O.2   109  ASP109     -0.2864
     54  CB       -32.7810   15.1400   -5.4770 C.3   109  ASP109      0.1436
     55  CG       -33.6020   13.8770   -5.3210 C.2   109  ASP109      0.3671
     56  OD1      -33.8490   13.4750   -4.1660 O.co2 109  ASP109     -0.2456
     57  OD2      -34.0040   13.2880   -6.3460 O.co2 109  ASP109     -0.2456
     58  N        -29.5140   19.5910  -11.5950 N.3   116  ARG116     -0.1245
     59  CA       -30.7490   18.8150  -11.6530 C.3   116  ARG116      0.1563
     60  C        -31.9690   19.5560  -11.1060 C.2   116  ARG116      0.2260
     61  O        -31.9150   20.1270  -10.0160 O.2   116  ARG116     -0.2867
     62  CB       -30.6030   17.5360  -10.8300 C.3   116  ARG116      0.0307
     63  CG       -29.4890   16.6190  -11.3240 C.3   116  ARG116      0.0489
     64  CD       -29.3140   15.3990  -10.4320 C.3   116  ARG116      0.2205
     65  NE       -28.8750   15.7330   -9.0830 N.pl3 116  ARG116     -0.0865
     66  CZ       -28.7900   14.8530   -8.0910 C.cat 116  ARG116      0.5346
     67  NH1      -29.1140   13.5830   -8.2930 N.pl3 116  ARG116      0.1354
     68  NH2      -28.3820   15.2430   -6.8910 N.pl3 116  ARG116      0.1354
     69  N        -36.7930   15.3500  -10.8030 N.3   119  THR119     -0.1218
     70  CA       -36.6290   13.9290  -10.5500 C.3   119  THR119      0.1862
     71  C        -37.7890   13.1770  -11.1750 C.2   119  THR119      0.2287
     72  O        -38.9540   13.5520  -10.9960 O.2   119  THR119     -0.2866
     73  CB       -36.5760   13.6140   -9.0630 C.3   119  THR119      0.1770
     74  OG1      -35.6490   14.4940   -8.4170 O.3   119  THR119     -0.2211
     75  CG2      -36.1460   12.1800   -8.8570 C.3   119  THR119      0.0375
     76  N        -39.1620    9.2200  -11.7370 N.3   121  ILE121     -0.1245
     77  CA       -39.0100    7.8150  -11.3450 C.3   121  ILE121      0.1561
     78  C        -40.0850    6.9160  -11.9480 C.2   121  ILE121      0.2260
     79  O        -41.2570    7.2840  -11.9860 O.2   121  ILE121     -0.2867
     80  CB       -39.0670    7.6420   -9.8160 C.3   121  ILE121      0.0252
     81  CG1      -38.1770    8.6650   -9.1060 C.3   121  ILE121      0.0019
     82  CG2      -38.6460    6.2320   -9.4360 C.3   121  ILE121      0.0019
     83  CD1      -38.6030    8.9390   -7.6890 C.3   121  ILE121      0.0001
     84  N        -41.6640    2.9600  -11.7130 N.3   123  TYR123     -0.1241
     85  CA       -41.6860    1.7440  -10.8900 C.3   123  TYR123      0.1605
     86  C        -42.0720    0.5040  -11.6960 C.2   123  TYR123      0.2264
     87  O        -42.9170    0.5770  -12.5860 O.2   123  TYR123     -0.2867
     88  CB       -42.6470    1.9230   -9.7150 C.3   123  TYR123      0.0534
     89  CG       -42.3270    3.1160   -8.8470 C.ar  123  TYR123     -0.0201
     90  CD1      -42.8130    4.3740   -9.1620 C.ar  123  TYR123     -0.0009
     91  CD2      -41.5340    2.9840   -7.7160 C.ar  123  TYR123     -0.0009
     92  CE1      -42.5220    5.4690   -8.3750 C.ar  123  TYR123      0.0417
     93  CE2      -41.2390    4.0740   -6.9200 C.ar  123  TYR123      0.0417
     94  CZ       -41.7350    5.3130   -7.2550 C.ar  123  TYR123      0.1957
     95  OH       -41.4380    6.3970   -6.4630 O.3   123  TYR123     -0.2866
     96  N        -42.1540    0.2890    1.3670 N.3   135  GLY135     -0.1225
     97  CA       -41.2950    0.9170    0.3820 C.3   135  GLY135      0.1811
     98  C        -41.9120    2.1750   -0.2000 C.2   135  GLY135      0.2280
     99  O        -41.6180    2.5610   -1.3320 O.2   135  GLY135     -0.2866
    100  N        -42.7950    6.1600   -0.7790 N.3   137  LEU137     -0.1245
    101  CA       -42.0220    7.3970   -0.8270 C.3   137  LEU137      0.1561
    102  C        -42.8440    8.5500   -0.2660 C.2   137  LEU137      0.2260
    103  O        -43.8320    8.9670   -0.8700 O.2   137  LEU137     -0.2867
    104  CB       -41.5770    7.7110   -2.2600 C.3   137  LEU137      0.0270
    105  CG       -40.9440    9.0900   -2.4860 C.3   137  LEU137      0.0019
    106  CD1      -39.6930    9.2780   -1.6450 C.3   137  LEU137      0.0001
    107  CD2      -40.6240    9.2880   -3.9530 C.3   137  LEU137      0.0001
    108  N        -41.1040   15.0760   -9.8970 N.3   160  PHE160     -0.1241
    109  CA       -41.1240   16.1430   -8.8950 C.3   160  PHE160      0.1605
    110  C        -39.8570   16.9810   -8.8750 C.2   160  PHE160      0.2264
    111  O        -38.7820   16.5090   -9.2400 O.2   160  PHE160     -0.2867
    112  CB       -41.3800   15.5780   -7.4890 C.3   160  PHE160      0.0534
    113  CG       -40.3510   14.5850   -7.0200 C.ar  160  PHE160     -0.0203
    114  CD1      -40.4770   13.2330   -7.3170 C.ar  160  PHE160     -0.0042
    115  CD2      -39.2730   15.0000   -6.2550 C.ar  160  PHE160     -0.0042
    116  CE1      -39.5310   12.3180   -6.8720 C.ar  160  PHE160     -0.0003
    117  CE2      -38.3280   14.0940   -5.8070 C.ar  160  PHE160     -0.0003
    118  CZ       -38.4570   12.7520   -6.1160 C.ar  160  PHE160     -0.0000
    119  N        -37.9550   14.5270    1.0330 N.3   168  HIS168     -0.1241
    120  CA       -38.6990   13.2750    1.0290 C.3   168  HIS168      0.1621
    121  C        -37.9210   12.1130    1.6320 C.2   168  HIS168      0.2264
    122  O        -36.6950   12.0540    1.5300 O.2   168  HIS168     -0.2867
    123  CB       -39.0960   12.9310   -0.4010 C.3   168  HIS168      0.0745
    124  CG       -37.9620   13.0390   -1.3670 C.ar  168  HIS168      0.0817
    125  ND1      -37.3380   14.2360   -1.6450 N.ar  168  HIS168     -0.2268
    126  CD2      -37.3220   12.1010   -2.1020 C.ar  168  HIS168      0.1154
    127  CE1      -36.3670   14.0330   -2.5150 C.ar  168  HIS168      0.1986
    128  NE2      -36.3360   12.7450   -2.8100 N.ar  168  HIS168     -0.2212
    129  N        -37.9590    7.6650    2.2460 N.3   170  VAL170     -0.1245
    130  CA       -38.4560    6.3940    1.7360 C.3   170  VAL170      0.1561
    131  C        -38.7200    5.4350    2.8830 C.2   170  VAL170      0.2260
    132  O        -37.8080    5.0950    3.6350 O.2   170  VAL170     -0.2867
    133  CB       -37.4600    5.7430    0.7700 C.3   170  VAL170      0.0252
    134  CG1      -38.1310    4.6140    0.0120 C.3   170  VAL170      0.0019
    135  CG2      -36.9060    6.7720   -0.1990 C.3   170  VAL170      0.0019
    136  N        -37.1460   -4.6480   -4.1960 N.3   177  ARG177     -0.1245
    137  CA       -37.7520   -3.5290   -4.9170 C.3   177  ARG177      0.1563
    138  C        -36.9190   -3.0620   -6.0980 C.2   177  ARG177      0.2260
    139  O        -35.6920   -3.0400   -6.0350 O.2   177  ARG177     -0.2867
    140  CB       -37.9660   -2.3550   -3.9690 C.3   177  ARG177      0.0307
    141  CG       -39.4160   -2.0390   -3.6920 C.3   177  ARG177      0.0489
    142  CD       -39.5710   -0.5900   -3.3020 C.3   177  ARG177      0.2205
    143  NE       -38.5990   -0.2390   -2.2700 N.pl3 177  ARG177     -0.0865
    144  CZ       -37.9960    0.9420   -2.1580 C.cat 177  ARG177      0.5346
    145  NH1      -38.2550    1.9200   -3.0200 N.pl3 177  ARG177      0.1354
    146  NH2      -37.1260    1.1450   -1.1780 N.pl3 177  ARG177      0.1354
    147  N        -36.6140    0.1100   -9.1200 N.3   179  ALA179     -0.1245
    148  CA       -37.0640    1.4190   -9.6000 C.3   179  ALA179      0.1562
    149  C        -36.0140    2.1610  -10.4210 C.2   179  ALA179      0.2260
    150  O        -34.8870    2.3800   -9.9730 O.2   179  ALA179     -0.2867
    151  CB       -37.4970    2.2770   -8.4300 C.3   179  ALA179      0.0290
    152  N        -34.6160    5.5130  -12.1050 N.3   181  THR181     -0.1218
    153  CA       -34.6660    6.9560  -11.8580 C.3   181  THR181      0.1862
    154  C        -33.8350    7.7640  -12.8530 C.2   181  THR181      0.2287
    155  O        -32.7340    7.3610  -13.2150 O.2   181  THR181     -0.2866
    156  CB       -34.1600    7.2950  -10.4350 C.3   181  THR181      0.1770
    157  OG1      -34.8150    6.4640   -9.4680 O.3   181  THR181     -0.2211
    158  CG2      -34.4200    8.7550  -10.1060 C.3   181  THR181      0.0375
    159  N        -32.8310   12.1160  -13.7620 N.3   183  TRP183     -0.1241
    160  CA       -32.9270   13.5330  -13.4550 C.3   183  TRP183      0.1605
    161  C        -32.7380   14.3420  -14.7250 C.2   183  TRP183      0.2264
    162  O        -32.0890   13.8850  -15.6700 O.2   183  TRP183     -0.2867
    163  CB       -31.8830   13.9440  -12.4220 C.3   183  TRP183      0.0550
    164  CG       -32.1390   13.4230  -11.0470 C.ar  183  TRP183      0.0003
    165  CD1      -32.7110   14.0980  -10.0080 C.ar  183  TRP183      0.0946
    166  CD2      -31.8200   12.1210  -10.5520 C.ar  183  TRP183      0.0152
    167  NE1      -32.7680   13.2930   -8.8970 N.ar  183  TRP183     -0.2442
    168  CE2      -32.2280   12.0740   -9.2080 C.ar  183  TRP183      0.0810
    169  CE3      -31.2310   10.9880  -11.1180 C.ar  183  TRP183      0.0012
    170  CZ2      -32.0680   10.9410   -8.4240 C.ar  183  TRP183      0.0191
    171  CZ3      -31.0710    9.8670  -10.3350 C.ar  183  TRP183      0.0001
    172  CH2      -31.4880    9.8510   -9.0060 C.ar  183  TRP183      0.0015
@<TRIPOS>BOND
     1   162   161    2
     2   161   160    1
     3     1     2    1
     4   159   160    1
     5   160   163    1
     6   155   154    2
     7   154   153    1
     8     2     3    1
     9     2     5    1
    10    87    86    2
    11   163   164    1
    12     3     4    2
    13   152   153    1
    14    79    78    2
    15    78    77    1
    16   153   156    1
    17    76    77    1
    18    84    85    1
    19    86    85    1
    20    59    58    1
    21    59    60    1
    22    59    62    1
    23     5     6    1
    24    77    80    1
    25    63    62    1
    26    63    64    1
    27    71    72    2
    28    71    70    1
    29   169   166   ar
    30   169   171   ar
    31    60    61    2
    32   164   166   ar
    33   164   165   ar
    34    85    88    1
    35    69    70    1
    36   166   168   ar
    37    70    73    1
    38   156   158    1
    39   156   157    1
    40    64    65    1
    41   149   150    2
    42   149   148    1
    43   171   172   ar
    44     6     7    1
    45   165   167   ar
    46   108   109    1
    47    80    82    1
    48    80    81    1
    49    88    89    1
    50   148   147    1
    51   148   151    1
    52   111   110    2
    53   168   167   ar
    54   168   170   ar
    55    90    89   ar
    56    90    92   ar
    57    81    83    1
    58    65    66    2
    59    73    75    1
    60    73    74    1
    61   172   170   ar
    62   109   110    1
    63   109   112    1
    64    89    91   ar
    65     7     8    1
    66    92    94   ar
    67    67    66    1
    68    66    68    1
    69    91    93   ar
    70   112   113    1
    71   114   113   ar
    72   114   116   ar
    73    94    93   ar
    74    94    95    1
    75   113   115   ar
    76   116   118   ar
    77    57    55   ar
    78   115   117   ar
    79   118   117   ar
    80   138   139    2
    81   138   137    1
    82    20    19    1
    83    18    19   ar
    84    18    16   ar
    85    54    55    1
    86    54    51    1
    87    55    56   ar
    88    19    17   ar
    89   137   136    1
    90   137   140    1
    91    16    14   ar
    92     9    10    1
    93    52    53    2
    94    52    51    1
    95    51    50    1
    96    17    15   ar
    97   140   141    1
    98   107   105    1
    99    14    15   ar
   100    14    13    1
   101   141   142    1
   102    10    13    1
   103    10    11    1
   104   142   143    1
   105    50    45   am
   106    12    11    2
   107   145   144    1
   108   128   127   ar
   109   128   126   ar
   110   127   125   ar
   111   105   104    1
   112   105   106    1
   113   143   144    2
   114   104   101    1
   115   144   146    1
   116   126   124   ar
   117    49    47    1
   118    45    46    2
   119    45    44    1
   120   125   124   ar
   121   124   123    1
   122    99    98    2
   123    42    40   ar
   124    42    41   ar
   125    44    47    1
   126    44    43    1
   127   103   102    2
   128   101   100    1
   129   101   102    1
   130    47    48    1
   131    40    38   ar
   132   123   120    1
   133    41    39   ar
   134    32    31    1
   135    98    97    1
   136   135   133    1
   137   134   133    1
   138    31    30   ar
   139    31    29   ar
   140    43    35   am
   141    97    96    1
   142    30    28   ar
   143    29    27   ar
   144    36    35    2
   145    38    39   ar
   146    38    37    1
   147   133   130    1
   148    28    26   ar
   149   120   119    1
   150   120   121    1
   151    35    34    1
   152    27    26   ar
   153    26    25    1
   154   122   121    2
   155   130   129    1
   156   130   131    1
   157    37    34    1
   158    25    22    1
   159    34    33    1
   160   131   132    2
   161    22    21    1
   162    22    23    1
   163    24    23    2
