@<TRIPOS>MOLECULE
tmp/5a3wA00.pdb
 117 112 0 0 0
SMALL
GASTEIGER

@<TRIPOS>ATOM
      1  N         83.3840   56.9190    5.2320 N.3    75  ARG75      -0.1245
      2  CA        83.2340   57.7570    6.4170 C.3    75  ARG75       0.1563
      3  C         83.1300   56.9450    7.7120 C.2    75  ARG75       0.2260
      4  O         83.3750   57.4750    8.7950 O.2    75  ARG75      -0.2867
      5  CB        82.0230   58.6820    6.2870 C.3    75  ARG75       0.0307
      6  CG        82.2490   59.9830    7.0360 C.3    75  ARG75       0.0489
      7  CD        81.0230   60.8630    7.1540 C.3    75  ARG75       0.2205
      8  NE        81.0470   61.5640    8.4350 N.pl3  75  ARG75      -0.0865
      9  CZ        80.1730   62.4950    8.8070 C.cat  75  ARG75       0.5346
     10  NH1       79.1970   62.8580    7.9810 N.pl3  75  ARG75       0.1354
     11  NH2       80.2860   63.0670   10.0050 N.pl3  75  ARG75       0.1354
     12  N         93.7950   55.5470   13.8880 N.3   129  TYR129     -0.1241
     13  CA        92.9020   56.5600   14.4360 C.3   129  TYR129      0.1605
     14  C         91.7570   55.8870   15.1790 C.2   129  TYR129      0.2264
     15  O         91.1220   54.9870   14.6360 O.2   129  TYR129     -0.2867
     16  CB        92.3830   57.4640   13.2890 C.3   129  TYR129      0.0534
     17  CG        91.8690   58.8210   13.7420 C.ar  129  TYR129     -0.0201
     18  CD1       92.2540   59.3450   14.9700 C.ar  129  TYR129     -0.0009
     19  CD2       91.1000   59.6280   12.9000 C.ar  129  TYR129     -0.0009
     20  CE1       91.8160   60.5840   15.4010 C.ar  129  TYR129      0.0417
     21  CE2       90.6720   60.8950   13.3180 C.ar  129  TYR129      0.0417
     22  CZ        91.0410   61.3680   14.5830 C.ar  129  TYR129      0.1957
     23  OH        90.6450   62.6170   15.0610 O.3   129  TYR129     -0.2866
     24  N         87.4510   60.6450   19.9770 N.3   190  TYR190     -0.1241
     25  CA        88.4810   60.4970   18.9570 C.3   190  TYR190      0.1605
     26  C         89.8490   60.4770   19.6070 C.2   190  TYR190      0.2264
     27  O         90.2560   61.4560   20.2150 O.2   190  TYR190     -0.2867
     28  CB        88.4030   61.6330   17.9330 C.3   190  TYR190      0.0534
     29  CG        87.0430   61.7790   17.2890 C.ar  190  TYR190     -0.0201
     30  CD1       86.6980   61.0150   16.1780 C.ar  190  TYR190     -0.0009
     31  CD2       86.1120   62.6810   17.7810 C.ar  190  TYR190     -0.0009
     32  CE1       85.4550   61.1340   15.5840 C.ar  190  TYR190      0.0417
     33  CE2       84.8570   62.8070   17.1920 C.ar  190  TYR190      0.0417
     34  CZ        84.5390   62.0310   16.0950 C.ar  190  TYR190      0.1957
     35  OH        83.3120   62.1590   15.4990 O.3   190  TYR190     -0.2866
     36  N         90.8620   63.5590    9.5760 N.3   198  PHE198     -0.1241
     37  CA        89.4500   63.4830    9.2010 C.3   198  PHE198      0.1605
     38  C         89.2470   64.1490    7.8330 C.2   198  PHE198      0.2264
     39  O         89.6380   65.2960    7.6140 O.2   198  PHE198     -0.2867
     40  CB        88.5120   64.0750   10.2860 C.3   198  PHE198      0.0534
     41  CG        88.9010   65.4370   10.8340 C.ar  198  PHE198     -0.0203
     42  CD1       89.9360   65.5740   11.7540 C.ar  198  PHE198     -0.0042
     43  CD2       88.1420   66.5630   10.5190 C.ar  198  PHE198     -0.0042
     44  CE1       90.2630   66.8270   12.3080 C.ar  198  PHE198     -0.0003
     45  CE2       88.4480   67.8110   11.0720 C.ar  198  PHE198     -0.0003
     46  CZ        89.5180   67.9470   11.9650 C.ar  198  PHE198     -0.0000
     47  N         84.1330   66.8240    4.9760 N.3   201  HIS201     -0.1241
     48  CA        82.7390   66.4040    5.1140 C.3   201  HIS201      0.1621
     49  C         81.9050   67.4920    5.7550 C.2   201  HIS201      0.2264
     50  O         82.4370   68.4460    6.3610 O.2   201  HIS201     -0.2867
     51  CB        82.6510   65.1370    5.9640 C.3   201  HIS201      0.0745
     52  CG        83.0100   65.3780    7.3950 C.ar  201  HIS201      0.0817
     53  ND1       84.3150   65.4830    7.8190 N.ar  201  HIS201     -0.2268
     54  CD2       82.2330   65.5750    8.4870 C.ar  201  HIS201      0.1154
     55  CE1       84.3300   65.7210    9.1240 C.ar  201  HIS201      0.1986
     56  NE2       83.0820   65.7830    9.5500 N.ar  201  HIS201     -0.2212
     57  N         78.1800   67.6460    8.3070 N.3   203  GLU203     -0.1245
     58  CA        77.4470   66.8120    9.2540 C.3   203  GLU203      0.1567
     59  C         76.1180   66.3860    8.6390 C.2   203  GLU203      0.2260
     60  O         75.5710   67.0850    7.7800 O.2   203  GLU203     -0.2867
     61  CB        77.2080   67.5520   10.5600 C.3   203  GLU203      0.0388
     62  CG        78.5040   67.9880   11.2720 C.3   203  GLU203      0.1160
     63  CD        79.5150   66.8520   11.3890 C.2   203  GLU203      0.3649
     64  OE1       79.1440   65.7740   11.8900 O.co2 203  GLU203     -0.2457
     65  OE2       80.6800   67.0280   10.9780 O.co2 203  GLU203     -0.2457
     66  N         78.2470   71.0180   14.7620 N.3   209  SER209     -0.1217
     67  CA        78.9350   70.1260   15.6840 C.3   209  SER209      0.1889
     68  C         79.7830   70.9670   16.6360 C.2   209  SER209      0.2288
     69  O         80.1280   72.1060   16.3280 O.2   209  SER209     -0.2866
     70  CB        79.7950   69.0910   14.9520 C.3   209  SER209      0.2089
     71  OG        80.9690   69.6850   14.4160 O.3   209  SER209     -0.2183
     72  N         83.2460   70.3480   19.2130 N.3   211  ASN211     -0.1240
     73  CA        84.3390   69.4430   19.4830 C.3   211  ASN211      0.1653
     74  C         85.2340   70.0160   20.5770 C.2   211  ASN211      0.2266
     75  O         85.6080   71.1850   20.5360 O.2   211  ASN211     -0.2867
     76  CB        85.1440   69.2150   18.2050 C.3   211  ASN211      0.1155
     77  CG        84.2580   68.9390   17.0050 C.2   211  ASN211      0.2627
     78  OD1       83.4230   69.7680   16.6170 O.2   211  ASN211     -0.2716
     79  ND2       84.4490   67.7790   16.3980 N.am  211  ASN211     -0.0877
     80  N         94.9230   69.7000   17.4770 N.3   219  LYS219     -0.1245
     81  CA        94.1690   69.1920   16.3340 C.3   219  LYS219      0.1561
     82  C         94.1030   70.3170   15.3130 C.2   219  LYS219      0.2260
     83  O         93.6100   71.4000   15.6210 O.2   219  LYS219     -0.2867
     84  CB        92.7540   68.7450   16.7700 C.3   219  LYS219      0.0271
     85  CG        91.9120   68.0540   15.6570 C.3   219  LYS219      0.0035
     86  CD        90.4510   67.7660   16.1430 C.3   219  LYS219      0.0206
     87  CE        90.4210   66.6910   17.2360 C.3   219  LYS219      0.1093
     88  NZ        90.8580   65.3600   16.6900 N.3   219  LYS219     -0.1314
     89  N         92.6440   72.1330   12.0470 N.3   221  TRP221     -0.1241
     90  CA        91.3770   72.1840   11.3190 C.3   221  TRP221      0.1605
     91  C         91.4370   73.0510   10.0640 C.2   221  TRP221      0.2264
     92  O         92.1380   74.0700   10.0410 O.2   221  TRP221     -0.2867
     93  CB        90.2650   72.7640   12.2030 C.3   221  TRP221      0.0550
     94  CG        89.8320   71.9410   13.3730 C.ar  221  TRP221      0.0003
     95  CD1       90.5220   71.7310   14.5460 C.ar  221  TRP221      0.0946
     96  CD2       88.5570   71.3030   13.5340 C.ar  221  TRP221      0.0152
     97  NE1       89.7690   70.9600   15.4000 N.ar  221  TRP221     -0.2442
     98  CE2       88.5580   70.6870   14.8060 C.ar  221  TRP221      0.0810
     99  CE3       87.4260   71.1600   12.7030 C.ar  221  TRP221      0.0012
    100  CZ2       87.4670   69.9450   15.2790 C.ar  221  TRP221      0.0191
    101  CZ3       86.3370   70.4270   13.1730 C.ar  221  TRP221      0.0001
    102  CH2       86.3680   69.8260   14.4530 C.ar  221  TRP221      0.0015
    103  N         84.4660   70.6820    6.6340 N.3   289  HIS289     -0.1241
    104  CA        85.6660   70.7560    7.4420 C.3   289  HIS289      0.1621
    105  C         86.4900   69.4950    7.3100 C.2   289  HIS289      0.2264
    106  O         85.9920   68.4310    6.9350 O.2   289  HIS289     -0.2867
    107  CB        85.3390   71.0550    8.9320 C.3   289  HIS289      0.0745
    108  CG        84.3010   70.1500    9.5230 C.ar  289  HIS289      0.0817
    109  ND1       82.9550   70.3110    9.2770 N.ar  289  HIS289     -0.2268
    110  CD2       84.4050   69.0830   10.3600 C.ar  289  HIS289      0.1154
    111  CE1       82.2740   69.3860    9.9320 C.ar  289  HIS289      0.1986
    112  NE2       83.1280   68.6350   10.6060 N.ar  289  HIS289     -0.2212
    113  N         89.8570   63.6940   21.9350 N.3   299  ALA299     -0.1245
    114  CA        88.8420   64.7080   21.6970 C.3   299  ALA299      0.1562
    115  C         87.4640   64.0870   21.8070 C.2   299  ALA299      0.2260
    116  O         87.3210   62.8680   21.7210 O.2   299  ALA299     -0.2867
    117  CB        89.0330   65.3610   20.3050 C.3   299  ALA299      0.0290
@<TRIPOS>BOND
     1    47    48    1
     2    48    49    1
     3    48    51    1
     4     1     2    1
     5    49    50    2
     6    51    52    1
     7     5     2    1
     8     5     6    1
     9     2     3    1
    10   103   104    1
    11   106   105    2
    12     6     7    1
    13     7     8    1
    14   105   104    1
    15    52    53   ar
    16    52    54   ar
    17   104   107    1
    18    39    38    2
    19     3     4    2
    20    60    59    2
    21    53    55   ar
    22    38    37    1
    23    10     9    1
    24    57    58    1
    25     8     9    2
    26    54    56   ar
    27    59    58    1
    28     9    11    1
    29   107   108    1
    30    55    56   ar
    31    37    36    1
    32    37    40    1
    33    58    61    1
    34   109   108   ar
    35   109   111   ar
    36   108   110   ar
    37   111   112   ar
    38    92    91    2
    39    91    90    1
    40    40    41    1
    41   110   112   ar
    42    43    41   ar
    43    43    45   ar
    44    61    62    1
    45    41    42   ar
    46    65    63   ar
    47    45    46   ar
    48    62    63    1
    49    90    89    1
    50    90    93    1
    51    63    64   ar
    52    42    44   ar
    53    46    44   ar
    54    93    94    1
    55    99   101   ar
    56    99    96   ar
    57    19    21   ar
    58    19    17   ar
    59   101   102   ar
    60    16    17    1
    61    16    13    1
    62    21    22   ar
    63    94    96   ar
    64    94    95   ar
    65    96    98   ar
    66    17    18   ar
    67    12    13    1
    68    71    70    1
    69    13    14    1
    70   102   100   ar
    71    95    97   ar
    72    22    23    1
    73    22    20   ar
    74    15    14    2
    75    66    67    1
    76    98   100   ar
    77    98    97   ar
    78    70    67    1
    79    18    20   ar
    80    82    83    2
    81    82    81    1
    82    35    34    1
    83    32    34   ar
    84    32    30   ar
    85    85    86    1
    86    85    84    1
    87    67    68    1
    88    34    33   ar
    89    86    87    1
    90    30    29   ar
    91    69    68    2
    92    81    84    1
    93    81    80    1
    94    79    77   am
    95    78    77    2
    96    88    87    1
    97    77    76    1
    98    33    31   ar
    99    29    31   ar
   100    29    28    1
   101    28    25    1
   102    76    73    1
   103    25    26    1
   104    25    24    1
   105    72    73    1
   106    73    74    1
   107    26    27    2
   108   117   114    1
   109    75    74    2
   110   114   115    1
   111   114   113    1
   112   116   115    2
