@<TRIPOS>MOLECULE
tmp/5a3xA00.pdb
 123 114 0 0 0
SMALL
GASTEIGER

@<TRIPOS>ATOM
      1  N          2.6240   35.1230   14.2200 N.3    32  ILE32      -0.1245
      2  CA         2.1760   34.4600   12.9860 C.3    32  ILE32       0.1561
      3  C          1.4570   33.1250   13.2160 C.2    32  ILE32       0.2260
      4  O          0.9620   32.5170   12.2660 O.2    32  ILE32      -0.2867
      5  CB         3.3500   34.2430   11.9980 C.3    32  ILE32       0.0252
      6  CG1        4.5490   33.5940   12.6990 C.3    32  ILE32       0.0019
      7  CG2        3.7630   35.5680   11.3740 C.3    32  ILE32       0.0019
      8  CD1        5.5810   33.0220   11.7500 C.3    32  ILE32       0.0001
      9  N          0.4840   24.5070   22.5140 N.3    37  PHE37      -0.1241
     10  CA         1.9210   24.5510   22.8170 C.3    37  PHE37       0.1605
     11  C          2.4060   25.9190   23.2890 C.2    37  PHE37       0.2264
     12  O          3.2850   26.0120   24.1520 O.2    37  PHE37      -0.2867
     13  CB         2.7370   24.1300   21.5820 C.3    37  PHE37       0.0534
     14  CG         2.5860   25.0580   20.3980 C.ar   37  PHE37      -0.0203
     15  CD1        3.3930   26.1830   20.2680 C.ar   37  PHE37      -0.0042
     16  CD2        1.6420   24.8030   19.4110 C.ar   37  PHE37      -0.0042
     17  CE1        3.2590   27.0330   19.1860 C.ar   37  PHE37      -0.0003
     18  CE2        1.5030   25.6520   18.3250 C.ar   37  PHE37      -0.0003
     19  CZ         2.3130   26.7680   18.2120 C.ar   37  PHE37      -0.0000
     20  N          3.9820   31.3460   18.0710 N.3    40  VAL40      -0.1245
     21  CA         5.0560   31.4430   17.0870 C.3    40  VAL40       0.1561
     22  C          5.1150   32.8800   16.6010 C.2    40  VAL40       0.2260
     23  O          4.1070   33.4360   16.1630 O.2    40  VAL40      -0.2867
     24  CB         4.8260   30.5180   15.8760 C.3    40  VAL40       0.0252
     25  CG1        5.9570   30.6760   14.8620 C.3    40  VAL40       0.0019
     26  CG2        4.7040   29.0680   16.3230 C.3    40  VAL40       0.0019
     27  N         11.6420   32.5070   12.4600 N.3    53  ALA53      -0.1245
     28  CA        10.4380   32.1880   13.2200 C.3    53  ALA53       0.1562
     29  C         10.8610   31.6550   14.5850 C.2    53  ALA53       0.2260
     30  O         11.7240   30.7790   14.6670 O.2    53  ALA53      -0.2867
     31  CB         9.5980   31.1590   12.4830 C.3    53  ALA53       0.0290
     32  N          9.3960   29.8890   17.9860 N.3    55  LYS55      -0.1245
     33  CA         8.3170   29.1830   18.6510 C.3    55  LYS55       0.1561
     34  C          8.5160   29.3260   20.1590 C.2    55  LYS55       0.2260
     35  O          9.3990   28.6930   20.7370 O.2    55  LYS55      -0.2867
     36  CB         8.3340   27.7150   18.2260 C.3    55  LYS55       0.0271
     37  CG         7.1280   26.8910   18.6490 C.3    55  LYS55       0.0035
     38  CD         7.2060   25.5010   18.0290 C.3    55  LYS55       0.0206
     39  CE         6.0310   24.6270   18.4420 C.3    55  LYS55       0.1093
     40  NZ         6.0220   23.3270   17.7120 N.3    55  LYS55      -0.1314
     41  N         10.6490   17.5750   20.8170 N.3    70  GLU70      -0.1245
     42  CA        10.7550   18.1230   19.4640 C.3    70  GLU70       0.1567
     43  C         12.1700   18.6080   19.1550 C.2    70  GLU70       0.2260
     44  O         12.6780   18.3750   18.0590 O.2    70  GLU70      -0.2867
     45  CB         9.7680   19.2810   19.2570 C.3    70  GLU70       0.0388
     46  CG         9.7660   19.8240   17.8340 C.3    70  GLU70       0.1160
     47  CD         8.7460   20.9240   17.5920 C.2    70  GLU70       0.3649
     48  OE1        8.3070   21.5830   18.5600 O.co2  70  GLU70      -0.2457
     49  OE2        8.3960   21.1400   16.4120 O.co2  70  GLU70      -0.2457
     50  N         11.5690   21.5030    8.2590 N.3    89  VAL89      -0.1245
     51  CA        11.9200   22.7990    8.8190 C.3    89  VAL89       0.1561
     52  C         13.1870   22.6730    9.6680 C.2    89  VAL89       0.2260
     53  O         13.3100   21.7560   10.4840 O.2    89  VAL89      -0.2867
     54  CB        10.7590   23.3830    9.6590 C.3    89  VAL89       0.0252
     55  CG1       10.5460   22.5880   10.9450 C.3    89  VAL89       0.0019
     56  CG2       11.0000   24.8520    9.9650 C.3    89  VAL89       0.0019
     57  N         13.5820   28.8240   14.2690 N.3   105  PHE105     -0.1227
     58  CA        13.5150   28.1760   12.9730 C.3   105  PHE105      0.1736
     59  C         13.8490   29.1560   11.8530 C.2   105  PHE105      0.2595
     60  O         13.8830   30.3700   12.0520 O.2   105  PHE105     -0.2718
     61  CB        12.1140   27.5960   12.7430 C.3   105  PHE105      0.0547
     62  CG        11.7800   26.4320   13.6370 C.ar  105  PHE105     -0.0202
     63  CD1       12.2700   25.1620   13.3570 C.ar  105  PHE105     -0.0042
     64  CD2       10.9690   26.6010   14.7500 C.ar  105  PHE105     -0.0042
     65  CE1       11.9630   24.0860   14.1710 C.ar  105  PHE105     -0.0003
     66  CE2       10.6540   25.5280   15.5720 C.ar  105  PHE105     -0.0003
     67  CZ        11.1550   24.2690   15.2840 C.ar  105  PHE105     -0.0000
     68  N         14.1190   28.6090   10.6740 N.am  106  GLU106     -0.1965
     69  CA        14.1120   29.3930    9.4400 C.3   106  GLU106      0.1733
     70  C         12.7040   29.9450    9.2180 C.2   106  GLU106      0.2616
     71  O         11.7200   29.2840    9.5450 O.2   106  GLU106     -0.2715
     72  CB        14.5300   28.5250    8.2510 C.3   106  GLU106      0.0429
     73  CG        13.5990   27.3490    7.9710 C.3   106  GLU106      0.1163
     74  CD        14.1570   26.3920    6.9420 C.2   106  GLU106      0.3649
     75  OE1       14.7320   26.8570    5.9380 O.co2 106  GLU106     -0.2457
     76  OE2       14.0150   25.1670    7.1390 O.co2 106  GLU106     -0.2457
     77  N         12.6140   31.1570    8.6790 N.am  107  MET107     -0.1963
     78  CA        11.3230   31.8000    8.4150 C.3   107  MET107      0.1736
     79  C         10.7180   31.2680    7.1190 C.2   107  MET107      0.2616
     80  O         11.2800   31.4640    6.0390 O.2   107  MET107     -0.2715
     81  CB        11.4990   33.3180    8.3200 C.3   107  MET107      0.0427
     82  CG        10.2110   34.1090    8.1290 C.3   107  MET107      0.0599
     83  SD         9.1180   34.0680    9.5640 S.3   107  MET107     -0.1393
     84  CE         7.6330   34.8030    8.8790 C.3   107  MET107      0.0692
     85  N          9.5690   30.6040    7.2310 N.am  108  LEU108     -0.1977
     86  CA         8.8510   30.0890    6.0700 C.3   108  LEU108      0.1596
     87  C          7.6800   31.0050    5.7150 C.2   108  LEU108      0.2287
     88  O          7.4340   32.0090    6.3900 O.2   108  LEU108     -0.2864
     89  CB         8.3620   28.6610    6.3420 C.3   108  LEU108      0.0297
     90  CG         9.4330   27.6230    6.6960 C.3   108  LEU108      0.0022
     91  CD1        8.7850   26.2810    6.9870 C.3   108  LEU108      0.0001
     92  CD2       10.4690   27.4770    5.5900 C.3   108  LEU108      0.0001
     93  N          0.2470   21.9830    8.4650 N.3   159  ASN159     -0.1240
     94  CA         1.6230   21.6370    8.8580 C.3   159  ASN159      0.1653
     95  C          2.6120   21.4740    7.7020 C.2   159  ASN159      0.2266
     96  O          3.7310   20.9880    7.9050 O.2   159  ASN159     -0.2867
     97  CB         1.6200   20.3660    9.7190 C.3   159  ASN159      0.1155
     98  CG         1.1020   20.6110   11.1220 C.2   159  ASN159      0.2627
     99  OD1        1.1040   21.7420   11.6160 O.2   159  ASN159     -0.2716
    100  ND2        0.6620   19.5470   11.7790 N.am  159  ASN159     -0.0877
    101  N          4.4240   23.9810    4.9460 N.3   161  LEU161     -0.1245
    102  CA         4.6490   25.4130    4.6980 C.3   161  LEU161      0.1561
    103  C          5.5190   25.6480    3.4660 C.2   161  LEU161      0.2260
    104  O          6.5340   24.9750    3.2780 O.2   161  LEU161     -0.2867
    105  CB         5.3100   26.0720    5.9180 C.3   161  LEU161      0.0270
    106  CG         4.3780   26.7460    6.9360 C.3   161  LEU161      0.0019
    107  CD1        3.5680   25.7190    7.7050 C.3   161  LEU161      0.0001
    108  CD2        5.1740   27.6180    7.8940 C.3   161  LEU161      0.0001
    109  N          6.3990   21.1780    9.1880 N.3   173  VAL173     -0.1231
    110  CA         6.6250   21.7880   10.5020 C.3   173  VAL173      0.1692
    111  C          5.9010   21.0060   11.5980 C.2   173  VAL173      0.2592
    112  O          5.0850   20.1230   11.3180 O.2   173  VAL173     -0.2718
    113  CB         6.2000   23.2830   10.5440 C.3   173  VAL173      0.0266
    114  CG1        6.9680   24.0960    9.5080 C.3   173  VAL173      0.0020
    115  CG2        4.6980   23.4550   10.3430 C.3   173  VAL173      0.0020
    116  N          6.2360   21.3340   12.8440 N.am  174  ASP174     -0.1974
    117  CA         5.5860   20.7940   14.0430 C.3   174  ASP174      0.1709
    118  C          5.8220   19.3030   14.2380 C.2   174  ASP174      0.2293
    119  O          5.0140   18.4740   13.8150 O.2   174  ASP174     -0.2864
    120  CB         4.0750   21.1000   14.0530 C.3   174  ASP174      0.1436
    121  CG         3.4110   20.7490   15.3870 C.2   174  ASP174      0.3671
    122  OD1        4.0790   20.1620   16.2680 O.co2 174  ASP174     -0.2456
    123  OD2        2.2150   21.0680   15.5590 O.co2 174  ASP174     -0.2456
@<TRIPOS>BOND
     1   104   103    2
     2   103   102    1
     3   102   101    1
     4   102   105    1
     5    92    90    1
     6    87    86    1
     7    87    88    2
     8   105   106    1
     9    75    74   ar
    10    80    79    2
    11    86    89    1
    12    86    85    1
    13    89    90    1
    14    90    91    1
    15   106   107    1
    16   106   108    1
    17    74    76   ar
    18    74    73    1
    19    79    85   am
    20    79    78    1
    21    95    96    2
    22    95    94    1
    23    73    72    1
    24    82    81    1
    25    82    83    1
    26    72    69    1
    27    50    51    1
    28    81    78    1
    29    78    77    1
    30    93    94    1
    31    77    70   am
    32    51    54    1
    33    51    52    1
    34    94    97    1
    35    84    83    1
    36   109   110    1
    37    70    69    1
    38    70    71    2
    39    69    68    1
    40   114   113    1
    41    54    56    1
    42    54    55    1
    43    52    53    2
    44    97    98    1
    45   115   113    1
    46   110   113    1
    47   110   111    1
    48    68    59   am
    49    98    99    2
    50    98   100   am
    51   112   111    2
    52     7     5    1
    53   111   116   am
    54     8     6    1
    55    59    60    2
    56    59    58    1
    57     5     6    1
    58     5     2    1
    59     4     3    2
    60    27    28    1
    61    31    28    1
    62    61    58    1
    63    61    62    1
    64   116   117    1
    65    58    57    1
    66     2     3    1
    67     2     1    1
    68    28    29    1
    69    63    62   ar
    70    63    65   ar
    71    62    64   ar
    72   119   118    2
    73   117   120    1
    74   117   118    1
    75   120   121    1
    76    65    67   ar
    77    29    30    2
    78    64    66   ar
    79    25    24    1
    80    67    66   ar
    81   121   123   ar
    82   121   122   ar
    83    24    26    1
    84    24    21    1
    85    23    22    2
    86    49    47   ar
    87    22    21    1
    88    21    20    1
    89    47    46    1
    90    47    48   ar
    91    40    39    1
    92    46    45    1
    93    32    33    1
    94    38    39    1
    95    38    37    1
    96    44    43    2
    97    19    18   ar
    98    19    17   ar
    99    36    37    1
   100    36    33    1
   101    18    16   ar
   102    33    34    1
   103    43    42    1
   104    17    15   ar
   105    45    42    1
   106    16    14   ar
   107    42    41    1
   108    34    35    2
   109    15    14   ar
   110    14    13    1
   111    13    10    1
   112     9    10    1
   113    10    11    1
   114    11    12    2
