@<TRIPOS>MOLECULE
tmp/5a44A01.pdb
 102 94 0 0 0
SMALL
GASTEIGER

@<TRIPOS>ATOM
      1  N         19.6630  -22.4840    0.3760 N.3    16  GLY16      -0.1225
      2  CA        20.7290  -23.4670    0.6300 C.3    16  GLY16       0.1811
      3  C         21.5660  -23.0680    1.8260 C.2    16  GLY16       0.2280
      4  O         21.7000  -23.8310    2.8020 O.2    16  GLY16      -0.2866
      5  N         19.5140  -22.8720    5.2450 N.3    19  THR19      -0.1203
      6  CA        19.3770  -24.2190    5.7780 C.3    19  THR19       0.1994
      7  C         20.6500  -24.6370    6.5570 C.2    19  THR19       0.2617
      8  O         20.5780  -25.0550    7.7090 O.2    19  THR19      -0.2717
      9  CB        19.1550  -25.2540    4.6450 C.3    19  THR19       0.1784
     10  OG1       18.0390  -24.8740    3.8240 O.3    19  THR19      -0.2211
     11  CG2       18.9290  -26.6860    5.2240 C.3    19  THR19       0.0376
     12  N         21.8150  -24.5320    5.9260 N.am   20  LEU20      -0.1979
     13  CA        23.0570  -24.9710    6.5820 C.3    20  LEU20       0.1596
     14  C         23.3150  -24.1830    7.8540 C.2    20  LEU20       0.2287
     15  O         23.6130  -24.7700    8.9000 O.2    20  LEU20      -0.2864
     16  CB        24.2660  -24.9100    5.6290 C.3    20  LEU20       0.0297
     17  CG        24.1490  -25.8570    4.4230 C.3    20  LEU20       0.0022
     18  CD1       25.1560  -25.4980    3.3510 C.3    20  LEU20       0.0001
     19  CD2       24.3040  -27.3230    4.8140 C.3    20  LEU20       0.0001
     20  N         20.9350  -25.5530   10.5400 N.3    23  LEU23      -0.1245
     21  CA        21.4590  -26.8650   10.9260 C.3    23  LEU23       0.1561
     22  C         22.6140  -26.7240   11.9130 C.2    23  LEU23       0.2260
     23  O         22.5600  -27.2550   13.0210 O.2    23  LEU23      -0.2867
     24  CB        21.9070  -27.6540    9.6970 C.3    23  LEU23       0.0270
     25  CG        20.7790  -28.3640    8.9410 C.3    23  LEU23       0.0019
     26  CD1       21.1970  -28.7730    7.5340 C.3    23  LEU23       0.0001
     27  CD2       20.2560  -29.5690    9.7250 C.3    23  LEU23       0.0001
     28  N         21.6040  -25.3670   15.3150 N.3    26  GLY26      -0.1225
     29  CA        20.7660  -26.2620   16.1070 C.3    26  GLY26       0.1811
     30  C         21.5160  -27.4150   16.7640 C.2    26  GLY26       0.2280
     31  O         20.9580  -28.1390   17.5860 O.2    26  GLY26      -0.2866
     32  N         21.5980  -28.6610   21.1420 N.3    29  VAL29      -0.1245
     33  CA        20.2310  -28.3670   21.5670 C.3    29  VAL29       0.1561
     34  C         19.6460  -29.5960   22.2480 C.2    29  VAL29       0.2260
     35  O         19.2970  -30.5760   21.5800 O.2    29  VAL29      -0.2867
     36  CB        19.3570  -27.9370   20.3630 C.3    29  VAL29       0.0252
     37  CG1       17.8720  -27.8980   20.7100 C.3    29  VAL29       0.0019
     38  CG2       19.8000  -26.5670   19.8690 C.3    29  VAL29       0.0019
     39  N         14.3020  -27.8180   20.3220 N.3    35  LYS35      -0.1245
     40  CA        14.3810  -28.9080   19.3520 C.3    35  LYS35       0.1561
     41  C         13.2740  -28.7710   18.3300 C.2    35  LYS35       0.2260
     42  O         13.5390  -28.7770   17.1290 O.2    35  LYS35      -0.2867
     43  CB        14.2720  -30.2910   20.0210 C.3    35  LYS35       0.0271
     44  CG        15.5970  -30.9660   20.3490 C.3    35  LYS35       0.0035
     45  CD        15.3950  -32.4710   20.5130 C.3    35  LYS35       0.0206
     46  CE        16.7010  -33.2280   20.6740 C.3    35  LYS35       0.1093
     47  NZ        17.4040  -32.8810   21.9360 N.3    35  LYS35      -0.1314
     48  N         13.6090  -25.6000   16.1000 N.3    38  TYR38      -0.1227
     49  CA        14.7360  -25.7880   15.1780 C.3    38  TYR38       0.1736
     50  C         14.4530  -26.7120   13.9940 C.2    38  TYR38       0.2595
     51  O         14.8880  -26.4270   12.8770 O.2    38  TYR38      -0.2718
     52  CB        15.9760  -26.2880   15.9200 C.3    38  TYR38       0.0548
     53  CG        16.8780  -25.1820   16.4060 C.ar   38  TYR38      -0.0200
     54  CD1       17.6530  -24.4580   15.5070 C.ar   38  TYR38      -0.0009
     55  CD2       16.9800  -24.8720   17.7680 C.ar   38  TYR38      -0.0009
     56  CE1       18.5090  -23.4620   15.9400 C.ar   38  TYR38       0.0417
     57  CE2       17.8340  -23.8760   18.2140 C.ar   38  TYR38       0.0417
     58  CZ        18.5930  -23.1680   17.2980 C.ar   38  TYR38       0.1957
     59  OH        19.4440  -22.1640   17.7340 O.3    38  TYR38      -0.2866
     60  N         13.7550  -27.8220   14.2530 N.am   39  ALA39      -0.1980
     61  CA        13.3990  -28.7960   13.2130 C.3    39  ALA39       0.1597
     62  C         12.4400  -28.1630   12.2060 C.2    39  ALA39       0.2287
     63  O         12.5980  -28.2800   10.9820 O.2    39  ALA39      -0.2864
     64  CB        12.7700  -30.0350   13.8550 C.3    39  ALA39       0.0319
     65  N         14.3810  -25.1640   10.2720 N.3    42  THR42      -0.1203
     66  CA        15.3930  -25.6570    9.3430 C.3    42  THR42       0.1994
     67  C         14.7050  -26.3810    8.2030 C.2    42  THR42       0.2617
     68  O         15.1430  -26.2850    7.0780 O.2    42  THR42      -0.2717
     69  CB        16.3950  -26.5760   10.0600 C.3    42  THR42       0.1784
     70  OG1       16.9210  -25.8810   11.2010 O.3    42  THR42      -0.2211
     71  CG2       17.5510  -26.9690    9.1310 C.3    42  THR42       0.0376
     72  N         13.6120  -27.0970    8.4790 N.am   43  LEU43      -0.1979
     73  CA        12.8760  -27.7620    7.3910 C.3    43  LEU43       0.1596
     74  C         12.3560  -26.7990    6.3420 C.2    43  LEU43       0.2287
     75  O         12.3190  -27.1440    5.1620 O.2    43  LEU43      -0.2864
     76  CB        11.7160  -28.5900    7.9210 C.3    43  LEU43       0.0297
     77  CG        12.1110  -29.9790    8.4040 C.3    43  LEU43       0.0022
     78  CD1       10.9560  -30.5640    9.2120 C.3    43  LEU43       0.0001
     79  CD2       12.5510  -30.9030    7.2660 C.3    43  LEU43       0.0001
     80  N         15.0620  -25.8030    3.8690 N.3    46  ALA46      -0.1245
     81  CA        15.4830  -27.0320    3.2150 C.3    46  ALA46       0.1562
     82  C         14.5100  -27.4080    2.0860 C.2    46  ALA46       0.2260
     83  O         14.9330  -27.7150    0.9530 O.2    46  ALA46      -0.2867
     84  CB        15.5910  -28.1430    4.2140 C.3    46  ALA46       0.0290
     85  N         14.7970  -24.6530   -0.6600 N.3    49  PHE49      -0.1227
     86  CA        15.9660  -24.9610   -1.4450 C.3    49  PHE49       0.1736
     87  C         15.6360  -25.9330   -2.5810 C.2    49  PHE49       0.2596
     88  O         15.9970  -25.6950   -3.7330 O.2    49  PHE49      -0.2718
     89  CB        17.0620  -25.5510   -0.5450 C.3    49  PHE49       0.0547
     90  CG        18.2070  -26.1810   -1.3080 C.ar   49  PHE49      -0.0202
     91  CD1       19.1930  -25.3890   -1.8910 C.ar   49  PHE49      -0.0042
     92  CD2       18.2950  -27.5570   -1.4450 C.ar   49  PHE49      -0.0042
     93  CE1       20.2570  -25.9650   -2.5970 C.ar   49  PHE49      -0.0003
     94  CE2       19.3470  -28.1430   -2.1510 C.ar   49  PHE49      -0.0003
     95  CZ        20.3310  -27.3480   -2.7230 C.ar   49  PHE49      -0.0000
     96  N         14.9720  -27.0460   -2.2550 N.am   50  THR50      -0.1953
     97  CA        14.7070  -28.0630   -3.2740 C.3    50  THR50       0.1897
     98  C         13.8060  -27.4880   -4.3970 C.2    50  THR50       0.2313
     99  O         14.0080  -27.7810   -5.5800 O.2    50  THR50      -0.2863
    100  CB        14.1040  -29.3570   -2.6970 C.3    50  THR50       0.1794
    101  OG1       12.8020  -29.0940   -2.1470 O.3    50  THR50      -0.2208
    102  CG2       15.0340  -29.9660   -1.6400 C.3    50  THR50       0.0378
@<TRIPOS>BOND
     1    99    98    2
     2    98    97    1
     3    88    87    2
     4    97   100    1
     5    97    96    1
     6    95    93   ar
     7    95    94   ar
     8   100   101    1
     9   100   102    1
    10    93    91   ar
    11    87    96   am
    12    87    86    1
    13    94    92   ar
    14    91    90   ar
    15    92    90   ar
    16    86    85    1
    17    86    89    1
    18    90    89    1
    19     1     2    1
    20     2     3    1
    21    83    82    2
    22     3     4    2
    23    82    81    1
    24    81    80    1
    25    81    84    1
    26    18    17    1
    27    10     9    1
    28    17    19    1
    29    17    16    1
    30     9    11    1
    31     9     6    1
    32    75    74    2
    33     5     6    1
    34    16    13    1
    35     6     7    1
    36    12     7   am
    37    12    13    1
    38    74    73    1
    39     7     8    2
    40    13    14    1
    41    68    67    2
    42    79    77    1
    43    73    76    1
    44    73    72    1
    45    26    25    1
    46    14    15    2
    47    76    77    1
    48    67    72   am
    49    67    66    1
    50    77    78    1
    51    25    24    1
    52    25    27    1
    53    71    69    1
    54    66    69    1
    55    66    65    1
    56    24    21    1
    57    69    70    1
    58    20    21    1
    59    21    22    1
    60    63    62    2
    61    22    23    2
    62    62    61    1
    63    51    50    2
    64    61    64    1
    65    61    60    1
    66    50    60   am
    67    50    49    1
    68    49    52    1
    69    49    48    1
    70    28    29    1
    71    54    56   ar
    72    54    53   ar
    73    52    53    1
    74    56    58   ar
    75    29    30    1
    76    53    55   ar
    77    30    31    2
    78    42    41    2
    79    58    59    1
    80    58    57   ar
    81    55    57   ar
    82    41    40    1
    83    40    43    1
    84    40    39    1
    85    38    36    1
    86    43    44    1
    87    44    45    1
    88    36    37    1
    89    36    33    1
    90    45    46    1
    91    46    47    1
    92    32    33    1
    93    33    34    1
    94    35    34    2
