@<TRIPOS>MOLECULE
tmp/5a46B00.pdb
 139 131 0 0 0
SMALL
GASTEIGER

@<TRIPOS>ATOM
      1  N         26.0300    2.6290   32.5040 N.3    26  PRO26      -0.2102
      2  CA        26.6710    3.2550   31.3220 C.3    26  PRO26       0.1504
      3  C         27.7710    2.3960   30.6930 C.2    26  PRO26       0.2576
      4  O         28.3220    1.5090   31.3400 O.2    26  PRO26      -0.2718
      5  CB        27.2210    4.5920   31.8460 C.3    26  PRO26       0.0282
      6  CG        26.9350    4.6260   33.3050 C.3    26  PRO26       0.0208
      7  CD        26.4640    3.2820   33.7540 C.3    26  PRO26       0.0893
      8  N         28.0840    2.6580   29.4300 N.am   27  LEU27      -0.1966
      9  CA        29.0910    1.9060   28.6920 C.3    27  LEU27       0.1728
     10  C         30.2290    2.8220   28.2310 C.2    27  LEU27       0.2616
     11  O         31.3920    2.4080   28.2000 O.2    27  LEU27      -0.2715
     12  CB        28.4340    1.1740   27.5130 C.3    27  LEU27       0.0311
     13  CG        27.4670    0.0230   27.8500 C.3    27  LEU27       0.0022
     14  CD1       26.5510   -0.3190   26.6550 C.3    27  LEU27       0.0001
     15  CD2       28.1960   -1.2060   28.4300 C.3    27  LEU27       0.0001
     16  N         29.8880    4.0710   27.9320 N.am   28  GLY28      -0.1955
     17  CA        30.8570    5.0680   27.4980 C.3    28  GLY28       0.1869
     18  C         30.3250    6.4830   27.4770 C.2    28  GLY28       0.2309
     19  O         29.1130    6.7060   27.5850 O.2    28  GLY28      -0.2863
     20  N         26.5940    6.7290   26.2030 N.3    35  VAL35      -0.1245
     21  CA        25.9940    5.4680   25.7620 C.3    35  VAL35       0.1561
     22  C         25.7000    4.6620   27.0400 C.2    35  VAL35       0.2260
     23  O         26.4980    4.7080   27.9760 O.2    35  VAL35      -0.2867
     24  CB        26.8420    4.6860   24.6820 C.3    35  VAL35       0.0252
     25  CG1       25.9480    3.9290   23.6910 C.3    35  VAL35       0.0019
     26  CG2       27.7880    5.6110   23.9230 C.3    35  VAL35       0.0019
     27  N         22.1910   -0.7700   23.3570 N.3    53  ALA53      -0.1245
     28  CA        22.9970    0.3870   23.7390 C.3    53  ALA53       0.1562
     29  C         22.1370    1.6100   23.3950 C.2    53  ALA53       0.2260
     30  O         21.4650    1.6140   22.3520 O.2    53  ALA53      -0.2867
     31  CB        24.3070    0.4290   22.9700 C.3    53  ALA53       0.0290
     32  N         22.3700    5.7000   22.9470 N.3    55  LYS55      -0.1245
     33  CA        23.1030    6.9520   22.7730 C.3    55  LYS55       0.1561
     34  C         22.1400    8.1240   23.1490 C.2    55  LYS55       0.2260
     35  O         20.9640    8.1480   22.7520 O.2    55  LYS55      -0.2867
     36  CB        23.5700    7.1130   21.3150 C.3    55  LYS55       0.0271
     37  CG        24.8910    6.4370   21.0200 C.3    55  LYS55       0.0035
     38  CD        25.5410    6.9260   19.7200 C.3    55  LYS55       0.0206
     39  CE        26.7710    7.7760   19.9580 C.3    55  LYS55       0.1093
     40  NZ        27.6290    7.8640   18.7360 N.3    55  LYS55      -0.1314
     41  N         23.5030   12.1210   13.2590 N.3    72  GLU72      -0.1245
     42  CA        24.0660   10.7670   13.2910 C.3    72  GLU72       0.1567
     43  C         22.9580    9.7320   13.0470 C.2    72  GLU72       0.2260
     44  O         23.1530    8.8350   12.2210 O.2    72  GLU72      -0.2867
     45  CB        24.7830   10.5000   14.6290 C.3    72  GLU72       0.0388
     46  CG        25.4410    9.1290   14.7360 C.3    72  GLU72       0.1160
     47  CD        26.0110    8.7240   16.0830 C.2    72  GLU72       0.3649
     48  OE1       26.0220    9.5630   17.0130 O.co2  72  GLU72      -0.2457
     49  OE2       26.4850    7.5700   16.1990 O.co2  72  GLU72      -0.2457
     50  N         27.2590   -1.3410   13.3560 N.3    86  ILE86      -0.1245
     51  CA        26.3420   -1.1090   14.4990 C.3    86  ILE86       0.1561
     52  C         25.0890   -0.5380   13.8630 C.2    86  ILE86       0.2260
     53  O         25.2030    0.4810   13.1660 O.2    86  ILE86      -0.2867
     54  CB        26.9180   -0.1370   15.5850 C.3    86  ILE86       0.0252
     55  CG1       28.0010   -0.8100   16.4710 C.3    86  ILE86       0.0019
     56  CG2       25.8090    0.5120   16.4280 C.3    86  ILE86       0.0019
     57  CD1       27.5570   -2.0150   17.2550 C.3    86  ILE86       0.0001
     58  N         20.5620    1.6750   19.4560 N.3   102  VAL102     -0.1231
     59  CA        21.4800    0.9590   18.5690 C.3   102  VAL102      0.1692
     60  C         21.8700   -0.3850   19.2080 C.2   102  VAL102      0.2592
     61  O         21.7190   -0.5520   20.4190 O.2   102  VAL102     -0.2718
     62  CB        22.7420    1.8170   18.2260 C.3   102  VAL102      0.0266
     63  CG1       22.4000    2.9980   17.3230 C.3   102  VAL102      0.0020
     64  CG2       23.4580    2.2930   19.4800 C.3   102  VAL102      0.0020
     65  N         22.4140   -1.3160   18.4040 N.am  103  GLU103     -0.1966
     66  CA        22.8680   -2.6480   18.8280 C.3   103  GLU103      0.1733
     67  C         23.9400   -2.6160   19.9190 C.2   103  GLU103      0.2616
     68  O         24.7750   -1.7050   19.9420 O.2   103  GLU103     -0.2715
     69  CB        23.3960   -3.4360   17.6210 C.3   103  GLU103      0.0429
     70  CG        22.3110   -3.9810   16.7140 C.3   103  GLU103      0.1163
     71  CD        22.7890   -4.5320   15.3850 C.2   103  GLU103      0.3649
     72  OE1       23.6870   -3.9100   14.7740 O.co2 103  GLU103     -0.2457
     73  OE2       22.2270   -5.5530   14.9260 O.co2 103  GLU103     -0.2457
     74  N         23.9350   -3.6310   20.8030 N.am  104  TYR104     -0.1960
     75  CA        24.9140   -3.7680   21.8840 C.3   104  TYR104      0.1771
     76  C         25.9170   -4.9240   21.6450 C.2   104  TYR104      0.2619
     77  O         25.5220   -6.0690   21.4100 O.2   104  TYR104     -0.2715
     78  CB        24.2110   -3.8740   23.2420 C.3   104  TYR104      0.0574
     79  CG        25.0280   -4.4710   24.3700 C.ar  104  TYR104     -0.0198
     80  CD1       26.0760   -3.7610   24.9530 C.ar  104  TYR104     -0.0009
     81  CD2       24.6970   -5.7100   24.9150 C.ar  104  TYR104     -0.0009
     82  CE1       26.8170   -4.2980   26.0050 C.ar  104  TYR104      0.0417
     83  CE2       25.4160   -6.2490   25.9800 C.ar  104  TYR104      0.0417
     84  CZ        26.4730   -5.5380   26.5270 C.ar  104  TYR104      0.1957
     85  OH        27.1850   -6.0730   27.5800 O.3   104  TYR104     -0.2866
     86  N         27.2210   -4.5840   21.7100 N.am  105  ALA105     -0.1963
     87  CA        28.3730   -5.4680   21.5730 C.3   105  ALA105      0.1728
     88  C         28.9120   -5.7050   22.9800 C.2   105  ALA105      0.2617
     89  O         29.4470   -4.7770   23.5780 O.2   105  ALA105     -0.2715
     90  CB        29.4260   -4.7790   20.7310 C.3   105  ALA105      0.0334
     91  N         28.7220   -6.9260   23.5310 N.am  106  SER106     -0.1936
     92  CA        29.1080   -7.3040   24.9000 C.3   106  SER106      0.2055
     93  C         30.6010   -7.6060   25.1090 C.2   106  SER106      0.2643
     94  O         31.0150   -7.8450   26.2430 O.2   106  SER106     -0.2714
     95  CB        28.2620   -8.4780   25.3940 C.3   106  SER106      0.2130
     96  OG        28.6740   -9.7280   24.8670 O.3   106  SER106     -0.2179
     97  N         31.4130   -7.5910   24.0560 N.am  107  LYS107     -0.1963
     98  CA        32.8250   -7.8940   24.2410 C.3   107  LYS107      0.1728
     99  C         33.7000   -6.6200   24.1460 C.2   107  LYS107      0.2616
    100  O         34.9340   -6.6910   24.2460 O.2   107  LYS107     -0.2715
    101  CB        33.2570   -9.0360   23.3060 C.3   107  LYS107      0.0311
    102  CG        32.6210  -10.3550   23.7460 C.3   107  LYS107      0.0038
    103  CD        33.0940  -11.5860   23.0030 C.3   107  LYS107      0.0206
    104  CE        32.3960  -12.8090   23.5460 C.3   107  LYS107      0.1093
    105  NZ        33.1780  -14.0480   23.3060 N.3   107  LYS107     -0.1314
    106  N         33.0350   -5.4650   24.0570 N.am  108  GLY108     -0.1955
    107  CA        33.6780   -4.1600   23.9580 C.3   108  GLY108      0.1869
    108  C         34.2920   -3.9230   22.5950 C.2   108  GLY108      0.2309
    109  O         33.8650   -4.5320   21.6130 O.2   108  GLY108     -0.2863
    110  N         40.5170   -3.7650   22.9730 N.3   112  GLU112     -0.1245
    111  CA        40.3270   -4.3820   24.2850 C.3   112  GLU112      0.1567
    112  C         40.2280   -5.9110   24.1500 C.2   112  GLU112      0.2260
    113  O         40.8950   -6.6430   24.8950 O.2   112  GLU112     -0.2867
    114  CB        39.0600   -3.8070   24.9790 C.3   112  GLU112      0.0388
    115  CG        39.2060   -2.3620   25.4510 C.3   112  GLU112      0.1160
    116  CD        37.9860   -1.6170   25.9790 C.2   112  GLU112      0.3649
    117  OE1       36.8470   -1.8890   25.5260 O.co2 112  GLU112     -0.2457
    118  OE2       38.1910   -0.6920   26.7990 O.co2 112  GLU112     -0.2457
    119  N         33.3830   -2.7460   17.2400 N.3   162  LEU162     -0.1245
    120  CA        32.8890   -3.4160   18.4410 C.3   162  LEU162      0.1561
    121  C         32.6890   -4.9150   18.1710 C.2   162  LEU162      0.2260
    122  O         32.5400   -5.3210   17.0080 O.2   162  LEU162     -0.2867
    123  CB        31.6080   -2.7540   18.9850 C.3   162  LEU162      0.0270
    124  CG        31.6030   -1.2340   19.2000 C.3   162  LEU162      0.0019
    125  CD1       30.2770   -0.7950   19.6420 C.3   162  LEU162      0.0001
    126  CD2       32.6320   -0.7850   20.2360 C.3   162  LEU162      0.0001
    127  N         31.4340    1.1300   14.4510 N.3   172  ALA172     -0.1231
    128  CA        30.6710    2.1240   15.1820 C.3   172  ALA172      0.1694
    129  C         31.2850    3.4740   14.8200 C.2   172  ALA172      0.2592
    130  O         32.3920    3.5030   14.3100 O.2   172  ALA172     -0.2718
    131  CB        30.7850    1.8690   16.6800 C.3   172  ALA172      0.0304
    132  N         30.5520    4.5750   15.0580 N.am  173  ASP173     -0.1974
    133  CA        30.9510    5.9740   14.8830 C.3   173  ASP173      0.1709
    134  C         31.1860    6.3920   13.4580 C.2   173  ASP173      0.2293
    135  O         31.7950    7.4420   13.2310 O.2   173  ASP173     -0.2864
    136  CB        32.1620    6.3150   15.7590 C.3   173  ASP173      0.1436
    137  CG        31.8700    6.2590   17.2420 C.2   173  ASP173      0.3671
    138  OD1       30.6800    6.4470   17.6280 O.co2 173  ASP173     -0.2456
    139  OD2       32.8270    6.0430   18.0270 O.co2 173  ASP173     -0.2456
@<TRIPOS>BOND
     1    44    43    2
     2    43    42    1
     3    53    52    2
     4   135   134    2
     5    41    42    1
     6    42    45    1
     7    50    51    1
     8   134   133    1
     9    52    51    1
    10   130   129    2
    11   127   128    1
    12    51    54    1
    13    45    46    1
    14    46    47    1
    15    72    71   ar
    16   129   132   am
    17   129   128    1
    18   133   132    1
    19   133   136    1
    20    73    71   ar
    21   128   131    1
    22    71    70    1
    23    54    56    1
    24    54    55    1
    25   136   137    1
    26    47    49   ar
    27    47    48   ar
    28    55    57    1
    29    70    69    1
    30   122   121    2
    31   119   120    1
    32   137   138   ar
    33   137   139   ar
    34    63    62    1
    35    69    66    1
    36   121   120    1
    37    62    59    1
    38    62    64    1
    39    65    66    1
    40    65    60   am
    41   120   123    1
    42    59    60    1
    43    59    58    1
    44    40    39    1
    45    66    67    1
    46   123   124    1
    47   124   125    1
    48   124   126    1
    49    60    61    2
    50    38    39    1
    51    38    37    1
    52    67    68    2
    53    67    74   am
    54    90    87    1
    55    74    75    1
    56    37    36    1
    57    36    33    1
    58    77    76    2
    59    87    86    1
    60    87    88    1
    61   109   108    2
    62    76    86   am
    63    76    75    1
    64    75    78    1
    65    30    29    2
    66   108   107    1
    67    35    34    2
    68    33    32    1
    69    33    34    1
    70    31    28    1
    71   110   111    1
    72    88    91   am
    73    88    89    2
    74   103   104    1
    75   103   102    1
    76    78    79    1
    77   105   104    1
    78   101   102    1
    79   101    98    1
    80    27    28    1
    81    29    28    1
    82    91    92    1
    83    25    24    1
    84    26    24    1
    85   107   106    1
    86    97    98    1
    87    97    93   am
    88   106    99   am
    89    99    98    1
    90    99   100    2
    91   112   111    1
    92   112   113    2
    93   111   114    1
    94    79    81   ar
    95    79    80   ar
    96    24    21    1
    97    96    95    1
    98    92    93    1
    99    92    95    1
   100    81    83   ar
   101    80    82   ar
   102   114   115    1
   103    93    94    2
   104   115   116    1
   105   117   116   ar
   106    21    20    1
   107    21    22    1
   108   116   118   ar
   109    83    84   ar
   110    82    84   ar
   111    84    85    1
   112    14    13    1
   113    22    23    2
   114    18    17    1
   115    18    19    2
   116    17    16    1
   117    12    13    1
   118    12     9    1
   119    13    15    1
   120    16    10   am
   121    11    10    2
   122    10     9    1
   123     9     8    1
   124     8     3   am
   125     3     2    1
   126     3     4    2
   127     2     5    1
   128     2     1    1
   129     5     6    1
   130     1     7    1
   131     6     7    1
