@<TRIPOS>MOLECULE
tmp/5a4cB00.pdb
 188 176 0 0 0
SMALL
GASTEIGER

@<TRIPOS>ATOM
      1  N         23.1800    0.6940   33.3310 N.3    24  LYS24      -0.1245
      2  CA        24.5280    1.1600   33.6590 C.3    24  LYS24       0.1561
      3  C         25.1920    1.9280   32.5130 C.2    24  LYS24       0.2260
      4  O         25.0980    1.5010   31.3650 O.2    24  LYS24      -0.2867
      5  CB        25.4140   -0.0170   34.1050 C.3    24  LYS24       0.0271
      6  CG        25.6060   -1.0160   33.0270 C.3    24  LYS24       0.0035
      7  CD        26.6740   -1.8660   33.6010 C.3    24  LYS24       0.0206
      8  CE        27.6020   -2.1480   32.4400 C.3    24  LYS24       0.1093
      9  NZ        28.8730   -2.6410   32.9520 N.3    24  LYS24      -0.1314
     10  N         27.9400    3.1250   29.8320 N.3    26  LEU26      -0.1231
     11  CA        29.0210    2.4590   29.1150 C.3    26  LEU26       0.1693
     12  C         30.2050    3.4220   28.9960 C.2    26  LEU26       0.2593
     13  O         31.3640    2.9990   28.9420 O.2    26  LEU26      -0.2718
     14  CB        28.5450    1.9460   27.7300 C.3    26  LEU26       0.0284
     15  CG        27.5420    0.7710   27.7770 C.3    26  LEU26       0.0019
     16  CD1       26.8760    0.5530   26.4540 C.3    26  LEU26       0.0001
     17  CD2       28.1730   -0.5030   28.3020 C.3    26  LEU26       0.0001
     18  N         29.8950    4.7140   29.0000 N.am   27  GLY27      -0.1942
     19  CA        30.8850    5.7660   28.8860 C.3    27  GLY27       0.2014
     20  C         30.2950    7.0380   28.3330 C.2    27  GLY27       0.2638
     21  O         29.0850    7.1200   28.0850 O.2    27  GLY27      -0.2714
     22  N         31.1680    8.0320   28.1100 N.am   28  GLU28      -0.1977
     23  CA        30.7620    9.3340   27.6120 C.3    28  GLU28       0.1602
     24  C         31.8090   10.0120   26.7740 C.2    28  GLU28       0.2287
     25  O         32.9800    9.6050   26.7770 O.2    28  GLU28      -0.2864
     26  CB        30.3270   10.2600   28.7750 C.3    28  GLU28       0.0415
     27  CG        31.3670   10.5260   29.8530 C.3    28  GLU28       0.1163
     28  CD        30.7490   10.9150   31.1830 C.2    28  GLU28       0.3649
     29  OE1       30.1150   10.0450   31.8250 O.co2  28  GLU28      -0.2457
     30  OE2       30.8600   12.1030   31.5610 O.co2  28  GLU28      -0.2457
     31  N         26.6820    7.2270   26.5360 N.3    34  VAL34      -0.1245
     32  CA        26.0850    5.9880   26.0720 C.3    34  VAL34       0.1561
     33  C         25.8660    5.0760   27.2700 C.2    34  VAL34       0.2260
     34  O         26.7810    4.8690   28.0580 O.2    34  VAL34      -0.2867
     35  CB        26.9330    5.3170   24.9610 C.3    34  VAL34       0.0252
     36  CG1       26.2520    4.0480   24.4370 C.3    34  VAL34       0.0019
     37  CG2       27.2240    6.2870   23.8130 C.3    34  VAL34       0.0019
     38  N         22.2680   -0.5140   23.4100 N.3    51  ALA51      -0.1245
     39  CA        23.0620    0.6420   23.8400 C.3    51  ALA51       0.1562
     40  C         22.2520    1.8850   23.4410 C.2    51  ALA51       0.2260
     41  O         21.6880    1.9460   22.3390 O.2    51  ALA51      -0.2867
     42  CB        24.4240    0.6640   23.1620 C.3    51  ALA51       0.0290
     43  N         22.3710    6.1240   23.1520 N.3    53  LYS53      -0.1245
     44  CA        23.1390    7.3570   23.1390 C.3    53  LYS53       0.1561
     45  C         22.1950    8.5090   23.4140 C.2    53  LYS53       0.2260
     46  O         21.0990    8.5750   22.8590 O.2    53  LYS53      -0.2867
     47  CB        23.8610    7.5680   21.8010 C.3    53  LYS53       0.0271
     48  CG        24.8070    8.7670   21.8200 C.3    53  LYS53       0.0035
     49  CD        25.7620    8.6260   20.6540 C.3    53  LYS53       0.0206
     50  CE        26.8770    9.6150   20.6470 C.3    53  LYS53       0.1093
     51  NZ        27.7850    9.3310   19.5200 N.3    53  LYS53      -0.1314
     52  N         23.6280   14.9980   17.3660 N.3    67  LEU67      -0.1245
     53  CA        23.0680   13.6900   17.7110 C.3    67  LEU67       0.1561
     54  C         21.9310   13.3220   16.7480 C.2    67  LEU67       0.2260
     55  O         21.8310   12.1630   16.3370 O.2    67  LEU67      -0.2867
     56  CB        22.6430   13.6370   19.2050 C.3    67  LEU67       0.0270
     57  CG        22.1220   12.2640   19.6970 C.3    67  LEU67       0.0019
     58  CD1       23.1540   11.1460   19.4690 C.3    67  LEU67       0.0001
     59  CD2       21.6510   12.3100   21.1750 C.3    67  LEU67       0.0001
     60  N         23.4500   12.2100   13.4090 N.3    70  GLU70      -0.1245
     61  CA        24.0430   10.8770   13.5120 C.3    70  GLU70       0.1567
     62  C         22.9340    9.8370   13.3340 C.2    70  GLU70       0.2260
     63  O         23.0810    8.9440   12.4960 O.2    70  GLU70      -0.2867
     64  CB        24.7850   10.7020   14.8660 C.3    70  GLU70       0.0388
     65  CG        25.6650    9.4640   14.9320 C.3    70  GLU70       0.1160
     66  CD        26.4200    9.2090   16.2240 C.2    70  GLU70       0.3649
     67  OE1       26.3440   10.0600   17.1420 O.co2  70  GLU70      -0.2457
     68  OE2       27.1500    8.1900   16.2870 O.co2  70  GLU70      -0.2457
     69  N         22.3360    7.2110   10.1610 N.3    74  MET74      -0.1245
     70  CA        22.1270    5.7760   10.3800 C.3    74  MET74       0.1570
     71  C         20.9020    5.2540    9.6290 C.2    74  MET74       0.2261
     72  O         20.9940    4.2040    8.9930 O.2    74  MET74      -0.2867
     73  CB        22.1010    5.4420   11.8750 C.3    74  MET74       0.0387
     74  CG        23.4830    5.6200   12.5040 C.3    74  MET74       0.0595
     75  SD        23.5310    5.3300   14.2790 S.3    74  MET74      -0.1393
     76  CE        23.3990    3.5250   14.2840 C.3    74  MET74       0.0692
     77  N         27.2240   -1.1710   13.4750 N.3    84  ILE84      -0.1245
     78  CA        26.3460   -1.0080   14.6250 C.3    84  ILE84       0.1561
     79  C         25.0510   -0.4490   14.0100 C.2    84  ILE84       0.2260
     80  O         25.0600    0.6160   13.3690 O.2    84  ILE84      -0.2867
     81  CB        26.9710   -0.1010   15.7430 C.3    84  ILE84       0.0252
     82  CG1       28.0840   -0.8180   16.5330 C.3    84  ILE84       0.0019
     83  CG2       25.9120    0.5010   16.6860 C.3    84  ILE84       0.0019
     84  CD1       27.6480   -1.8790   17.5360 C.3    84  ILE84       0.0001
     85  N         18.9140    7.5440   21.2170 N.3    98  VAL98      -0.1245
     86  CA        19.1770    6.8340   19.9420 C.3    98  VAL98       0.1561
     87  C         19.5280    5.4050   20.3520 C.2    98  VAL98       0.2260
     88  O         20.5410    5.1930   21.0000 O.2    98  VAL98      -0.2867
     89  CB        20.3080    7.5070   19.1080 C.3    98  VAL98       0.0252
     90  CG1       20.4150    6.8650   17.7320 C.3    98  VAL98       0.0019
     91  CG2       20.0840    9.0130   18.9700 C.3    98  VAL98       0.0019
     92  N         20.6120    1.6590   19.7260 N.3   100  VAL100     -0.1231
     93  CA        21.4600    0.9120   18.8130 C.3   100  VAL100      0.1692
     94  C         21.8220   -0.4430   19.4090 C.2   100  VAL100      0.2592
     95  O         21.6600   -0.6450   20.6070 O.2   100  VAL100     -0.2718
     96  CB        22.7370    1.7150   18.4060 C.3   100  VAL100      0.0266
     97  CG1       22.3910    3.0960   17.8580 C.3   100  VAL100      0.0020
     98  CG2       23.7200    1.8270   19.5750 C.3   100  VAL100      0.0020
     99  N         22.3940   -1.3330   18.5760 N.am  101  GLU101     -0.1966
    100  CA        22.8500   -2.6760   18.9480 C.3   101  GLU101      0.1733
    101  C         23.9050   -2.6580   20.0300 C.2   101  GLU101      0.2616
    102  O         24.7710   -1.7740   20.0380 O.2   101  GLU101     -0.2715
    103  CB        23.3700   -3.4450   17.7120 C.3   101  GLU101      0.0429
    104  CG        22.2940   -3.7650   16.6830 C.3   101  GLU101      0.1163
    105  CD        22.7790   -4.4800   15.4410 C.2   101  GLU101      0.3649
    106  OE1       23.7760   -4.0320   14.8280 O.co2 101  GLU101     -0.2457
    107  OE2       22.1350   -5.4800   15.0590 O.co2 101  GLU101     -0.2457
    108  N         23.8290   -3.6450   20.9580 N.am  102  TYR102     -0.1960
    109  CA        24.7820   -3.7820   22.0630 C.3   102  TYR102      0.1771
    110  C         25.9050   -4.7860   21.7240 C.2   102  TYR102      0.2619
    111  O         25.6250   -5.8660   21.2100 O.2   102  TYR102     -0.2715
    112  CB        24.0790   -4.1590   23.3690 C.3   102  TYR102      0.0574
    113  CG        25.0450   -4.3440   24.5230 C.ar  102  TYR102     -0.0198
    114  CD1       25.8470   -3.2950   24.9600 C.ar  102  TYR102     -0.0009
    115  CD2       25.1660   -5.5730   25.1680 C.ar  102  TYR102     -0.0009
    116  CE1       26.7300   -3.4540   26.0210 C.ar  102  TYR102      0.0417
    117  CE2       26.0430   -5.7410   26.2400 C.ar  102  TYR102      0.0417
    118  CZ        26.8350   -4.6790   26.6510 C.ar  102  TYR102      0.1957
    119  OH        27.7170   -4.8110   27.6970 O.3   102  TYR102     -0.2866
    120  N         27.1690   -4.4060   22.0100 N.am  103  ALA103     -0.1963
    121  CA        28.3630   -5.2190   21.7560 C.3   103  ALA103      0.1728
    122  C         29.0120   -5.5520   23.1040 C.2   103  ALA103      0.2617
    123  O         29.8250   -4.7660   23.5980 O.2   103  ALA103     -0.2715
    124  CB        29.3370   -4.4390   20.8640 C.3   103  ALA103      0.0334
    125  N         28.6300   -6.7030   23.7010 N.am  104  SER104     -0.1936
    126  CA        29.0760   -7.1740   25.0260 C.3   104  SER104      0.2055
    127  C         30.5930   -7.3730   25.1980 C.2   104  SER104      0.2643
    128  O         31.0650   -7.4070   26.3300 O.2   104  SER104     -0.2714
    129  CB        28.3450   -8.4570   25.4170 C.3   104  SER104      0.2130
    130  OG        28.8410   -9.5680   24.6860 O.3   104  SER104     -0.2179
    131  N         31.3450   -7.5240   24.1090 N.am  105  LYS105     -0.1963
    132  CA        32.7850   -7.7630   24.2000 C.3   105  LYS105      0.1728
    133  C         33.6330   -6.4900   23.9730 C.2   105  LYS105      0.2616
    134  O         34.8620   -6.5640   23.8980 O.2   105  LYS105     -0.2715
    135  CB        33.1940   -8.9190   23.2820 C.3   105  LYS105      0.0311
    136  CG        32.6570  -10.2460   23.8030 C.3   105  LYS105      0.0038
    137  CD        32.9900  -11.4560   22.9390 C.3   105  LYS105      0.0206
    138  CE        32.2610  -12.6430   23.5330 C.3   105  LYS105      0.1093
    139  NZ        32.6770  -13.9360   22.9370 N.3   105  LYS105     -0.1314
    140  N         32.9640   -5.3430   23.9270 N.am  106  GLY106     -0.1955
    141  CA        33.5840   -4.0290   23.7600 C.3   106  GLY106      0.1869
    142  C         34.2500   -3.8190   22.4200 C.2   106  GLY106      0.2309
    143  O         33.8930   -4.4710   21.4390 O.2   106  GLY106     -0.2863
    144  N         40.4510   -3.8310   22.9240 N.3   110  GLU110     -0.1196
    145  CA        40.2490   -4.4800   24.2320 C.3   110  GLU110      0.1783
    146  C         40.0550   -5.9780   24.0170 C.2   110  GLU110      0.2306
    147  O         40.6320   -6.7700   24.7540 O.2   110  GLU110     -0.2863
    148  CB        38.9700   -3.9270   24.9330 C.2   110  GLU110      0.0071
    149  CG        39.0740   -2.5010   25.4580 C.2   110  GLU110      0.0834
    150  CD        37.7710   -1.8240   25.8600 C.2   110  GLU110      0.3877
    151  OE1       36.7190   -2.1110   25.2370 O.co2 110  GLU110     -0.2406
    152  OE2       37.8260   -0.9340   26.7450 O.co2 110  GLU110     -0.2406
    153  N         33.3070   -2.6670   17.2010 N.3   156  LEU156     -0.1245
    154  CA        32.7930   -3.2630   18.4280 C.3   156  LEU156      0.1561
    155  C         32.5580   -4.7240   18.1540 C.2   156  LEU156      0.2260
    156  O         32.3430   -5.1050   17.0080 O.2   156  LEU156     -0.2867
    157  CB        31.5180   -2.5410   18.9250 C.3   156  LEU156      0.0270
    158  CG        31.6970   -1.0800   19.3660 C.3   156  LEU156      0.0019
    159  CD1       30.3810   -0.4720   19.7310 C.3   156  LEU156      0.0001
    160  CD2       32.5930   -0.9690   20.5870 C.3   156  LEU156      0.0001
    161  N         31.5830    1.0140   14.3840 N.3   166  ALA166     -0.1231
    162  CA        30.8680    1.9550   15.1940 C.3   166  ALA166      0.1694
    163  C         31.3460    3.3690   14.8020 C.2   166  ALA166      0.2592
    164  O         32.3930    3.5030   14.1730 O.2   166  ALA166     -0.2718
    165  CB        31.1640    1.6650   16.6680 C.3   166  ALA166      0.0304
    166  N         30.5420    4.4000   15.1210 N.am  167  ASP167     -0.1960
    167  CA        30.8220    5.8320   14.9160 C.3   167  ASP167      0.1840
    168  C         31.1920    6.2020   13.5150 C.2   167  ASP167      0.2622
    169  O         31.9960    7.1120   13.3100 O.2   167  ASP167     -0.2715
    170  CB        31.8980    6.3460   15.8880 C.3   167  ASP167      0.1450
    171  CG        31.4590    6.4720   17.3310 C.2   167  ASP167      0.3671
    172  OD1       30.3040    6.1290   17.6290 O.co2 167  ASP167     -0.2456
    173  OD2       32.2880    6.8930   18.1700 O.co2 167  ASP167     -0.2456
    174  N         30.5490    5.5510   12.5490 N.am  168  PHE168     -0.1960
    175  CA        30.7910    5.7460   11.1300 C.3   168  PHE168      0.1771
    176  C         30.0980    6.9750   10.6070 C.2   168  PHE168      0.2620
    177  O         30.4840    7.4590    9.5480 O.2   168  PHE168     -0.2715
    178  CB        30.3480    4.5030   10.3510 C.3   168  PHE168      0.0574
    179  CG        28.9270    4.0340   10.6200 C.ar  168  PHE168     -0.0200
    180  CD1       27.8410    4.6320    9.9770 C.ar  168  PHE168     -0.0042
    181  CD2       28.6810    2.9750   11.4830 C.ar  168  PHE168     -0.0042
    182  CE1       26.5410    4.2090   10.2320 C.ar  168  PHE168     -0.0003
    183  CE2       27.3730    2.5230   11.7060 C.ar  168  PHE168     -0.0003
    184  CZ        26.3150    3.1420   11.0800 C.ar  168  PHE168     -0.0000
    185  N         29.0800    7.4570   11.3280 N.am  169  GLY169     -0.1954
    186  CA        28.2800    8.5870   10.8760 C.3   169  GLY169      0.1869
    187  C         28.2060    9.8070   11.7670 C.2   169  GLY169      0.2309
    188  O         27.1220   10.3660   11.9450 O.2   169  GLY169     -0.2863
@<TRIPOS>BOND
     1    72    71    2
     2   177   176    2
     3    71    70    1
     4   180   182   ar
     5   180   179   ar
     6    69    70    1
     7   182   184   ar
     8   178   179    1
     9   178   175    1
    10    70    73    1
    11   176   175    1
    12   176   185   am
    13   179   181   ar
    14   186   185    1
    15   186   187    1
    16   184   183   ar
    17   175   174    1
    18   181   183   ar
    19   187   188    2
    20    73    74    1
    21    63    62    2
    22    74    75    1
    23   174   168   am
    24   169   168    2
    25    62    61    1
    26    80    79    2
    27    60    61    1
    28    77    78    1
    29    61    64    1
    30   168   167    1
    31    79    78    1
    32   164   163    2
    33    75    76    1
    34   161   162    1
    35    78    81    1
    36   163   166   am
    37   163   162    1
    38   106   105   ar
    39    64    65    1
    40   167   166    1
    41   167   170    1
    42    65    66    1
    43   107   105   ar
    44   162   165    1
    45   105   104    1
    46    81    82    1
    47    81    83    1
    48   170   171    1
    49    66    68   ar
    50    66    67   ar
    51    55    54    2
    52    82    84    1
    53   104   103    1
    54    54    53    1
    55   156   155    2
    56   153   154    1
    57   171   172   ar
    58   171   173   ar
    59    52    53    1
    60    53    56    1
    61   103   100    1
    62    90    89    1
    63    97    96    1
    64   155   154    1
    65    96    93    1
    66    96    98    1
    67   154   157    1
    68    99   100    1
    69    99    94   am
    70    93    94    1
    71    93    92    1
    72   157   158    1
    73   100   101    1
    74    91    89    1
    75    89    86    1
    76    56    57    1
    77   158   159    1
    78   158   160    1
    79    94    95    2
    80    58    57    1
    81    51    50    1
    82    57    59    1
    83    86    87    1
    84    86    85    1
    85   101   102    2
    86   101   108   am
    87    87    88    2
    88    50    49    1
    89    49    48    1
    90   124   121    1
    91   108   109    1
    92   111   110    2
    93   143   142    2
    94   110   120   am
    95   110   109    1
    96   121   120    1
    97   121   122    1
    98    47    48    1
    99    47    44    1
   100   109   112    1
   101    41    40    2
   102   142   141    1
   103    46    45    2
   104   144   145    1
   105   139   138    1
   106   137   138    1
   107   137   136    1
   108   122   123    2
   109   122   125   am
   110    44    43    1
   111    44    45    1
   112    42    39    1
   113   135   136    1
   114   135   132    1
   115   112   113    1
   116    38    39    1
   117    40    39    1
   118   125   126    1
   119   141   140    1
   120    37    35    1
   121   134   133    2
   122   140   133   am
   123   133   132    1
   124   146   145    1
   125   146   147    2
   126   131   132    1
   127   131   127   am
   128   145   148    1
   129    36    35    1
   130   113   114   ar
   131   113   115   ar
   132   130   129    1
   133   148   149    2
   134   114   116   ar
   135    35    32    1
   136   126   127    1
   137   126   129    1
   138   115   117   ar
   139   127   128    2
   140   151   150   ar
   141   149   150    1
   142   150   152   ar
   143   116   118   ar
   144    32    31    1
   145    32    33    1
   146   117   118   ar
   147    16    15    1
   148   118   119    1
   149    24    25    2
   150    24    23    1
   151    33    34    2
   152    23    22    1
   153    23    26    1
   154    14    15    1
   155    14    11    1
   156    15    17    1
   157    21    20    2
   158    22    20   am
   159    20    19    1
   160    26    27    1
   161    19    18    1
   162    13    12    2
   163    12    18   am
   164    12    11    1
   165    11    10    1
   166    27    28    1
   167    28    30   ar
   168    28    29   ar
   169     4     3    2
   170     8     9    1
   171     8     7    1
   172     3     2    1
   173     6     7    1
   174     6     5    1
   175     1     2    1
   176     2     5    1
