@<TRIPOS>MOLECULE
tmp/5a4eD00.pdb
 129 120 0 0 0
SMALL
GASTEIGER

@<TRIPOS>ATOM
      1  N        -46.6690   -3.7900  -21.2590 N.3    32  ILE32      -0.1245
      2  CA       -47.2460   -3.0930  -22.4220 C.3    32  ILE32       0.1561
      3  C        -46.4160   -3.1600  -23.7110 C.2    32  ILE32       0.2260
      4  O        -46.8850   -2.7180  -24.7640 O.2    32  ILE32      -0.2867
      5  CB       -47.5490   -1.6070  -22.1050 C.3    32  ILE32       0.0252
      6  CG1      -46.2810   -0.8520  -21.6880 C.3    32  ILE32       0.0019
      7  CG2      -48.6070   -1.5020  -21.0160 C.3    32  ILE32       0.0019
      8  CD1      -46.4300    0.6510  -21.7490 C.3    32  ILE32       0.0001
      9  N        -34.3350   -5.7100  -27.0740 N.3    37  PHE37      -0.1241
     10  CA       -33.7500   -4.9100  -25.9820 C.3    37  PHE37       0.1605
     11  C        -34.1300   -5.4180  -24.5850 C.2    37  PHE37       0.2264
     12  O        -33.2970   -5.4460  -23.6740 O.2    37  PHE37      -0.2867
     13  CB       -34.1480   -3.4290  -26.1170 C.3    37  PHE37       0.0534
     14  CG       -35.6370   -3.1910  -26.1480 C.ar   37  PHE37      -0.0203
     15  CD1      -36.3660   -3.0910  -24.9690 C.ar   37  PHE37      -0.0042
     16  CD2      -36.3100   -3.0560  -27.3570 C.ar   37  PHE37      -0.0042
     17  CE1      -37.7330   -2.8740  -24.9980 C.ar   37  PHE37      -0.0003
     18  CE2      -37.6780   -2.8360  -27.3900 C.ar   37  PHE37      -0.0003
     19  CZ       -38.3900   -2.7450  -26.2100 C.ar   37  PHE37      -0.0000
     20  N        -41.0750   -3.4190  -21.8230 N.3    40  VAL40      -0.1245
     21  CA       -41.6300   -2.1720  -21.3170 C.3    40  VAL40       0.1561
     22  C        -42.7660   -2.4900  -20.3520 C.2    40  VAL40       0.2260
     23  O        -43.5110   -3.4450  -20.5600 O.2    40  VAL40      -0.2867
     24  CB       -42.1780   -1.3080  -22.4740 C.3    40  VAL40       0.0252
     25  CG1      -42.6350    0.0510  -21.9620 C.3    40  VAL40       0.0019
     26  CG2      -41.1280   -1.1530  -23.5670 C.3    40  VAL40       0.0019
     27  N        -43.7750    4.8850  -18.4020 N.3    53  ALA53      -0.1245
     28  CA       -43.4090    3.6530  -19.0970 C.3    53  ALA53       0.1562
     29  C        -41.9300    3.3930  -18.8700 C.2    53  ALA53       0.2260
     30  O        -41.0830    4.1120  -19.3950 O.2    53  ALA53      -0.2867
     31  CB       -43.7050    3.7680  -20.5820 C.3    53  ALA53       0.0290
     32  N        -38.7150    1.2530  -19.5000 N.3    55  LYS55      -0.1245
     33  CA       -38.1620    0.3320  -20.4910 C.3    55  LYS55       0.1561
     34  C        -37.0690   -0.5140  -19.8520 C.2    55  LYS55       0.2260
     35  O        -35.9200   -0.0850  -19.7460 O.2    55  LYS55      -0.2867
     36  CB       -37.6050    1.1090  -21.6880 C.3    55  LYS55       0.0271
     37  CG       -37.0750    0.2430  -22.8200 C.3    55  LYS55       0.0035
     38  CD       -36.5020    1.1040  -23.9350 C.3    55  LYS55       0.0206
     39  CE       -36.0450    0.2660  -25.1140 C.3    55  LYS55       0.1093
     40  NZ       -35.3390    1.0800  -26.1400 N.3    55  LYS55      -0.1314
     41  N        -28.4840    4.7160  -26.4490 N.3    70  GLU70      -0.1245
     42  CA       -29.7850    5.3930  -26.5040 C.3    70  GLU70       0.1567
     43  C        -29.8330    6.5600  -25.5170 C.2    70  GLU70       0.2260
     44  O        -30.2130    7.6740  -25.8750 O.2    70  GLU70      -0.2867
     45  CB       -30.9350    4.4160  -26.2230 C.3    70  GLU70       0.0388
     46  CG       -32.2940    5.0940  -26.0670 C.3    70  GLU70       0.1160
     47  CD       -33.4700    4.1470  -26.2420 C.2    70  GLU70       0.3649
     48  OE1      -33.3820    2.9900  -25.7880 O.co2  70  GLU70      -0.2457
     49  OE2      -34.4920    4.5660  -26.8290 O.co2  70  GLU70      -0.2457
     50  N        -40.0340   11.4830  -27.7520 N.3    89  VAL89      -0.1245
     51  CA       -40.3030   10.9210  -26.4280 C.3    89  VAL89       0.1561
     52  C        -39.1970   11.3300  -25.4620 C.2    89  VAL89       0.2260
     53  O        -38.0120   11.2640  -25.7930 O.2    89  VAL89      -0.2867
     54  CB       -40.4610    9.3840  -26.4600 C.3    89  VAL89       0.0252
     55  CG1      -39.1230    8.6820  -26.6790 C.3    89  VAL89       0.0019
     56  CG2      -41.1220    8.8920  -25.1810 C.3    89  VAL89       0.0019
     57  N        -39.7630    6.8080  -19.2690 N.3   105  PHE105     -0.1227
     58  CA       -40.3200    7.7340  -20.2490 C.3   105  PHE105      0.1736
     59  C        -41.6930    8.2240  -19.8020 C.2   105  PHE105      0.2595
     60  O        -42.3300    7.6190  -18.9390 O.2   105  PHE105     -0.2718
     61  CB       -40.4710    7.0460  -21.6080 C.3   105  PHE105      0.0547
     62  CG       -39.1750    6.5890  -22.2120 C.ar  105  PHE105     -0.0202
     63  CD1      -38.6360    5.3560  -21.8810 C.ar  105  PHE105     -0.0042
     64  CD2      -38.5040    7.3840  -23.1340 C.ar  105  PHE105     -0.0042
     65  CE1      -37.4470    4.9280  -22.4460 C.ar  105  PHE105     -0.0003
     66  CE2      -37.3120    6.9640  -23.6990 C.ar  105  PHE105     -0.0003
     67  CZ       -36.7830    5.7320  -23.3550 C.ar  105  PHE105     -0.0000
     68  N        -42.1410    9.3240  -20.4010 N.am  106  GLU106     -0.1965
     69  CA       -43.5130    9.7910  -20.2270 C.3   106  GLU106      0.1733
     70  C        -44.4540    8.7350  -20.7830 C.2   106  GLU106      0.2616
     71  O        -44.1500    8.1070  -21.7960 O.2   106  GLU106     -0.2715
     72  CB       -43.7390   11.1280  -20.9490 C.3   106  GLU106      0.0429
     73  CG       -43.6900   11.0550  -22.4720 C.3   106  GLU106      0.1163
     74  CD       -43.6980   12.4210  -23.1280 C.2   106  GLU106      0.3649
     75  OE1      -44.5930   13.2290  -22.8030 O.co2 106  GLU106     -0.2457
     76  OE2      -42.8170   12.6850  -23.9780 O.co2 106  GLU106     -0.2457
     77  N        -45.5920    8.5390  -20.1250 N.am  107  MET107     -0.1963
     78  CA       -46.5600    7.5490  -20.5790 C.3   107  MET107      0.1736
     79  C        -47.2750    8.0660  -21.8230 C.2   107  MET107      0.2616
     80  O        -47.7580    9.1980  -21.8390 O.2   107  MET107     -0.2715
     81  CB       -47.5730    7.2300  -19.4750 C.3   107  MET107      0.0427
     82  CG       -48.4140    5.9880  -19.7330 C.3   107  MET107      0.0599
     83  SD       -47.4310    4.4770  -19.8030 S.3   107  MET107     -0.1393
     84  CE       -48.6700    3.2980  -20.3410 C.3   107  MET107      0.0692
     85  N        -47.3200    7.2280  -22.8570 N.am  108  LEU108     -0.1963
     86  CA       -47.9850    7.5430  -24.1190 C.3   108  LEU108      0.1728
     87  C        -49.0720    6.5070  -24.3840 C.2   108  LEU108      0.2616
     88  O        -49.1960    5.5270  -23.6470 O.2   108  LEU108     -0.2715
     89  CB       -46.9730    7.5360  -25.2670 C.3   108  LEU108      0.0311
     90  CG       -45.7760    8.4780  -25.1290 C.3   108  LEU108      0.0022
     91  CD1      -44.8270    8.2990  -26.3050 C.3   108  LEU108      0.0001
     92  CD2      -46.2320    9.9260  -25.0190 C.3   108  LEU108      0.0001
     93  N        -49.8490    6.7270  -25.4420 N.am  109  SER109     -0.1950
     94  CA       -50.9520    5.8360  -25.8030 C.3   109  SER109      0.1924
     95  C        -50.4920    4.7810  -26.8220 C.2   109  SER109      0.2314
     96  O        -49.3350    4.3590  -26.7890 O.2   109  SER109     -0.2863
     97  CB       -52.1360    6.6580  -26.3230 C.3   109  SER109      0.2116
     98  OG       -52.4430    7.7130  -25.4300 O.3   109  SER109     -0.2180
     99  N        -43.1370    2.8520  -34.0850 N.3   159  ASN159     -0.1240
    100  CA       -42.2640    3.7710  -33.3490 C.3   159  ASN159      0.1653
    101  C        -42.8100    5.1960  -33.2390 C.2   159  ASN159      0.2266
    102  O        -42.1030    6.1010  -32.7930 O.2   159  ASN159     -0.2867
    103  CB       -40.8650    3.7940  -33.9840 C.3   159  ASN159      0.1155
    104  CG       -40.0540    2.5500  -33.6640 C.2   159  ASN159      0.2627
    105  OD1      -40.3500    1.8190  -32.7140 O.2   159  ASN159     -0.2716
    106  ND2      -39.0150    2.3100  -34.4520 N.am  159  ASN159     -0.0877
    107  N        -45.9080    6.9580  -31.3890 N.3   161  LEU161     -0.1245
    108  CA       -46.9660    6.7490  -30.4030 C.3   161  LEU161      0.1561
    109  C        -47.7840    8.0140  -30.1890 C.2   161  LEU161      0.2260
    110  O        -47.2310    9.1080  -30.0780 O.2   161  LEU161     -0.2867
    111  CB       -46.3750    6.2850  -29.0690 C.3   161  LEU161      0.0270
    112  CG       -46.1170    4.7840  -28.9430 C.3   161  LEU161      0.0019
    113  CD1      -45.1790    4.2970  -30.0350 C.3   161  LEU161      0.0001
    114  CD2      -45.5520    4.4680  -27.5690 C.3   161  LEU161      0.0001
    115  N        -40.5030    7.3240  -30.7730 N.3   173  VAL173     -0.1231
    116  CA       -39.9140    6.4920  -29.7210 C.3   173  VAL173      0.1692
    117  C        -38.8760    5.5150  -30.2800 C.2   173  VAL173      0.2592
    118  O        -38.8580    5.2380  -31.4760 O.2   173  VAL173     -0.2718
    119  CB       -40.9940    5.6910  -28.9570 C.3   173  VAL173      0.0266
    120  CG1      -41.9110    6.6220  -28.1770 C.3   173  VAL173      0.0020
    121  CG2      -41.8030    4.8160  -29.9030 C.3   173  VAL173      0.0020
    122  N        -38.0250    5.0060  -29.3890 N.am  174  ASP174     -0.1974
    123  CA       -36.9810    4.0150  -29.7010 C.3   174  ASP174      0.1709
    124  C        -35.8150    4.6110  -30.4810 C.2   174  ASP174      0.2293
    125  O        -35.8820    4.7530  -31.7020 O.2   174  ASP174     -0.2864
    126  CB       -37.5490    2.7970  -30.4520 C.3   174  ASP174      0.1436
    127  CG       -36.5630    1.6300  -30.5240 C.2   174  ASP174      0.3671
    128  OD1      -35.5380    1.6470  -29.8050 O.co2 174  ASP174     -0.2456
    129  OD2      -36.8200    0.6860  -31.3060 O.co2 174  ASP174     -0.2456
@<TRIPOS>BOND
     1   106   104   am
     2    99   100    1
     3   103   104    1
     4   103   100    1
     5   104   105    2
     6   100   101    1
     7   101   102    2
     8   125   124    2
     9   118   117    2
    10   107   108    1
    11   129   127   ar
    12   115   116    1
    13   127   126    1
    14   127   128   ar
    15   124   123    1
    16   126   123    1
    17   108   109    1
    18   108   111    1
    19   117   116    1
    20   117   122   am
    21   109   110    2
    22   113   112    1
    23   121   119    1
    24   116   119    1
    25   123   122    1
    26   111   112    1
    27   119   120    1
    28   112   114    1
    29    50    51    1
    30    18    16   ar
    31    18    19   ar
    32    16    14   ar
    33     9    10    1
    34    49    47   ar
    35    95    96    2
    36    95    94    1
    37    55    54    1
    38    42    41    1
    39    42    45    1
    40    42    43    1
    41    54    51    1
    42    54    56    1
    43    51    52    1
    44    97    94    1
    45    97    98    1
    46    91    90    1
    47    47    46    1
    48    47    48   ar
    49    45    46    1
    50    19    17   ar
    51    14    13    1
    52    14    15   ar
    53    40    39    1
    54    13    10    1
    55    10    11    1
    56    44    43    2
    57    94    93    1
    58    53    52    2
    59    93    87   am
    60    89    90    1
    61    89    86    1
    62    90    92    1
    63    39    38    1
    64    17    15   ar
    65     4     3    2
    66    11    12    2
    67    87    86    1
    68    87    88    2
    69    86    85    1
    70    76    74   ar
    71    38    37    1
    72     3     2    1
    73    66    67   ar
    74    66    64   ar
    75    26    24    1
    76    67    65   ar
    77    64    62   ar
    78    74    75   ar
    79    74    73    1
    80    85    79   am
    81    37    36    1
    82    24    25    1
    83    24    21    1
    84    73    72    1
    85    65    63   ar
    86     2     5    1
    87     2     1    1
    88    62    63   ar
    89    62    61    1
    90     5     6    1
    91     5     7    1
    92    80    79    2
    93    79    78    1
    94    20    21    1
    95    71    70    2
    96     8     6    1
    97    36    33    1
    98    61    58    1
    99    21    22    1
   100    72    69    1
   101    70    69    1
   102    70    77   am
   103    31    28    1
   104    78    77    1
   105    78    81    1
   106    23    22    2
   107    33    34    1
   108    33    32    1
   109    68    69    1
   110    68    59   am
   111    84    83    1
   112    58    59    1
   113    58    57    1
   114    34    35    2
   115    83    82    1
   116    59    60    2
   117    82    81    1
   118    30    29    2
   119    28    29    1
   120    28    27    1
