@<TRIPOS>MOLECULE
tmp/5a4eC00.pdb
 151 142 0 0 0
SMALL
GASTEIGER

@<TRIPOS>ATOM
      1  N        -20.7060  -26.3630  -34.2390 N.3    32  ILE32      -0.1231
      2  CA       -19.8050  -26.8720  -33.1920 C.3    32  ILE32       0.1692
      3  C        -19.8350  -26.0210  -31.9180 C.2    32  ILE32       0.2593
      4  O        -18.9550  -26.1410  -31.0670 O.2    32  ILE32      -0.2718
      5  CB       -18.3460  -26.9620  -33.7020 C.3    32  ILE32       0.0266
      6  CG1      -17.7960  -25.5680  -34.0450 C.3    32  ILE32       0.0019
      7  CG2      -18.2680  -27.8840  -34.9100 C.3    32  ILE32       0.0020
      8  CD1      -16.3570  -25.5690  -34.5110 C.3    32  ILE32       0.0001
      9  N        -20.8500  -25.1730  -31.7850 N.am   33  GLY33      -0.1942
     10  CA       -20.9340  -24.2450  -30.6620 C.3    33  GLY33       0.2014
     11  C        -22.0960  -23.2830  -30.8070 C.2    33  GLY33       0.2638
     12  O        -22.6080  -23.0750  -31.9090 O.2    33  GLY33      -0.2714
     13  N        -22.5070  -22.6950  -29.6870 N.am   34  LYS34      -0.1977
     14  CA       -23.6700  -21.8110  -29.6510 C.3    34  LYS34       0.1596
     15  C        -23.6010  -20.8920  -28.4320 C.2    34  LYS34       0.2287
     16  O        -22.9490  -21.2110  -27.4390 O.2    34  LYS34      -0.2864
     17  CB       -24.9550  -22.6460  -29.6210 C.3    34  LYS34       0.0298
     18  CG       -26.2420  -21.8600  -29.8130 C.3    34  LYS34       0.0038
     19  CD       -27.4590  -22.7690  -29.7390 C.3    34  LYS34       0.0206
     20  CE       -28.7540  -21.9710  -29.7320 C.3    34  LYS34       0.1093
     21  NZ       -28.9710  -21.2390  -31.0090 N.3    34  LYS34      -0.1314
     22  N        -24.3610  -14.4320  -28.3180 N.3    37  PHE37      -0.1241
     23  CA       -23.7490  -13.7730  -29.4770 C.3    37  PHE37       0.1605
     24  C        -24.2150  -14.3210  -30.8280 C.2    37  PHE37       0.2264
     25  O        -24.4290  -13.5520  -31.7650 O.2    37  PHE37      -0.2867
     26  CB       -22.2180  -13.8630  -29.3940 C.3    37  PHE37       0.0534
     27  CG       -21.6850  -15.2730  -29.3760 C.ar   37  PHE37      -0.0203
     28  CD1      -21.4060  -15.9400  -30.5630 C.ar   37  PHE37      -0.0042
     29  CD2      -21.4530  -15.9300  -28.1720 C.ar   37  PHE37      -0.0042
     30  CE1      -20.9160  -17.2340  -30.5510 C.ar   37  PHE37      -0.0003
     31  CE2      -20.9590  -17.2210  -28.1540 C.ar   37  PHE37      -0.0003
     32  CZ       -20.6900  -17.8740  -29.3450 C.ar   37  PHE37      -0.0000
     33  N        -21.0770  -20.7480  -33.5900 N.3    40  VAL40      -0.1245
     34  CA       -19.7740  -21.1240  -34.1200 C.3    40  VAL40       0.1561
     35  C        -19.9580  -22.3780  -34.9700 C.2    40  VAL40       0.2260
     36  O        -20.7070  -23.2850  -34.5990 O.2    40  VAL40      -0.2867
     37  CB       -18.7530  -21.4060  -33.0040 C.3    40  VAL40       0.0252
     38  CG1      -17.3700  -21.6380  -33.6010 C.3    40  VAL40       0.0019
     39  CG2      -18.7240  -20.2550  -32.0080 C.3    40  VAL40       0.0019
     40  N        -12.6820  -22.3800  -37.5320 N.3    53  ALA53      -0.1245
     41  CA       -13.8910  -22.1170  -36.7640 C.3    53  ALA53       0.1562
     42  C        -14.3620  -20.7130  -37.1090 C.2    53  ALA53       0.2260
     43  O        -13.5970  -19.7580  -36.9800 O.2    53  ALA53      -0.2867
     44  CB       -13.6100  -22.2320  -35.2760 C.3    53  ALA53       0.0290
     45  N        -17.0930  -17.8820  -36.1980 N.3    55  LYS55      -0.1245
     46  CA       -18.0720  -17.3750  -35.2420 C.3    55  LYS55       0.1561
     47  C        -19.0550  -16.4370  -35.9470 C.2    55  LYS55       0.2260
     48  O        -18.7290  -15.2850  -36.2300 O.2    55  LYS55      -0.2867
     49  CB       -17.3390  -16.6390  -34.1150 C.3    55  LYS55       0.0271
     50  CG       -18.2070  -16.1500  -32.9660 C.3    55  LYS55       0.0035
     51  CD       -17.3760  -15.2990  -32.0170 C.3    55  LYS55       0.0206
     52  CE       -18.2110  -14.6510  -30.9240 C.3    55  LYS55       0.1093
     53  NZ       -18.2210  -15.4490  -29.6700 N.3    55  LYS55      -0.1314
     54  N        -14.6540   -7.1360  -29.7290 N.3    70  GLU70      -0.1245
     55  CA       -13.8000   -8.3300  -29.7530 C.3    70  GLU70       0.1567
     56  C        -12.8280   -8.3210  -30.9330 C.2    70  GLU70       0.2260
     57  O        -11.6590   -8.6690  -30.7780 O.2    70  GLU70      -0.2867
     58  CB       -14.6540   -9.6070  -29.8020 C.3    70  GLU70       0.0388
     59  CG       -13.8640  -10.8910  -29.5800 C.3    70  GLU70       0.1160
     60  CD       -14.7090  -12.1540  -29.6550 C.2    70  GLU70       0.3649
     61  OE1      -15.8790  -12.0890  -30.0880 O.co2  70  GLU70      -0.2457
     62  OE2      -14.1880  -13.2280  -29.2850 O.co2  70  GLU70      -0.2457
     63  N         -6.4270  -17.2850  -28.6540 N.3    87  VAL87      -0.1245
     64  CA        -6.8920  -17.6890  -29.9860 C.3    87  VAL87       0.1561
     65  C         -6.5640  -16.6410  -31.0510 C.2    87  VAL87       0.2260
     66  O         -6.7140  -15.4440  -30.8190 O.2    87  VAL87      -0.2867
     67  CB        -8.4070  -18.0060  -29.9990 C.3    87  VAL87       0.0252
     68  CG1       -9.2440  -16.7530  -29.7620 C.3    87  VAL87       0.0019
     69  CG2       -8.7980  -18.6820  -31.3060 C.3    87  VAL87       0.0019
     70  N        -11.5760  -17.7110  -37.0010 N.3   103  PHE103     -0.1227
     71  CA       -10.4980  -18.1330  -36.1080 C.3   103  PHE103      0.1736
     72  C         -9.8050  -19.3710  -36.6640 C.2   103  PHE103      0.2595
     73  O        -10.3150  -20.0190  -37.5800 O.2   103  PHE103     -0.2718
     74  CB       -11.0510  -18.4810  -34.7260 C.3   103  PHE103      0.0547
     75  CG       -11.7040  -17.3290  -34.0180 C.ar  103  PHE103     -0.0202
     76  CD1      -10.9450  -16.4400  -33.2690 C.ar  103  PHE103     -0.0042
     77  CD2      -13.0820  -17.1490  -34.0770 C.ar  103  PHE103     -0.0042
     78  CE1      -11.5430  -15.3860  -32.6070 C.ar  103  PHE103     -0.0003
     79  CE2      -13.6870  -16.0950  -33.4110 C.ar  103  PHE103     -0.0003
     80  CZ       -12.9160  -15.2110  -32.6760 C.ar  103  PHE103     -0.0000
     81  N         -8.6460  -19.6960  -36.0970 N.am  104  GLU104     -0.1965
     82  CA        -7.9900  -20.9790  -36.3630 C.3   104  GLU104      0.1733
     83  C         -8.7870  -22.0910  -35.6930 C.2   104  GLU104      0.2616
     84  O         -9.3780  -21.8780  -34.6320 O.2   104  GLU104     -0.2715
     85  CB        -6.5490  -20.9840  -35.8440 C.3   104  GLU104      0.0429
     86  CG        -6.4160  -20.9900  -34.3240 C.3   104  GLU104      0.1163
     87  CD        -4.9770  -20.9490  -33.8530 C.2   104  GLU104      0.3649
     88  OE1       -4.0620  -21.1170  -34.6850 O.co2 104  GLU104     -0.2457
     89  OE2       -4.7580  -20.7580  -32.6390 O.co2 104  GLU104     -0.2457
     90  N         -8.7970  -23.2700  -36.3080 N.am  105  MET105     -0.1963
     91  CA        -9.5430  -24.4080  -35.7760 C.3   105  MET105      0.1736
     92  C         -8.8500  -24.9640  -34.5390 C.2   105  MET105      0.2616
     93  O         -7.6410  -25.1950  -34.5450 O.2   105  MET105     -0.2715
     94  CB        -9.6880  -25.5100  -36.8310 C.3   105  MET105      0.0427
     95  CG       -10.6660  -26.6130  -36.4510 C.3   105  MET105      0.0599
     96  SD       -12.3730  -26.0380  -36.3370 S.3   105  MET105     -0.1393
     97  CE       -13.0880  -27.2810  -35.2650 C.3   105  MET105      0.0692
     98  N         -9.6340  -25.1740  -33.4860 N.am  106  LEU106     -0.1963
     99  CA        -9.1380  -25.6960  -32.2200 C.3   106  LEU106      0.1728
    100  C         -9.9740  -26.9020  -31.8050 C.2   106  LEU106      0.2616
    101  O        -11.1210  -27.0470  -32.2300 O.2   106  LEU106     -0.2715
    102  CB        -9.2040  -24.6130  -31.1420 C.3   106  LEU106      0.0311
    103  CG        -8.4390  -23.3170  -31.4270 C.3   106  LEU106      0.0022
    104  CD1       -8.7840  -22.2650  -30.3840 C.3   106  LEU106      0.0001
    105  CD2       -6.9390  -23.5600  -31.4760 C.3   106  LEU106      0.0001
    106  N         -9.3970  -27.7540  -30.9650 N.am  107  SER107     -0.1950
    107  CA       -10.0390  -29.0020  -30.5450 C.3   107  SER107      0.1924
    108  C        -11.1460  -28.7600  -29.5040 C.2   107  SER107      0.2314
    109  O        -11.8290  -27.7330  -29.5450 O.2   107  SER107     -0.2863
    110  CB        -8.9770  -29.9680  -30.0100 C.3   107  SER107      0.2116
    111  OG        -9.5430  -31.2270  -29.6960 O.3   107  SER107     -0.2180
    112  N        -15.4070  -23.6480  -20.3640 N.3   156  GLU156     -0.1231
    113  CA       -16.0050  -23.5180  -21.6980 C.3   156  GLU156      0.1699
    114  C        -15.1910  -22.6100  -22.6240 C.2   156  GLU156      0.2592
    115  O        -15.0800  -22.8840  -23.8230 O.2   156  GLU156     -0.2718
    116  CB       -17.4380  -22.9770  -21.5830 C.3   156  GLU156      0.0402
    117  CG       -18.2690  -23.0750  -22.8580 C.3   156  GLU156      0.1161
    118  CD       -19.6200  -22.3840  -22.7440 C.2   156  GLU156      0.3649
    119  OE1      -19.9940  -21.9590  -21.6310 O.co2 156  GLU156     -0.2457
    120  OE2      -20.3180  -22.2600  -23.7740 O.co2 156  GLU156     -0.2457
    121  N        -14.6210  -21.5430  -22.0620 N.am  157  ASN157     -0.1974
    122  CA       -13.8900  -20.5400  -22.8380 C.3   157  ASN157      0.1688
    123  C        -12.3740  -20.7680  -22.9540 C.2   157  ASN157      0.2292
    124  O        -11.6370  -19.8600  -23.3450 O.2   157  ASN157     -0.2864
    125  CB       -14.1770  -19.1510  -22.2620 C.3   157  ASN157      0.1181
    126  CG       -15.6410  -18.7600  -22.3830 C.2   157  ASN157      0.2629
    127  OD1      -16.3590  -19.2570  -23.2520 O.2   157  ASN157     -0.2716
    128  ND2      -16.0910  -17.8630  -21.5100 N.am  157  ASN157     -0.0877
    129  N         -9.7610  -23.5960  -24.8410 N.3   159  LEU159     -0.1245
    130  CA        -9.7550  -24.6800  -25.8290 C.3   159  LEU159      0.1561
    131  C         -8.3620  -25.2520  -26.0740 C.2   159  LEU159      0.2260
    132  O         -7.3620  -24.5450  -25.9630 O.2   159  LEU159     -0.2867
    133  CB       -10.3430  -24.1910  -27.1580 C.3   159  LEU159      0.0270
    134  CG       -11.8520  -24.3650  -27.3500 C.3   159  LEU159      0.0019
    135  CD1      -12.6460  -23.4490  -26.4300 C.3   159  LEU159      0.0001
    136  CD2      -12.2230  -24.1190  -28.8050 C.3   159  LEU159      0.0001
    137  N        -10.4000  -18.1590  -25.3770 N.3   171  VAL171     -0.1231
    138  CA       -11.4430  -17.9260  -26.3710 C.3   171  VAL171      0.1692
    139  C        -12.5470  -17.0610  -25.7590 C.2   171  VAL171      0.2592
    140  O        -12.6850  -16.9900  -24.5360 O.2   171  VAL171     -0.2718
    141  CB       -11.9770  -19.2820  -26.9110 C.3   171  VAL171      0.0266
    142  CG1      -13.5010  -19.3650  -26.9180 C.3   171  VAL171      0.0020
    143  CG2      -11.4040  -19.5670  -28.2930 C.3   171  VAL171      0.0020
    144  N        -13.3080  -16.3900  -26.6220 N.am  172  ASP172     -0.1974
    145  CA       -14.4090  -15.5130  -26.2100 C.3   172  ASP172      0.1709
    146  C        -13.9100  -14.2520  -25.4930 C.2   172  ASP172      0.2293
    147  O        -13.8030  -14.2200  -24.2670 O.2   172  ASP172     -0.2864
    148  CB       -15.4250  -16.2690  -25.3330 C.3   172  ASP172      0.1436
    149  CG       -16.7250  -15.5030  -25.1370 C.2   172  ASP172      0.3671
    150  OD1      -16.8840  -14.4090  -25.7170 O.co2 172  ASP172     -0.2456
    151  OD2      -17.5960  -15.9980  -24.3930 O.co2 172  ASP172     -0.2456
@<TRIPOS>BOND
     1    73    72    2
     2    40    41    1
     3    42    43    2
     4    42    41    1
     5    70    71    1
     6    94    95    1
     7    94    91    1
     8    41    44    1
     9    72    71    1
    10    72    81   am
    11    95    96    1
    12    82    81    1
    13    82    85    1
    14    82    83    1
    15    96    97    1
    16    90    91    1
    17    90    83   am
    18    48    47    2
    19    45    46    1
    20    71    74    1
    21    47    46    1
    22    85    86    1
    23    91    92    1
    24    83    84    2
    25    46    49    1
    26    35    36    2
    27    35    34    1
    28     7     5    1
    29    74    75    1
    30    88    87   ar
    31    93    92    2
    32    92    98   am
    33     8     6    1
    34    86    87    1
    35     1     2    1
    36    34    33    1
    37    34    37    1
    38    49    50    1
    39    77    75   ar
    40    77    79   ar
    41     6     5    1
    42    75    76   ar
    43    87    89   ar
    44     5     2    1
    45    38    37    1
    46    98    99    1
    47    79    80   ar
    48    76    78   ar
    49     2     3    1
    50    37    39    1
    51    50    51    1
    52    80    78   ar
    53   101   100    2
    54    99   100    1
    55    99   102    1
    56    51    52    1
    57     3     9   am
    58     3     4    2
    59    12    11    2
    60   100   106   am
    61     9    10    1
    62    25    24    2
    63   105   103    1
    64   103   102    1
    65   103   104    1
    66    69    67    1
    67    65    66    2
    68    65    64    1
    69    21    20    1
    70   106   107    1
    71    56    57    2
    72    56    55    1
    73    52    53    1
    74    24    23    1
    75    11    10    1
    76    11    13   am
    77    28    30   ar
    78    28    27   ar
    79    30    32   ar
    80   107   110    1
    81   107   108    1
    82    61    60   ar
    83   110   111    1
    84    67    64    1
    85    67    68    1
    86    64    63    1
    87    18    19    1
    88    18    17    1
    89    58    55    1
    90    58    59    1
    91    55    54    1
    92    19    20    1
    93    13    14    1
    94    60    59    1
    95    60    62   ar
    96    14    17    1
    97    14    15    1
    98   109   108    2
    99    23    26    1
   100    23    22    1
   101    26    27    1
   102    27    29   ar
   103    32    31   ar
   104   136   134    1
   105    15    16    2
   106   143   141    1
   107    29    31   ar
   108   134   133    1
   109   134   135    1
   110   133   130    1
   111   142   141    1
   112   141   138    1
   113   144   145    1
   114   144   139   am
   115   138   139    1
   116   138   137    1
   117   145   146    1
   118   145   148    1
   119   131   132    2
   120   131   130    1
   121   130   129    1
   122   139   140    2
   123   150   149   ar
   124   146   147    2
   125   148   149    1
   126   149   151   ar
   127   115   114    2
   128   120   118   ar
   129   124   123    2
   130   127   126    2
   131   123   122    1
   132   117   118    1
   133   117   116    1
   134   122   125    1
   135   122   121    1
   136   118   119   ar
   137   114   121   am
   138   114   113    1
   139   126   125    1
   140   126   128   am
   141   113   116    1
   142   113   112    1
