@<TRIPOS>MOLECULE
tmp/5a4jA00.pdb
 93 89 0 0 0
SMALL
GASTEIGER

@<TRIPOS>ATOM
      1  N        -19.7340  -34.8640   40.8850 N.3   370  THR370     -0.1203
      2  CA       -18.7640  -35.9630   40.8160 C.3   370  THR370      0.1994
      3  C        -18.5060  -36.4580   39.4010 C.2   370  THR370      0.2617
      4  O        -17.3570  -36.6300   39.0170 O.2   370  THR370     -0.2717
      5  CB       -19.1820  -37.1790   41.6680 C.3   370  THR370      0.1784
      6  OG1      -20.4790  -37.6320   41.2670 O.3   370  THR370     -0.2211
      7  CG2      -19.1880  -36.8270   43.1470 C.3   370  THR370      0.0376
      8  N        -19.5680  -36.6960   38.6360 N.am  371  GLU371     -0.1979
      9  CA       -19.4370  -37.3110   37.3150 C.3   371  GLU371      0.1602
     10  C        -19.3550  -36.3030   36.1700 C.2   371  GLU371      0.2287
     11  O        -18.6010  -36.5160   35.2240 O.2   371  GLU371     -0.2864
     12  CB       -20.5740  -38.3100   37.0750 C.3   371  GLU371      0.0415
     13  CG       -20.6290  -39.4070   38.1330 C.3   371  GLU371      0.1163
     14  CD       -21.5680  -40.5450   37.7780 C.2   371  GLU371      0.3649
     15  OE1      -22.6350  -40.2860   37.1910 O.co2 371  GLU371     -0.2457
     16  OE2      -21.2440  -41.7050   38.1010 O.co2 371  GLU371     -0.2457
     17  N        -16.4000  -33.6390   37.7950 N.3   374  GLY374     -0.1210
     18  CA       -15.2180  -34.4400   38.1510 C.3   374  GLY374      0.1956
     19  C        -14.4990  -33.9900   39.4140 C.2   374  GLY374      0.2612
     20  O        -13.2830  -34.1580   39.5250 O.2   374  GLY374     -0.2717
     21  N        -15.2410  -33.4420   40.3770 N.am  375  ILE375     -0.1966
     22  CA       -14.6470  -32.8670   41.5840 C.3   375  ILE375      0.1712
     23  C        -14.9730  -33.7330   42.8020 C.2   375  ILE375      0.2458
     24  O        -16.0980  -34.1960   42.9400 O.2   375  ILE375     -0.2730
     25  CB       -15.1790  -31.4420   41.8570 C.3   375  ILE375      0.0289
     26  CG1      -15.0940  -30.5720   40.6020 C.3   375  ILE375      0.0022
     27  CG2      -14.4020  -30.7950   42.9980 C.3   375  ILE375      0.0023
     28  CD1      -16.0780  -29.4220   40.5980 C.3   375  ILE375      0.0001
     29  N        -13.9880  -33.9550   43.6880 N.am  376  PRO376     -0.2716
     30  CA       -14.2480  -34.6230   44.9610 C.3   376  PRO376      0.1536
     31  C        -15.3730  -33.9740   45.7610 C.2   376  PRO376      0.2599
     32  O        -15.3660  -32.7560   45.9810 O.2   376  PRO376     -0.2715
     33  CB       -12.9150  -34.5050   45.6990 C.3   376  PRO376      0.0310
     34  CG       -11.8940  -34.4390   44.6250 C.3   376  PRO376      0.0237
     35  CD       -12.5460  -33.7600   43.4530 C.3   376  PRO376      0.0939
     36  N        -16.3200  -34.8000   46.2010 N.am  377  THR377     -0.1951
     37  CA       -17.5430  -34.3230   46.8290 C.3   377  THR377      0.1897
     38  C        -17.7770  -34.9990   48.1740 C.2   377  THR377      0.2313
     39  O        -17.4750  -36.1820   48.3490 O.2   377  THR377     -0.2863
     40  CB       -18.7370  -34.5980   45.9050 C.3   377  THR377      0.1794
     41  OG1      -18.5220  -33.9210   44.6720 O.3   377  THR377     -0.2208
     42  CG2      -20.0510  -34.1230   46.5070 C.3   377  THR377      0.0378
     43  N        -23.1430  -43.7890   45.3880 N.3   402  LEU402     -0.1231
     44  CA       -22.5330  -42.8810   44.4170 C.3   402  LEU402      0.1693
     45  C        -21.0740  -42.5960   44.7430 C.2   402  LEU402      0.2593
     46  O        -20.4540  -41.7460   44.1030 O.2   402  LEU402     -0.2718
     47  CB       -23.3150  -41.5660   44.3490 C.3   402  LEU402      0.0284
     48  CG       -24.7560  -41.6630   43.8550 C.3   402  LEU402      0.0019
     49  CD1      -25.3570  -40.2670   43.7830 C.3   402  LEU402      0.0001
     50  CD2      -24.8350  -42.3470   42.5000 C.3   402  LEU402      0.0001
     51  N        -20.5250  -43.3120   45.7250 N.am  403  GLY403     -0.1942
     52  CA       -19.1140  -43.1900   46.0820 C.3   403  GLY403      0.2014
     53  C        -18.8060  -41.9980   46.9730 C.2   403  GLY403      0.2638
     54  O        -17.6520  -41.6030   47.1000 O.2   403  GLY403     -0.2714
     55  N        -19.8330  -41.4450   47.6140 N.am  404  VAL404     -0.1977
     56  CA       -19.6970  -40.2150   48.3870 C.3   404  VAL404      0.1596
     57  C        -20.1630  -40.4430   49.8190 C.2   404  VAL404      0.2287
     58  O        -21.1340  -41.1620   50.0590 O.2   404  VAL404     -0.2864
     59  CB       -20.4990  -39.0800   47.7170 C.3   404  VAL404      0.0276
     60  CG1      -20.6240  -37.8600   48.6200 C.3   404  VAL404      0.0022
     61  CG2      -19.8410  -38.7070   46.4000 C.3   404  VAL404      0.0022
     62  N         -9.5700  -35.1810   53.7240 N.3   428  ARG428     -0.1231
     63  CA        -9.3310  -36.5060   53.1410 C.3   428  ARG428      0.1694
     64  C         -9.5850  -36.5370   51.6320 C.2   428  ARG428      0.2591
     65  O         -8.7310  -36.9970   50.8830 O.2   428  ARG428     -0.2718
     66  CB       -10.1840  -37.5730   53.8360 C.3   428  ARG428      0.0321
     67  CG        -9.7520  -39.0110   53.5600 C.3   428  ARG428      0.0489
     68  CD       -10.7750  -40.0220   54.0800 C.3   428  ARG428      0.2205
     69  NE       -12.0230  -39.9630   53.3200 N.pl3 428  ARG428     -0.0865
     70  CZ       -12.2020  -40.4750   52.0980 C.cat 428  ARG428      0.5346
     71  NH1      -11.2210  -41.1200   51.4730 N.pl3 428  ARG428      0.1354
     72  NH2      -13.3770  -40.3480   51.4940 N.pl3 428  ARG428      0.1354
     73  N        -10.7460  -36.0540   51.1840 N.am  429  ILE429     -0.1980
     74  CA       -11.0870  -36.1190   49.7540 C.3   429  ILE429      0.1595
     75  C        -10.1910  -35.2380   48.8840 C.2   429  ILE429      0.2287
     76  O         -9.9660  -35.5420   47.7040 O.2   429  ILE429     -0.2864
     77  CB       -12.5740  -35.7990   49.4540 C.3   429  ILE429      0.0276
     78  CG1      -12.9530  -34.3740   49.8790 C.3   429  ILE429      0.0022
     79  CG2      -13.4900  -36.8340   50.0990 C.3   429  ILE429      0.0022
     80  CD1      -14.3890  -34.0180   49.5580 C.3   429  ILE429      0.0001
     81  N         -9.0690  -38.1180   46.8240 N.3   433  GLY433     -0.1210
     82  CA        -9.9970  -38.2130   45.6990 C.3   433  GLY433      0.1956
     83  C         -9.3920  -37.7700   44.3810 C.2   433  GLY433      0.2611
     84  O         -8.4430  -36.9910   44.3580 O.2   433  GLY433     -0.2717
     85  N         -9.9460  -38.2750   43.2820 N.am  434  LYS434     -0.1979
     86  CA        -9.5170  -37.8920   41.9400 C.3   434  LYS434      0.1596
     87  C        -10.2240  -36.6190   41.5000 C.2   434  LYS434      0.2287
     88  O        -11.4250  -36.4630   41.7150 O.2   434  LYS434     -0.2864
     89  CB        -9.7950  -39.0160   40.9380 C.3   434  LYS434      0.0298
     90  CG        -8.8640  -40.2010   41.1170 C.3   434  LYS434      0.0038
     91  CD        -9.0960  -41.2920   40.0880 C.3   434  LYS434      0.0206
     92  CE        -8.0200  -42.3600   40.2070 C.3   434  LYS434      0.1093
     93  NZ        -8.3280  -43.5620   39.3880 N.3   434  LYS434     -0.1314
@<TRIPOS>BOND
     1    11    10    2
     2    10     9    1
     3    12     9    1
     4    12    13    1
     5    15    14   ar
     6     9     8    1
     7    14    16   ar
     8    14    13    1
     9    17    18    1
    10    18    19    1
    11     8     3   am
    12     4     3    2
    13    93    92    1
    14     3     2    1
    15    19    20    2
    16    19    21   am
    17    91    92    1
    18    91    90    1
    19    21    22    1
    20    28    26    1
    21    26    25    1
    22     2     1    1
    23     2     5    1
    24    89    90    1
    25    89    86    1
    26     6     5    1
    27    87    88    2
    28    87    86    1
    29    22    25    1
    30    22    23    1
    31     5     7    1
    32    25    27    1
    33    86    85    1
    34    50    48    1
    35    23    24    2
    36    23    29   am
    37    85    83   am
    38    35    29    1
    39    35    34    1
    40    29    30    1
    41    49    48    1
    42    48    47    1
    43    46    45    2
    44    47    44    1
    45    84    83    2
    46    83    82    1
    47    44    45    1
    48    44    43    1
    49    34    33    1
    50    41    40    1
    51    45    51   am
    52    30    33    1
    53    30    31    1
    54    82    81    1
    55    51    52    1
    56    31    32    2
    57    31    36   am
    58    40    42    1
    59    40    37    1
    60    52    53    1
    61    36    37    1
    62    61    59    1
    63    37    38    1
    64    53    54    2
    65    53    55   am
    66    55    56    1
    67    76    75    2
    68    59    56    1
    69    59    60    1
    70    38    39    2
    71    56    57    1
    72    75    74    1
    73    77    74    1
    74    77    78    1
    75    77    79    1
    76    80    78    1
    77    74    73    1
    78    57    58    2
    79    65    64    2
    80    73    64   am
    81    71    70    1
    82    72    70    1
    83    64    63    1
    84    70    69    2
    85    63    62    1
    86    63    66    1
    87    69    68    1
    88    67    66    1
    89    67    68    1
