@<TRIPOS>MOLECULE
tmp/5a4lA00.pdb
 133 125 0 0 0
SMALL
GASTEIGER

@<TRIPOS>ATOM
      1  N        -13.1600  -19.3850  -42.4960 N.3    32  ILE32      -0.1231
      2  CA       -12.5280  -19.6710  -43.8010 C.3    32  ILE32       0.1692
      3  C        -11.1140  -20.2540  -43.7120 C.2    32  ILE32       0.2592
      4  O        -10.4640  -20.4700  -44.7330 O.2    32  ILE32      -0.2718
      5  CB       -12.4730  -18.4030  -44.6900 C.3    32  ILE32       0.0266
      6  CG1      -11.7440  -17.2530  -43.9740 C.3    32  ILE32       0.0019
      7  CG2      -13.8760  -17.9780  -45.0920 C.3    32  ILE32       0.0020
      8  CD1      -11.3630  -16.0990  -44.8810 C.3    32  ILE32       0.0001
      9  N        -10.6440  -20.5100  -42.4970 N.am   33  GLY33      -0.1957
     10  CA        -9.2890  -20.9950  -42.2850 C.3    33  GLY33       0.1869
     11  C         -9.0670  -21.3870  -40.8390 C.2    33  GLY33       0.2309
     12  O         -9.7790  -20.9280  -39.9380 O.2    33  GLY33      -0.2863
     13  N         -1.9960  -21.1580  -34.9180 N.3    37  PHE37      -0.1241
     14  CA        -2.2230  -19.7750  -34.4860 C.3    37  PHE37       0.1605
     15  C         -3.6250  -19.5180  -33.9210 C.2    37  PHE37       0.2264
     16  O         -3.7750  -18.8530  -32.8890 O.2    37  PHE37      -0.2867
     17  CB        -1.9680  -18.8120  -35.6530 C.3    37  PHE37       0.0534
     18  CG        -2.8550  -19.0530  -36.8460 C.ar   37  PHE37      -0.0203
     19  CD1       -4.1270  -18.4940  -36.9090 C.ar   37  PHE37      -0.0042
     20  CD2       -2.4200  -19.8430  -37.9050 C.ar   37  PHE37      -0.0042
     21  CE1       -4.9450  -18.7190  -38.0020 C.ar   37  PHE37      -0.0003
     22  CE2       -3.2320  -20.0640  -39.0020 C.ar   37  PHE37      -0.0003
     23  CZ        -4.4960  -19.5010  -39.0500 C.ar   37  PHE37      -0.0000
     24  N         -9.1660  -18.0540  -38.9770 N.3    40  VAL40      -0.1245
     25  CA        -9.3870  -16.9490  -39.8910 C.3    40  VAL40       0.1561
     26  C        -10.8640  -16.8910  -40.2260 C.2    40  VAL40       0.2260
     27  O        -11.4500  -17.8840  -40.6620 O.2    40  VAL40      -0.2867
     28  CB        -8.5870  -17.0870  -41.1940 C.3    40  VAL40       0.0252
     29  CG1       -8.8070  -15.8620  -42.0700 C.3    40  VAL40       0.0019
     30  CG2       -7.1060  -17.2650  -40.8930 C.3    40  VAL40       0.0019
     31  N        -10.5580  -10.3860  -44.6230 N.3    53  ALA53      -0.1245
     32  CA       -10.2160  -11.5910  -43.8900 C.3    53  ALA53       0.1562
     33  C         -9.6550  -11.1640  -42.5430 C.2    53  ALA53       0.2260
     34  O         -8.7900  -10.2910  -42.4830 O.2    53  ALA53      -0.2867
     35  CB        -9.1860  -12.3930  -44.6570 C.3    53  ALA53       0.0290
     36  N         -7.7420  -12.5710  -39.0950 N.3    55  LYS55      -0.1245
     37  CA        -7.0050  -13.6650  -38.4700 C.3    55  LYS55       0.1561
     38  C         -7.0870  -13.5640  -36.9490 C.2    55  LYS55       0.2260
     39  O         -6.2920  -12.8700  -36.3180 O.2    55  LYS55      -0.2867
     40  CB        -5.5470  -13.6520  -38.9360 C.3    55  LYS55       0.0271
     41  CG        -4.6980  -14.7760  -38.3660 C.3    55  LYS55       0.0035
     42  CD        -3.3280  -14.8150  -39.0140 C.3    55  LYS55       0.0206
     43  CE        -2.5720  -16.0680  -38.6290 C.3    55  LYS55       0.1093
     44  NZ        -1.2830  -16.1600  -39.3550 N.3    55  LYS55      -0.1314
     45  N          0.8820  -10.3550  -48.8940 N.3    89  VAL89      -0.1245
     46  CA        -0.4670  -10.0250  -48.4200 C.3    89  VAL89       0.1561
     47  C         -0.4360   -8.7780  -47.5210 C.2    89  VAL89       0.2260
     48  O          0.4820   -8.5920  -46.7200 O.2    89  VAL89      -0.2867
     49  CB        -1.1300  -11.2060  -47.6710 C.3    89  VAL89       0.0252
     50  CG1       -0.4640  -11.4540  -46.3190 C.3    89  VAL89       0.0019
     51  CG2       -2.6210  -10.9590  -47.4850 C.3    89  VAL89       0.0019
     52  N         -6.7230   -8.6860  -42.8000 N.3   105  PHE105     -0.1227
     53  CA        -6.1220   -8.7120  -44.1290 C.3   105  PHE105      0.1736
     54  C         -7.1530   -8.4030  -45.2000 C.2   105  PHE105      0.2595
     55  O         -8.3530   -8.4840  -44.9670 O.2   105  PHE105     -0.2718
     56  CB        -5.5090  -10.0820  -44.4220 C.3   105  PHE105      0.0547
     57  CG        -4.3990  -10.4610  -43.4950 C.ar  105  PHE105     -0.0202
     58  CD1       -4.6680  -11.1320  -42.3060 C.ar  105  PHE105     -0.0042
     59  CD2       -3.0850  -10.1630  -43.8100 C.ar  105  PHE105     -0.0042
     60  CE1       -3.6430  -11.4920  -41.4480 C.ar  105  PHE105     -0.0003
     61  CE2       -2.0560  -10.5170  -42.9580 C.ar  105  PHE105     -0.0003
     62  CZ        -2.3340  -11.1810  -41.7750 C.ar  105  PHE105     -0.0000
     63  N         -6.6530   -8.0410  -46.3780 N.am  106  GLU106     -0.1965
     64  CA        -7.4660   -7.9570  -47.5820 C.3   106  GLU106      0.1733
     65  C         -8.0730   -9.3270  -47.8490 C.2   106  GLU106      0.2616
     66  O         -7.4770  -10.3560  -47.5190 O.2   106  GLU106     -0.2715
     67  CB        -6.6190   -7.5270  -48.7840 C.3   106  GLU106      0.0429
     68  CG        -5.5780   -8.5600  -49.2240 C.3   106  GLU106      0.1163
     69  CD        -4.5060   -7.9800  -50.1280 C.2   106  GLU106      0.3649
     70  OE1       -4.8160   -7.0430  -50.8910 O.co2 106  GLU106     -0.2457
     71  OE2       -3.3580   -8.4690  -50.0840 O.co2 106  GLU106     -0.2457
     72  N         -9.2580   -9.3350  -48.4390 N.am  107  MET107     -0.1963
     73  CA        -9.9240  -10.5760  -48.7820 C.3   107  MET107      0.1736
     74  C         -9.3300  -11.1430  -50.0740 C.2   107  MET107      0.2616
     75  O         -9.2360  -10.4360  -51.0820 O.2   107  MET107     -0.2715
     76  CB       -11.4260  -10.3260  -48.9430 C.3   107  MET107      0.0427
     77  CG       -12.2710  -11.5820  -48.9790 C.3   107  MET107      0.0599
     78  SD       -12.2870  -12.4070  -47.3870 S.3   107  MET107     -0.1393
     79  CE       -12.6760  -14.0770  -47.9110 C.3   107  MET107      0.0692
     80  N         -8.9300  -12.4130  -50.0280 N.am  108  LEU108     -0.1963
     81  CA        -8.3580  -13.1190  -51.1800 C.3   108  LEU108      0.1728
     82  C         -9.2220  -14.3400  -51.5300 C.2   108  LEU108      0.2616
     83  O        -10.1210  -14.7070  -50.7680 O.2   108  LEU108     -0.2715
     84  CB        -6.9260  -13.5610  -50.8750 C.3   108  LEU108      0.0311
     85  CG        -5.9380  -12.4490  -50.5270 C.3   108  LEU108      0.0022
     86  CD1       -4.7080  -13.0100  -49.8400 C.3   108  LEU108      0.0001
     87  CD2       -5.5440  -11.6690  -51.7710 C.3   108  LEU108      0.0001
     88  N         -8.9510  -14.9630  -52.6760 N.am  109  SER109     -0.1950
     89  CA        -9.7370  -16.1140  -53.1320 C.3   109  SER109      0.1924
     90  C         -8.9770  -17.4310  -52.8960 C.2   109  SER109      0.2314
     91  O         -8.2290  -17.5470  -51.9210 O.2   109  SER109     -0.2863
     92  CB       -10.1420  -15.9340  -54.6040 C.3   109  SER109      0.2116
     93  OG       -11.3350  -16.6650  -54.8980 O.3   109  SER109     -0.2180
     94  N         -0.6530  -23.8090  -50.6270 N.3   158  GLU158     -0.1231
     95  CA        -1.7820  -23.3250  -49.8200 C.3   158  GLU158      0.1699
     96  C         -1.4590  -22.0940  -48.9570 C.2   158  GLU158      0.2592
     97  O         -2.3390  -21.5720  -48.2880 O.2   158  GLU158     -0.2718
     98  CB        -2.4050  -24.4650  -48.9790 C.3   158  GLU158      0.0402
     99  CG        -1.6230  -24.9240  -47.7580 C.3   158  GLU158      0.1161
    100  CD        -2.1060  -26.2720  -47.2280 C.2   158  GLU158      0.3649
    101  OE1       -1.8150  -27.3060  -47.8720 O.co2 158  GLU158     -0.2457
    102  OE2       -2.7590  -26.3010  -46.1580 O.co2 158  GLU158     -0.2457
    103  N         -0.2070  -21.6450  -48.9720 N.am  159  ASN159     -0.1974
    104  CA         0.1500  -20.3120  -48.4750 C.3   159  ASN159      0.1688
    105  C          0.2310  -19.2650  -49.6090 C.2   159  ASN159      0.2292
    106  O          0.6850  -18.1440  -49.3820 O.2   159  ASN159     -0.2864
    107  CB         1.4810  -20.3610  -47.6990 C.3   159  ASN159      0.1181
    108  CG         1.3380  -20.9620  -46.2990 C.2   159  ASN159      0.2629
    109  OD1        0.2350  -21.1310  -45.7810 O.2   159  ASN159     -0.2716
    110  ND2        2.4650  -21.2700  -45.6770 N.am  159  ASN159     -0.0877
    111  N         -2.2150  -17.3920  -52.2520 N.3   161  LEU161     -0.1245
    112  CA        -3.6160  -17.1490  -52.5940 C.3   161  LEU161      0.1561
    113  C         -3.7810  -16.2130  -53.7920 C.2   161  LEU161      0.2260
    114  O         -3.0300  -15.2470  -53.9480 O.2   161  LEU161     -0.2867
    115  CB        -4.3610  -16.5790  -51.3870 C.3   161  LEU161      0.0270
    116  CG        -4.7730  -17.5890  -50.3150 C.3   161  LEU161      0.0019
    117  CD1       -3.5640  -18.3050  -49.7340 C.3   161  LEU161      0.0001
    118  CD2       -5.5470  -16.8740  -49.2230 C.3   161  LEU161      0.0001
    119  N          0.9040  -15.4160  -48.1750 N.3   173  VAL173     -0.1231
    120  CA         0.2840  -15.1480  -46.8780 C.3   173  VAL173      0.1692
    121  C          1.0400  -15.8550  -45.7600 C.2   173  VAL173      0.2592
    122  O          1.9760  -16.6090  -46.0270 O.2   173  VAL173     -0.2718
    123  CB        -1.2050  -15.5770  -46.8520 C.3   173  VAL173      0.0266
    124  CG1       -1.9950  -14.8170  -47.9020 C.3   173  VAL173      0.0020
    125  CG2       -1.3650  -17.0760  -47.0650 C.3   173  VAL173      0.0020
    126  N          0.6350  -15.5850  -44.5170 N.am  174  ASP174     -0.1974
    127  CA         1.1220  -16.3020  -43.3350 C.3   174  ASP174      0.1709
    128  C          2.6160  -16.0810  -43.0750 C.2   174  ASP174      0.2293
    129  O          3.4520  -16.8060  -43.6110 O.2   174  ASP174     -0.2864
    130  CB         0.8160  -17.8040  -43.4720 C.3   174  ASP174      0.1436
    131  CG         1.0120  -18.5720  -42.1760 C.2   174  ASP174      0.3671
    132  OD1        1.9530  -18.2560  -41.4150 O.co2 174  ASP174     -0.2456
    133  OD2        0.2190  -19.5080  -41.9260 O.co2 174  ASP174     -0.2456
@<TRIPOS>BOND
     1    93    92    1
     2    92    89    1
     3   114   113    2
     4   113   112    1
     5    89    90    1
     6    89    88    1
     7    90    91    2
     8    88    82   am
     9   112   111    1
    10   112   115    1
    11    87    85    1
    12    82    81    1
    13    82    83    2
    14   115   116    1
    15    81    84    1
    16    81    80    1
    17    75    74    2
    18    70    69   ar
    19    84    85    1
    20    94    95    1
    21    85    86    1
    22   116   117    1
    23   116   118    1
    24    69    71   ar
    25    69    68    1
    26    74    80   am
    27    74    73    1
    28    95    98    1
    29    95    96    1
    30   105   106    2
    31   105   104    1
    32    68    67    1
    33    98    99    1
    34    77    76    1
    35    77    78    1
    36   103    96   am
    37   103   104    1
    38    96    97    2
    39    76    73    1
    40    45    46    1
    41    67    64    1
    42    73    72    1
    43   104   107    1
    44    72    65   am
    45    46    49    1
    46    46    47    1
    47   119   120    1
    48    79    78    1
    49   124   123    1
    50   101   100   ar
    51    65    64    1
    52    65    66    2
    53    99   100    1
    54   107   108    1
    55    49    51    1
    56    49    50    1
    57    64    63    1
    58    47    48    2
    59   100   102   ar
    60   125   123    1
    61   120   123    1
    62   120   121    1
    63    63    54   am
    64   108   109    2
    65   108   110   am
    66   122   121    2
    67   121   126   am
    68    54    55    2
    69    54    53    1
    70     7     5    1
    71     8     6    1
    72     4     3    2
    73     5     6    1
    74     5     2    1
    75    35    32    1
    76    31    32    1
    77   126   127    1
    78    56    53    1
    79    56    57    1
    80    53    52    1
    81    32    33    1
    82    59    57   ar
    83    59    61   ar
    84     2     3    1
    85     2     1    1
    86     3     9   am
    87   129   128    2
    88    57    58   ar
    89   130   127    1
    90   130   131    1
    91   127   128    1
    92    61    62   ar
    93    33    34    2
    94     9    10    1
    95    58    60   ar
    96    10    11    1
    97   131   133   ar
    98   131   132   ar
    99    29    28    1
   100    62    60   ar
   101    28    30    1
   102    28    25    1
   103    11    12    2
   104    27    26    2
   105    26    25    1
   106    25    24    1
   107    44    43    1
   108    36    37    1
   109    23    22   ar
   110    23    21   ar
   111    42    43    1
   112    42    41    1
   113    22    20   ar
   114    40    37    1
   115    40    41    1
   116    37    38    1
   117    21    19   ar
   118    20    18   ar
   119    38    39    2
   120    19    18   ar
   121    18    17    1
   122    17    14    1
   123    13    14    1
   124    14    15    1
   125    15    16    2
