@<TRIPOS>MOLECULE
tmp/5a4qD00.pdb
 138 130 0 0 0
SMALL
GASTEIGER

@<TRIPOS>ATOM
      1  N        -25.5700   24.4540   35.8990 N.3    32  ILE32      -0.1245
      2  CA       -24.9530   25.1030   34.7420 C.3    32  ILE32       0.1561
      3  C        -24.9320   24.2480   33.4900 C.2    32  ILE32       0.2260
      4  O        -24.1940   24.5540   32.5580 O.2    32  ILE32      -0.2867
      5  CB       -23.5100   25.5690   35.0450 C.3    32  ILE32       0.0252
      6  CG1      -22.6540   24.4100   35.5570 C.3    32  ILE32       0.0019
      7  CG2      -23.5410   26.7270   36.0370 C.3    32  ILE32       0.0019
      8  CD1      -21.1710   24.6200   35.3660 C.3    32  ILE32       0.0001
      9  N        -24.9420   19.0410   35.2630 N.3    40  VAL40      -0.1245
     10  CA       -23.7010   19.6090   35.7350 C.3    40  VAL40       0.1561
     11  C        -24.0070   20.8160   36.6030 C.2    40  VAL40       0.2260
     12  O        -24.7450   21.7170   36.1890 O.2    40  VAL40      -0.2867
     13  CB       -22.8090   20.1080   34.5770 C.3    40  VAL40       0.0252
     14  CG1      -21.4020   20.3890   35.0870 C.3    40  VAL40       0.0019
     15  CG2      -22.7650   19.1090   33.4430 C.3    40  VAL40       0.0019
     16  N        -16.8380   21.8290   38.7110 N.3    53  ALA53      -0.1245
     17  CA       -18.0570   21.4390   38.0040 C.3    53  ALA53       0.1562
     18  C        -18.2680   19.9930   38.3780 C.2    53  ALA53       0.2260
     19  O        -17.3530   19.1960   38.2750 O.2    53  ALA53      -0.2867
     20  CB       -17.9050   21.6050   36.4890 C.3    53  ALA53       0.0290
     21  N        -20.4130   16.6360   37.5950 N.3    55  LYS55      -0.1245
     22  CA       -21.2870   16.0050   36.6210 C.3    55  LYS55       0.1561
     23  C        -22.0800   14.9400   37.3460 C.2    55  LYS55       0.2260
     24  O        -21.5290   13.9450   37.7970 O.2    55  LYS55      -0.2867
     25  CB       -20.4540   15.3890   35.4950 C.3    55  LYS55       0.0271
     26  CG       -21.2600   14.9850   34.2520 C.3    55  LYS55       0.0035
     27  CD       -20.3400   14.6880   33.0760 C.3    55  LYS55       0.0206
     28  CE       -21.0860   14.0840   31.8760 C.3    55  LYS55       0.1093
     29  NZ       -20.1190   13.5650   30.8710 N.3    55  LYS55      -0.1314
     30  N        -16.8750    6.6450   30.6230 N.3    70  GLU70      -0.1245
     31  CA       -16.2230    7.9420   30.6190 C.3    70  GLU70       0.1567
     32  C        -15.1420    8.0010   31.7030 C.2    70  GLU70       0.2260
     33  O        -14.0460    8.4190   31.4450 O.2    70  GLU70      -0.2867
     34  CB       -17.2260    9.1100   30.7410 C.3    70  GLU70       0.0388
     35  CG       -16.5350   10.4690   30.7470 C.3    70  GLU70       0.1160
     36  CD       -17.4780   11.6910   30.7170 C.2    70  GLU70       0.3649
     37  OE1      -18.6790   11.5310   31.0600 O.co2  70  GLU70      -0.2457
     38  OE2      -16.9940   12.8230   30.3340 O.co2  70  GLU70      -0.2457
     39  N        -10.0680   18.3430   29.6730 N.3    89  VAL89      -0.1245
     40  CA       -10.5930   18.6830   30.9860 C.3    89  VAL89       0.1561
     41  C        -10.2280   17.5590   31.9200 C.2    89  VAL89       0.2260
     42  O        -10.3560   16.3930   31.5650 O.2    89  VAL89      -0.2867
     43  CB       -12.1190   18.8880   30.9730 C.3    89  VAL89       0.0252
     44  CG1      -12.8620   17.5680   30.7250 C.3    89  VAL89       0.0019
     45  CG2      -12.6090   19.5730   32.2370 C.3    89  VAL89       0.0019
     46  N        -14.9340   17.7370   38.0700 N.3   105  PHE105     -0.1227
     47  CA       -13.9430   18.2530   37.1450 C.3   105  PHE105      0.1736
     48  C        -13.4930   19.6150   37.6290 C.2   105  PHE105      0.2595
     49  O        -14.1840   20.2680   38.4130 O.2   105  PHE105     -0.2718
     50  CB       -14.5160   18.4070   35.7280 C.3   105  PHE105      0.0547
     51  CG       -14.8820   17.1110   35.0600 C.ar  105  PHE105     -0.0202
     52  CD1      -13.9530   16.4100   34.3140 C.ar  105  PHE105     -0.0042
     53  CD2      -16.1640   16.6100   35.1570 C.ar  105  PHE105     -0.0042
     54  CE1      -14.2940   15.2140   33.6870 C.ar  105  PHE105     -0.0003
     55  CE2      -16.5150   15.4190   34.5330 C.ar  105  PHE105     -0.0003
     56  CZ       -15.5730   14.7160   33.7960 C.ar  105  PHE105     -0.0000
     57  N        -12.3350   20.0450   37.1550 N.am  106  GLU106     -0.1965
     58  CA       -12.0150   21.4630   37.1800 C.3   106  GLU106      0.1733
     59  C        -13.1450   22.3060   36.5780 C.2   106  GLU106      0.2616
     60  O        -13.8140   21.8890   35.6340 O.2   106  GLU106     -0.2715
     61  CB       -10.7280   21.7300   36.4370 C.3   106  GLU106      0.0429
     62  CG       -10.7070   21.2610   34.9950 C.3   106  GLU106      0.1163
     63  CD        -9.3250   21.3610   34.4050 C.2   106  GLU106      0.3649
     64  OE1       -8.6160   22.3260   34.7640 O.co2 106  GLU106     -0.2457
     65  OE2       -8.9510   20.4710   33.5960 O.co2 106  GLU106     -0.2457
     66  N        -13.3780   23.4700   37.1630 N.am  107  MET107     -0.1963
     67  CA       -14.3450   24.4150   36.6500 C.3   107  MET107      0.1736
     68  C        -13.7100   25.1660   35.4870 C.2   107  MET107      0.2616
     69  O        -12.5160   25.4880   35.5280 O.2   107  MET107     -0.2715
     70  CB       -14.7150   25.3960   37.7490 C.3   107  MET107      0.0427
     71  CG       -15.7040   26.4720   37.3500 C.3   107  MET107      0.0599
     72  SD       -17.2910   25.7250   37.0060 S.3   107  MET107     -0.1393
     73  CE       -18.2400   27.1740   36.5320 C.3   107  MET107      0.0692
     74  N        -14.5150   25.4650   34.4730 N.am  108  LEU108     -0.1963
     75  CA       -14.0730   26.1940   33.2870 C.3   108  LEU108      0.1728
     76  C        -15.1240   27.2060   32.9020 C.2   108  LEU108      0.2617
     77  O        -16.2520   27.1680   33.4010 O.2   108  LEU108     -0.2715
     78  CB       -13.9030   25.2240   32.1190 C.3   108  LEU108      0.0311
     79  CG       -12.8740   24.1080   32.3050 C.3   108  LEU108      0.0022
     80  CD1      -13.1520   22.9960   31.3150 C.3   108  LEU108      0.0001
     81  CD2      -11.4590   24.6500   32.1420 C.3   108  LEU108      0.0001
     82  N        -14.7550   28.0810   31.9730 N.am  109  SER109     -0.1936
     83  CA       -15.6350   29.1430   31.4780 C.3   109  SER109      0.2055
     84  C        -16.5680   28.6420   30.3760 C.2   109  SER109      0.2643
     85  O        -16.8060   27.4460   30.2670 O.2   109  SER109     -0.2714
     86  CB       -14.7980   30.3280   30.9610 C.3   109  SER109      0.2130
     87  OG       -15.6010   31.4920   30.8320 O.3   109  SER109     -0.2179
     88  N        -17.1050   29.5460   29.5580 N.am  110  TYR110     -0.1959
     89  CA       -18.1460   29.1470   28.6270 C.3   110  TYR110      0.1771
     90  C        -17.5550   28.4700   27.3740 C.2   110  TYR110      0.2619
     91  O        -16.3320   28.4490   27.1820 O.2   110  TYR110     -0.2715
     92  CB       -19.1140   30.3110   28.3180 C.3   110  TYR110      0.0574
     93  CG       -18.4970   31.6040   27.8270 C.ar  110  TYR110     -0.0198
     94  CD1      -17.8370   31.6590   26.6000 C.ar  110  TYR110     -0.0009
     95  CD2      -18.6210   32.7900   28.5600 C.ar  110  TYR110     -0.0009
     96  CE1      -17.2820   32.8430   26.1300 C.ar  110  TYR110      0.0417
     97  CE2      -18.0730   33.9870   28.0940 C.ar  110  TYR110      0.0417
     98  CZ       -17.4020   34.0080   26.8740 C.ar  110  TYR110      0.1957
     99  OH       -16.8450   35.1710   26.3720 O.3   110  TYR110     -0.2866
    100  N        -18.4320   27.8940   26.5570 N.am  111  ASN111     -0.1972
    101  CA       -18.0120   27.0930   25.4070 C.3   111  ASN111      0.1688
    102  C        -17.9720   27.8780   24.1120 C.2   111  ASN111      0.2292
    103  O        -18.5080   28.9990   24.0180 O.2   111  ASN111     -0.2864
    104  CB       -18.8970   25.8550   25.2580 C.3   111  ASN111      0.1181
    105  CG       -20.3270   26.1810   24.8790 C.2   111  ASN111      0.2629
    106  OD1      -20.5840   26.8570   23.8840 O.2   111  ASN111     -0.2716
    107  ND2      -21.2760   25.6640   25.6520 N.am  111  ASN111     -0.0877
    108  N        -21.1490   29.4760   22.8180 N.3   114  ASP114     -0.1239
    109  CA       -21.4470   30.7190   23.5240 C.3   114  ASP114      0.1674
    110  C        -20.5690   31.8510   22.9950 C.2   114  ASP114      0.2266
    111  O        -21.0270   32.9640   22.8200 O.2   114  ASP114     -0.2867
    112  CB       -21.2230   30.5600   25.0220 C.3   114  ASP114      0.1410
    113  CG       -22.0950   29.4730   25.6450 C.2   114  ASP114      0.3668
    114  OD1      -23.2850   29.3120   25.2380 O.co2 114  ASP114     -0.2456
    115  OD2      -21.5660   28.7820   26.5510 O.co2 114  ASP114     -0.2456
    116  N        -14.2680   24.2380   25.7040 N.3   161  LEU161     -0.1245
    117  CA       -14.4730   25.2670   26.7160 C.3   161  LEU161      0.1561
    118  C        -13.2090   26.0950   26.9270 C.2   161  LEU161      0.2260
    119  O        -12.0860   25.5640   26.9380 O.2   161  LEU161     -0.2867
    120  CB       -14.8990   24.6490   28.0460 C.3   161  LEU161      0.0270
    121  CG       -16.3990   24.4800   28.2610 C.3   161  LEU161      0.0019
    122  CD1      -16.9830   23.5720   27.2090 C.3   161  LEU161      0.0001
    123  CD2      -16.6920   23.9170   29.6390 C.3   161  LEU161      0.0001
    124  N        -14.1230   18.7850   26.3730 N.3   173  VAL173     -0.1231
    125  CA       -14.9270   18.0700   27.3690 C.3   173  VAL173      0.1692
    126  C        -15.8540   17.0130   26.7880 C.2   173  VAL173      0.2592
    127  O        -15.9790   16.8760   25.5830 O.2   173  VAL173     -0.2718
    128  CB       -15.7540   19.0230   28.2560 C.3   173  VAL173      0.0266
    129  CG1      -14.8760   20.1340   28.7920 C.3   173  VAL173      0.0020
    130  CG2      -16.9280   19.6070   27.5040 C.3   173  VAL173      0.0020
    131  N        -16.4950   16.2740   27.6950 N.am  174  ASP174     -0.1974
    132  CA       -17.4390   15.2240   27.3990 C.3   174  ASP174      0.1709
    133  C        -16.8470   14.0350   26.6080 C.2   174  ASP174      0.2293
    134  O        -16.9380   13.9670   25.3880 O.2   174  ASP174     -0.2864
    135  CB       -18.6660   15.8160   26.7160 C.3   174  ASP174      0.1436
    136  CG       -19.8010   14.8260   26.6000 C.2   174  ASP174      0.3671
    137  OD1      -19.5950   13.6400   26.9480 O.co2 174  ASP174     -0.2456
    138  OD2      -20.8880   15.2350   26.1370 O.co2 174  ASP174     -0.2456
@<TRIPOS>BOND
     1   108   109    1
     2   111   110    2
     3   110   109    1
     4   109   112    1
     5   106   105    2
     6   103   102    2
     7   102   101    1
     8   105   104    1
     9   105   107   am
    10   112   113    1
    11   114   113   ar
    12   104   101    1
    13   134   133    2
    14   101   100    1
    15   127   126    2
    16   113   115   ar
    17   116   117    1
    18    96    94   ar
    19    96    98   ar
    20   138   136   ar
    21    99    98    1
    22   124   125    1
    23   100    90   am
    24    94    93   ar
    25   136   135    1
    26   136   137   ar
    27   133   132    1
    28   135   132    1
    29   117   118    1
    30   117   120    1
    31   126   125    1
    32   126   131   am
    33    98    97   ar
    34   118   119    2
    35    91    90    2
    36   122   121    1
    37   125   128    1
    38    90    89    1
    39   132   131    1
    40   130   128    1
    41    93    92    1
    42    93    95   ar
    43   120   121    1
    44    97    95   ar
    45   128   129    1
    46   121   123    1
    47    92    89    1
    48    89    88    1
    49    88    84   am
    50    39    40    1
    51    85    84    2
    52    38    36   ar
    53    84    83    1
    54    31    30    1
    55    31    34    1
    56    31    32    1
    57    36    35    1
    58    36    37   ar
    59    44    43    1
    60    34    35    1
    61    87    86    1
    62    29    28    1
    63    86    83    1
    64    43    40    1
    65    43    45    1
    66    40    41    1
    67    80    79    1
    68    33    32    2
    69    83    82    1
    70    42    41    2
    71    28    27    1
    72    82    76   am
    73    78    79    1
    74    78    75    1
    75    81    79    1
    76     4     3    2
    77    76    75    1
    78    76    77    2
    79    27    26    1
    80    75    74    1
    81    15    13    1
    82     3     2    1
    83    65    63   ar
    84    54    56   ar
    85    54    52   ar
    86    56    55   ar
    87    26    25    1
    88    52    51   ar
    89    63    64   ar
    90    63    62    1
    91    74    68   am
    92    55    53   ar
    93    13    14    1
    94    13    10    1
    95     2     5    1
    96     2     1    1
    97    62    61    1
    98     5     6    1
    99     5     7    1
   100    51    53   ar
   101    51    50    1
   102     9    10    1
   103     8     6    1
   104    68    69    2
   105    68    67    1
   106    25    22    1
   107    60    59    2
   108    50    47    1
   109    10    11    1
   110    12    11    2
   111    61    58    1
   112    20    17    1
   113    73    72    1
   114    59    66   am
   115    59    58    1
   116    22    23    1
   117    22    21    1
   118    67    66    1
   119    67    70    1
   120    72    71    1
   121    47    48    1
   122    47    46    1
   123    57    58    1
   124    57    48   am
   125    23    24    2
   126    71    70    1
   127    48    49    2
   128    17    18    1
   129    17    16    1
   130    19    18    2
