@<TRIPOS>MOLECULE
tmp/5a4uE00.pdb
 77 71 0 0 0
SMALL
GASTEIGER

@<TRIPOS>ATOM
      1  N          0.9690    9.9720    8.0900 N.3    98  ILE98      -0.1245
      2  CA         0.8860   11.1390    7.1580 C.3    98  ILE98       0.1561
      3  C          1.7740   10.9380    5.9280 C.2    98  ILE98       0.2260
      4  O          1.3290   11.1220    4.8050 O.2    98  ILE98      -0.2867
      5  CB         1.2210   12.4550    7.8760 C.3    98  ILE98       0.0252
      6  CG1        0.0750   12.7960    8.8220 C.3    98  ILE98       0.0019
      7  CG2        1.3740   13.6020    6.8650 C.3    98  ILE98       0.0019
      8  CD1        0.4770   13.8060    9.8540 C.3    98  ILE98       0.0001
      9  N          0.0050    8.3840    3.6870 N.3   101  ILE101     -0.1231
     10  CA        -1.0070    8.9310    2.8420 C.3   101  ILE101      0.1692
     11  C         -0.3530    9.3680    1.5000 C.2   101  ILE101      0.2592
     12  O         -0.8790    9.0950    0.4000 O.2   101  ILE101     -0.2718
     13  CB        -1.7020   10.1910    3.4460 C.3   101  ILE101      0.0266
     14  CG1       -2.4860    9.8490    4.7290 C.3   101  ILE101      0.0019
     15  CG2       -2.6490   10.8370    2.4580 C.3   101  ILE101      0.0020
     16  CD1       -2.9910   11.0910    5.4270 C.3   101  ILE101      0.0001
     17  N          0.7610   10.0910    1.6210 N.am  102  GLY102     -0.1957
     18  CA         1.4240   10.6210    0.4510 C.3   102  GLY102      0.1869
     19  C          1.9380    9.5390   -0.4560 C.2   102  GLY102      0.2309
     20  O          1.8900    9.7030   -1.6720 O.2   102  GLY102     -0.2863
     21  N         -1.0050    8.3380   -2.3400 N.3   105  VAL105     -0.1245
     22  CA        -1.4150    9.3400   -3.3190 C.3   105  VAL105      0.1561
     23  C         -0.5030    9.2620   -4.5680 C.2   105  VAL105      0.2260
     24  O         -0.9670    9.2810   -5.6890 O.2   105  VAL105     -0.2867
     25  CB        -1.4450   10.7640   -2.7130 C.3   105  VAL105      0.0252
     26  CG1       -1.5540   11.8490   -3.8000 C.3   105  VAL105      0.0019
     27  CG2       -2.5980   10.9290   -1.7160 C.3   105  VAL105      0.0019
     28  N         -3.6600   20.0940   -5.7950 N.3   149  VAL149     -0.1231
     29  CA        -3.6190   19.5810   -4.4400 C.3   149  VAL149      0.1692
     30  C         -2.2240   19.6870   -3.8600 C.2   149  VAL149      0.2592
     31  O         -2.0510   20.1020   -2.6960 O.2   149  VAL149     -0.2718
     32  CB        -4.1740   18.1220   -4.3570 C.3   149  VAL149      0.0266
     33  CG1       -4.0380   17.5830   -2.9360 C.3   149  VAL149      0.0020
     34  CG2       -5.6430   18.1180   -4.7760 C.3   149  VAL149      0.0020
     35  N         -1.2220   19.3030   -4.6390 N.am  150  TYR150     -0.1976
     36  CA         0.1510   19.3690   -4.1650 C.3   150  TYR150      0.1639
     37  C          0.5690   20.8340   -3.8560 C.2   150  TYR150      0.2290
     38  O          1.1950   21.0960   -2.8120 O.2   150  TYR150     -0.2864
     39  CB         1.1080   18.7860   -5.1700 C.3   150  TYR150      0.0560
     40  CG         1.1660   17.2710   -5.2890 C.ar  150  TYR150     -0.0198
     41  CD1        0.1040   16.4510   -4.8760 C.ar  150  TYR150     -0.0009
     42  CD2        2.2350   16.6750   -5.8880 C.ar  150  TYR150     -0.0009
     43  CE1        0.1680   15.0820   -5.0300 C.ar  150  TYR150      0.0417
     44  CE2        2.2970   15.2930   -6.0700 C.ar  150  TYR150      0.0417
     45  CZ         1.2710   14.5000   -5.6200 C.ar  150  TYR150      0.1957
     46  OH         1.3360   13.1360   -5.7890 O.3   150  TYR150     -0.2866
     47  N         -0.8480   21.7690   -0.5660 N.3   153  ARG153     -0.1245
     48  CA        -0.1030   21.0570    0.4390 C.3   153  ARG153      0.1563
     49  C          1.2670   21.7080    0.6760 C.2   153  ARG153      0.2260
     50  O          1.6880   21.8640    1.8320 O.2   153  ARG153     -0.2867
     51  CB         0.0050   19.5860   -0.0130 C.3   153  ARG153      0.0307
     52  CG         0.7480   18.6470    0.8880 C.3   153  ARG153      0.0489
     53  CD        -0.0880   18.2460    2.0680 C.3   153  ARG153      0.2205
     54  NE         0.7890   17.5490    2.9950 N.pl3 153  ARG153     -0.0865
     55  CZ         0.4920   17.2770    4.2610 C.cat 153  ARG153      0.5346
     56  NH1       -0.6750   17.6420    4.7810 N.pl3 153  ARG153      0.1354
     57  NH2        1.3540   16.5990    5.0070 N.pl3 153  ARG153      0.1354
     58  N          6.1410   17.0370    0.9460 N.3   160  LEU160     -0.1231
     59  CA         4.7620   16.5490    0.9140 C.3   160  LEU160      0.1693
     60  C          4.2820   15.9800    2.2500 C.2   160  LEU160      0.2591
     61  O          3.1410   16.2170    2.6130 O.2   160  LEU160     -0.2718
     62  CB         4.5150   15.5410   -0.2020 C.3   160  LEU160      0.0284
     63  CG         4.5160   16.1030   -1.6160 C.3   160  LEU160      0.0019
     64  CD1        4.4490   14.9470   -2.6390 C.3   160  LEU160      0.0001
     65  CD2        3.4080   17.0960   -1.8700 C.3   160  LEU160      0.0001
     66  N          5.1470   15.2960    2.9620 N.am  161  ALA161     -0.1980
     67  CA         4.7910   14.6910    4.2510 C.3   161  ALA161      0.1597
     68  C          5.1150   15.5290    5.5110 C.2   161  ALA161      0.2287
     69  O          4.9000   15.0400    6.6160 O.2   161  ALA161     -0.2864
     70  CB         5.4580   13.3170    4.3680 C.3   161  ALA161      0.0319
     71  N          7.8390    9.7520    0.3180 N.3   168  THR168     -0.1218
     72  CA         6.7460   10.3730   -0.4180 C.3   168  THR168      0.1862
     73  C          7.2520   11.1990   -1.6030 C.2   168  THR168      0.2287
     74  O          6.7140   11.0780   -2.7230 O.2   168  THR168     -0.2866
     75  CB         5.8500   11.2230    0.4900 C.3   168  THR168      0.1770
     76  OG1        5.3520   10.3810    1.5610 O.3   168  THR168     -0.2211
     77  CG2        4.7210   11.7960   -0.2580 C.3   168  THR168      0.0375
@<TRIPOS>BOND
     1    44    42   ar
     2    44    45   ar
     3    42    40   ar
     4    28    29    1
     5    46    45    1
     6    24    23    2
     7    45    43   ar
     8    40    39    1
     9    40    41   ar
    10    39    36    1
    11    43    41   ar
    12    34    32    1
    13    35    36    1
    14    35    30   am
    15    23    22    1
    16    29    32    1
    17    29    30    1
    18    32    33    1
    19    36    37    1
    20    30    31    2
    21    37    38    2
    22    26    25    1
    23    22    25    1
    24    22    21    1
    25    74    73    2
    26    25    27    1
    27    64    63    1
    28    65    63    1
    29    20    19    2
    30    63    62    1
    31    73    72    1
    32    47    48    1
    33    19    18    1
    34    72    71    1
    35    72    75    1
    36    77    75    1
    37    62    59    1
    38    51    48    1
    39    51    52    1
    40    12    11    2
    41    48    49    1
    42    18    17    1
    43    75    76    1
    44    49    50    2
    45    52    53    1
    46    59    58    1
    47    59    60    1
    48    11    17   am
    49    11    10    1
    50    53    54    1
    51    60    61    2
    52    60    66   am
    53    15    13    1
    54    10    13    1
    55    10     9    1
    56    66    67    1
    57    54    55    2
    58    13    14    1
    59    67    70    1
    60    67    68    1
    61    55    56    1
    62    55    57    1
    63    14    16    1
    64     4     3    2
    65    68    69    2
    66     3     2    1
    67     7     5    1
    68     2     5    1
    69     2     1    1
    70     5     6    1
    71     6     8    1
