@<TRIPOS>MOLECULE
tmp/5a4vD00.pdb
 92 89 0 0 0
SMALL
GASTEIGER

@<TRIPOS>ATOM
      1  N        -49.4280   -7.8650  -20.9350 N.3    72  GLN72      -0.1231
      2  CA       -50.3390   -8.0570  -22.0730 C.3    72  GLN72       0.1698
      3  C        -51.3290   -9.1560  -21.7990 C.2    72  GLN72       0.2592
      4  O        -52.5200   -9.0000  -22.0500 O.2    72  GLN72      -0.2718
      5  CB       -49.5680   -8.3240  -23.4150 C.3    72  GLN72       0.0381
      6  CG       -48.9810   -7.0170  -23.8780 C.3    72  GLN72       0.0905
      7  CD       -48.1890   -7.0910  -25.1600 C.2    72  GLN72       0.2608
      8  OE1      -48.7610   -7.2950  -26.2250 O.2    72  GLN72      -0.2717
      9  NE2      -46.8450   -7.0330  -25.0480 N.am   72  GLN72      -0.0878
     10  N        -50.8140  -10.2710  -21.2930 N.am   73  TYR73      -0.1976
     11  CA       -51.6500  -11.3910  -20.8540 C.3    73  TYR73       0.1639
     12  C        -52.7190  -10.9010  -19.8610 C.2    73  TYR73       0.2290
     13  O        -53.8910  -11.1530  -20.0590 O.2    73  TYR73      -0.2864
     14  CB       -50.8080  -12.5040  -20.2310 C.3    73  TYR73       0.0560
     15  CG       -51.6390  -13.4820  -19.4430 C.ar   73  TYR73      -0.0198
     16  CD1      -52.3280  -14.5040  -20.0990 C.ar   73  TYR73      -0.0009
     17  CD2      -51.7950  -13.3580  -18.0720 C.ar   73  TYR73      -0.0009
     18  CE1      -53.1360  -15.3890  -19.4040 C.ar   73  TYR73       0.0417
     19  CE2      -52.5920  -14.2440  -17.3560 C.ar   73  TYR73       0.0417
     20  CZ       -53.2600  -15.2670  -18.0310 C.ar   73  TYR73       0.1957
     21  OH       -54.0780  -16.1550  -17.3470 O.3    73  TYR73      -0.2866
     22  N        -55.5040   -8.8900  -21.4700 N.3    76  HIS76      -0.1241
     23  CA       -56.4380   -9.6610  -22.3040 C.3    76  HIS76       0.1621
     24  C        -57.2960  -10.5930  -21.4680 C.2    76  HIS76       0.2264
     25  O        -58.5000  -10.5880  -21.5920 O.2    76  HIS76      -0.2867
     26  CB       -55.6660  -10.4580  -23.3850 C.3    76  HIS76       0.0745
     27  CG       -55.3510   -9.6410  -24.5940 C.ar   76  HIS76       0.0817
     28  ND1      -54.1960   -8.9050  -24.7100 N.ar   76  HIS76      -0.2268
     29  CD2      -56.0600   -9.3980  -25.7160 C.ar   76  HIS76       0.1154
     30  CE1      -54.2090   -8.2460  -25.8490 C.ar   76  HIS76       0.1986
     31  NE2      -55.3230   -8.5360  -26.4830 N.ar   76  HIS76      -0.2212
     32  N        -60.7690   -2.8420  -28.3470 N.3    90  SER90      -0.1202
     33  CA       -59.6510   -3.7610  -28.3570 C.3    90  SER90       0.2020
     34  C        -59.6070   -4.7280  -29.5510 C.2    90  SER90       0.2619
     35  O        -58.5590   -5.3430  -29.7780 O.2    90  SER90      -0.2717
     36  CB       -59.6110   -4.5540  -27.0720 C.3    90  SER90       0.2103
     37  OG       -60.6510   -5.5010  -27.0290 O.3    90  SER90      -0.2182
     38  N        -60.7080   -4.8690  -30.2920 N.am   91  LYS91      -0.1965
     39  CA       -60.7600   -5.7400  -31.4940 C.3    91  LYS91       0.1728
     40  C        -60.4050   -4.9250  -32.7770 C.2    91  LYS91       0.2616
     41  O        -60.2800   -5.4740  -33.8530 O.2    91  LYS91      -0.2715
     42  CB       -62.1270   -6.4830  -31.6230 C.3    91  LYS91       0.0311
     43  CG       -62.5240   -7.2730  -30.3830 C.3    91  LYS91       0.0038
     44  CD       -61.6290   -8.4850  -30.1710 C.3    91  LYS91       0.0206
     45  CE       -61.9700   -9.2340  -28.8960 C.3    91  LYS91       0.1093
     46  NZ       -61.3290   -8.6330  -27.6920 N.3    91  LYS91      -0.1314
     47  N        -60.1570   -3.6250  -32.6440 N.am   92  ASN92      -0.1958
     48  CA       -59.6640   -2.8360  -33.7530 C.3    92  ASN92       0.1819
     49  C        -58.1540   -3.0700  -33.9480 C.2    92  ASN92       0.2621
     50  O        -57.3080   -2.6550  -33.1280 O.2    92  ASN92      -0.2715
     51  CB       -59.9650   -1.3610  -33.5150 C.3    92  ASN92       0.1195
     52  CG       -59.5990   -0.4880  -34.6940 C.2    92  ASN92       0.2630
     53  OD1      -58.5630   -0.6870  -35.3550 O.2    92  ASN92      -0.2716
     54  ND2      -60.3720    0.5570  -34.8860 N.am   92  ASN92      -0.0877
     55  N        -57.8280   -3.6780  -35.0800 N.am   93  ILE93      -0.1977
     56  CA       -56.4910   -4.1740  -35.3430 C.3    93  ILE93       0.1596
     57  C        -55.4880   -3.0530  -35.6120 C.2    93  ILE93       0.2287
     58  O        -54.3610   -3.1040  -35.1040 O.2    93  ILE93      -0.2864
     59  CB       -56.5300   -5.2110  -36.4790 C.3    93  ILE93       0.0276
     60  CG1      -57.2870   -6.4600  -35.9860 C.3    93  ILE93       0.0022
     61  CG2      -55.1240   -5.5500  -36.9730 C.3    93  ILE93       0.0022
     62  CD1      -57.7240   -7.4260  -37.0730 C.3    93  ILE93       0.0001
     63  N        -54.6860   -1.4310  -32.2890 N.3    96  TYR96      -0.1227
     64  CA       -53.7920   -2.2830  -31.5520 C.3    96  TYR96       0.1736
     65  C        -52.3650   -2.0620  -32.0580 C.2    96  TYR96       0.2595
     66  O        -51.4400   -1.8520  -31.2550 O.2    96  TYR96      -0.2718
     67  CB       -54.2080   -3.7380  -31.6450 C.3    96  TYR96       0.0548
     68  CG       -53.7160   -4.5120  -30.4470 C.ar   96  TYR96      -0.0200
     69  CD1      -52.3330   -4.7290  -30.2390 C.ar   96  TYR96      -0.0009
     70  CD2      -54.5960   -5.0190  -29.5090 C.ar   96  TYR96      -0.0009
     71  CE1      -51.8700   -5.4440  -29.1510 C.ar   96  TYR96       0.0417
     72  CE2      -54.1300   -5.7200  -28.4080 C.ar   96  TYR96       0.0417
     73  CZ       -52.7710   -5.9200  -28.2360 C.ar   96  TYR96       0.1957
     74  OH       -52.2730   -6.5670  -27.1180 O.3    96  TYR96      -0.2866
     75  N        -52.1970   -1.9960  -33.3810 N.am   97  ALA97      -0.1980
     76  CA       -50.8750   -1.7920  -33.9740 C.3    97  ALA97       0.1597
     77  C        -50.2270   -0.4790  -33.5090 C.2    97  ALA97       0.2287
     78  O        -49.0150   -0.4390  -33.2470 O.2    97  ALA97      -0.2864
     79  CB       -50.9350   -1.8700  -35.4870 C.3    97  ALA97       0.0319
     80  N        -49.0300   -1.0250  -30.0750 N.3   100  ALA100     -0.1245
     81  CA       -47.8230   -1.8540  -30.2070 C.3   100  ALA100      0.1562
     82  C        -46.5720   -1.0930  -30.6370 C.2   100  ALA100      0.2260
     83  O        -45.4810   -1.3900  -30.1770 O.2   100  ALA100     -0.2867
     84  CB       -48.0860   -3.0250  -31.1500 C.3   100  ALA100      0.0290
     85  N        -45.3490    0.5140  -27.4370 N.3   103  MET103     -0.1245
     86  CA       -44.7570   -0.4990  -26.5490 C.3   103  MET103      0.1570
     87  C        -43.3500   -0.9130  -27.0300 C.2   103  MET103      0.2261
     88  O        -42.4480   -1.0670  -26.2200 O.2   103  MET103     -0.2867
     89  CB       -45.6590   -1.7360  -26.4340 C.3   103  MET103      0.0387
     90  CG       -46.9990   -1.5160  -25.7050 C.3   103  MET103      0.0595
     91  SD       -47.9480   -3.0570  -25.3890 S.3   103  MET103     -0.1393
     92  CE       -48.4170   -3.5060  -27.0090 C.3   103  MET103      0.0692
@<TRIPOS>BOND
     1    62    60    1
     2    61    59    1
     3    59    60    1
     4    59    56    1
     5    57    56    1
     6    57    58    2
     7    79    76    1
     8    53    52    2
     9    56    55    1
    10    55    49   am
    11    54    52   am
    12    52    51    1
    13    76    77    1
    14    76    75    1
    15    49    48    1
    16    49    50    2
    17    41    40    2
    18    48    51    1
    19    48    47    1
    20    77    78    2
    21    75    65   am
    22    40    47   am
    23    40    39    1
    24    63    64    1
    25    65    64    1
    26    65    66    2
    27    67    64    1
    28    67    68    1
    29    42    39    1
    30    42    43    1
    31    39    38    1
    32    84    81    1
    33    82    81    1
    34    82    83    2
    35    68    69   ar
    36    68    70   ar
    37    43    44    1
    38    38    34   am
    39    69    71   ar
    40    81    80    1
    41    44    45    1
    42    35    34    2
    43    34    33    1
    44    70    72   ar
    45    71    73   ar
    46    45    46    1
    47    72    73   ar
    48    33    32    1
    49    33    36    1
    50    73    74    1
    51    85    86    1
    52    36    37    1
    53    87    86    1
    54    87    88    2
    55    92    91    1
    56    86    89    1
    57    31    30   ar
    58    31    29   ar
    59    89    90    1
    60     8     7    2
    61    30    28   ar
    62    29    27   ar
    63    90    91    1
    64     7     9   am
    65     7     6    1
    66    28    27   ar
    67    27    26    1
    68     6     5    1
    69     5     2    1
    70    26    23    1
    71    23    22    1
    72    23    24    1
    73     2     3    1
    74     2     1    1
    75     4     3    2
    76     3    10   am
    77    25    24    2
    78    10    11    1
    79    11    14    1
    80    11    12    1
    81    14    15    1
    82    16    15   ar
    83    16    18   ar
    84    13    12    2
    85    15    17   ar
    86    18    20   ar
    87    17    19   ar
    88    20    19   ar
    89    20    21    1
