@<TRIPOS>MOLECULE
tmp/5a4wD02.pdb
 92 86 0 0 0
SMALL
GASTEIGER

@<TRIPOS>ATOM
      1  N        -50.8150    0.9950  -32.8590 N.3    98  ILE98      -0.1245
      2  CA       -50.3480    2.2930  -32.3510 C.3    98  ILE98       0.1561
      3  C        -49.8460    2.1980  -30.8990 C.2    98  ILE98       0.2260
      4  O        -48.8070    2.7610  -30.5550 O.2    98  ILE98      -0.2867
      5  CB       -51.4520    3.3490  -32.5130 C.3    98  ILE98       0.0252
      6  CG1      -51.6000    3.6820  -34.0000 C.3    98  ILE98       0.0019
      7  CG2      -51.1300    4.6220  -31.7350 C.3    98  ILE98       0.0019
      8  CD1      -52.9550    4.2470  -34.3630 C.3    98  ILE98       0.0001
      9  N        -46.3870    0.3960  -31.1580 N.3   101  ILE101     -0.1231
     10  CA       -45.2890    1.3030  -31.4740 C.3   101  ILE101      0.1692
     11  C        -44.7710    1.9340  -30.2020 C.2   101  ILE101      0.2592
     12  O        -43.5570    1.9130  -29.9200 O.2   101  ILE101     -0.2718
     13  CB       -45.7270    2.4500  -32.4020 C.3   101  ILE101      0.0266
     14  CG1      -46.0750    1.9360  -33.8020 C.3   101  ILE101      0.0019
     15  CG2      -44.6140    3.4950  -32.5610 C.3   101  ILE101      0.0020
     16  CD1      -46.7660    2.9880  -34.6490 C.3   101  ILE101      0.0001
     17  N        -45.6690    2.5060  -29.4180 N.am  102  GLY102     -0.1957
     18  CA       -45.2630    3.1630  -28.1630 C.3   102  GLY102      0.1869
     19  C        -44.5780    2.2260  -27.1770 C.2   102  GLY102      0.2309
     20  O        -43.6160    2.6180  -26.5250 O.2   102  GLY102     -0.2863
     21  N        -41.1090    1.6280  -28.5070 N.3   105  VAL105     -0.1245
     22  CA       -40.3380    2.8640  -28.2390 C.3   105  VAL105      0.1561
     23  C        -39.9080    2.9730  -26.7860 C.2   105  VAL105      0.2260
     24  O        -38.7610    3.3330  -26.5050 O.2   105  VAL105     -0.2867
     25  CB       -41.1100    4.1490  -28.7050 C.3   105  VAL105      0.0252
     26  CG1      -40.4860    5.4310  -28.1890 C.3   105  VAL105      0.0019
     27  CG2      -41.1410    4.2110  -30.2370 C.3   105  VAL105      0.0019
     28  N        -39.9870   14.0240  -28.7770 N.3   149  VAL149     -0.1231
     29  CA       -40.9690   13.2100  -29.5400 C.3   149  VAL149      0.1692
     30  C        -42.2730   13.0270  -28.7260 C.2   149  VAL149      0.2592
     31  O        -43.3830   13.2090  -29.2510 O.2   149  VAL149     -0.2718
     32  CB       -40.3790   11.8430  -29.9610 C.3   149  VAL149      0.0266
     33  CG1      -41.4340   10.9340  -30.5920 C.3   149  VAL149      0.0020
     34  CG2      -39.2070   12.0460  -30.9130 C.3   149  VAL149      0.0020
     35  N        -42.1280   12.7080  -27.4390 N.am  150  TYR150     -0.1976
     36  CA       -43.2860   12.5390  -26.5510 C.3   150  TYR150      0.1639
     37  C        -44.1120   13.8230  -26.4300 C.2   150  TYR150      0.2290
     38  O        -45.3620   13.7670  -26.4270 O.2   150  TYR150     -0.2864
     39  CB       -42.8550   12.0500  -25.1470 C.3   150  TYR150      0.0560
     40  CG       -42.4350   10.5770  -25.0430 C.ar  150  TYR150     -0.0198
     41  CD1      -42.1550    9.7980  -26.1730 C.ar  150  TYR150     -0.0009
     42  CD2      -42.2770    9.9700  -23.7800 C.ar  150  TYR150     -0.0009
     43  CE1      -41.7810    8.4660  -26.0630 C.ar  150  TYR150      0.0417
     44  CE2      -41.8860    8.6490  -23.6560 C.ar  150  TYR150      0.0417
     45  CZ       -41.6520    7.8850  -24.8060 C.ar  150  TYR150      0.1957
     46  OH       -41.2460    6.5620  -24.7010 O.3   150  TYR150     -0.2866
     47  N        -46.2120   14.2520  -29.5050 N.3   153  ARG153     -0.1245
     48  CA       -47.2630   13.2310  -29.4370 C.3   153  ARG153      0.1563
     49  C        -48.3880   13.6610  -28.4990 C.2   153  ARG153      0.2260
     50  O        -49.5730   13.5090  -28.8020 O.2   153  ARG153     -0.2867
     51  CB       -46.7240   11.8860  -28.8580 C.3   153  ARG153      0.0307
     52  CG       -46.6450   10.7000  -29.8160 C.3   153  ARG153      0.0489
     53  CD       -47.8680   10.4550  -30.6720 C.3   153  ARG153      0.2205
     54  NE       -48.8920    9.4790  -30.1930 N.pl3 153  ARG153     -0.0865
     55  CZ       -50.0450    9.2720  -30.8310 C.cat 153  ARG153      0.5346
     56  NH1      -50.3550    9.9750  -31.9380 N.pl3 153  ARG153      0.1354
     57  NH2      -50.9060    8.3570  -30.3730 N.pl3 153  ARG153      0.1354
     58  N        -51.1900   16.1050  -29.5110 N.3   156  GLU156     -0.1231
     59  CA       -52.3030   15.5020  -30.2420 C.3   156  GLU156      0.1699
     60  C        -53.2890   14.7350  -29.3360 C.2   156  GLU156      0.2592
     61  O        -54.4990   14.8260  -29.5360 O.2   156  GLU156     -0.2718
     62  CB       -51.7640   14.5740  -31.3530 C.3   156  GLU156      0.0402
     63  CG       -50.7230   15.2730  -32.2270 C.3   156  GLU156      0.1161
     64  CD       -50.1300   14.4590  -33.3520 C.2   156  GLU156      0.3649
     65  OE1      -50.5440   13.3350  -33.5900 O.co2 156  GLU156     -0.2457
     66  OE2      -49.1340   14.9320  -33.9940 O.co2 156  GLU156     -0.2457
     67  N        -52.7650   13.9730  -28.3690 N.am  157  PHE157     -0.1976
     68  CA       -53.5710   13.0450  -27.5810 C.3   157  PHE157      0.1639
     69  C        -53.2230   13.1340  -26.1090 C.2   157  PHE157      0.2290
     70  O        -52.1100   13.4880  -25.7470 O.2   157  PHE157     -0.2864
     71  CB       -53.3730   11.6090  -28.0760 C.3   157  PHE157      0.0560
     72  CG       -53.8550   11.3730  -29.4920 C.ar  157  PHE157     -0.0200
     73  CD1      -55.1710   10.9980  -29.7520 C.ar  157  PHE157     -0.0042
     74  CD2      -52.9810   11.5330  -30.5730 C.ar  157  PHE157     -0.0042
     75  CE1      -55.6070   10.7810  -31.0550 C.ar  157  PHE157     -0.0003
     76  CE2      -53.4150   11.3220  -31.8810 C.ar  157  PHE157     -0.0003
     77  CZ       -54.7240   10.9390  -32.1210 C.ar  157  PHE157     -0.0000
     78  N        -50.0890    8.4780  -24.5950 N.3   160  LEU160     -0.1245
     79  CA       -49.1430    8.1290  -25.6990 C.3   160  LEU160      0.1561
     80  C        -49.7110    7.2380  -26.8000 C.2   160  LEU160      0.2260
     81  O        -49.2330    7.2940  -27.8990 O.2   160  LEU160     -0.2867
     82  CB       -47.8760    7.4750  -25.1310 C.3   160  LEU160      0.0270
     83  CG       -46.9360    8.3680  -24.3100 C.3   160  LEU160      0.0019
     84  CD1      -45.7530    7.5610  -23.7820 C.3   160  LEU160      0.0001
     85  CD2      -46.3930    9.5450  -25.1110 C.3   160  LEU160      0.0001
     86  N        -48.6910    1.4130  -22.7620 N.3   168  THR168     -0.1218
     87  CA       -47.6390    2.2830  -23.2190 C.3   168  THR168      0.1862
     88  C        -47.2240    3.2520  -22.1320 C.2   168  THR168      0.2287
     89  O        -46.0490    3.4790  -21.9360 O.2   168  THR168     -0.2866
     90  CB       -48.0450    3.0490  -24.4970 C.3   168  THR168      0.1770
     91  OG1      -48.3400    2.1030  -25.5290 O.3   168  THR168     -0.2211
     92  CG2      -46.9170    3.9950  -24.9730 C.3   168  THR168      0.0375
@<TRIPOS>BOND
     1    16    14    1
     2     8     6    1
     3     6     5    1
     4    66    64   ar
     5    14    13    1
     6    65    64   ar
     7    64    63    1
     8     1     2    1
     9    15    13    1
    10     5     2    1
    11     5     7    1
    12    13    10    1
    13     2     3    1
    14    63    62    1
    15    77    76   ar
    16    77    75   ar
    17    56    55    1
    18    76    74   ar
    19    10     9    1
    20    10    11    1
    21    62    59    1
    22    75    73   ar
    23    34    32    1
    24     3     4    2
    25    55    57    1
    26    55    54    2
    27    53    54    1
    28    53    52    1
    29    33    32    1
    30    74    72   ar
    31    59    58    1
    32    59    60    1
    33    27    25    1
    34    11    12    2
    35    11    17   am
    36    32    29    1
    37    52    51    1
    38    73    72   ar
    39    29    28    1
    40    29    30    1
    41    61    60    2
    42    47    48    1
    43    72    71    1
    44    48    51    1
    45    48    49    1
    46    17    18    1
    47    60    67   am
    48    31    30    2
    49    50    49    2
    50    30    35   am
    51    25    22    1
    52    25    26    1
    53    21    22    1
    54    67    68    1
    55    22    23    1
    56    18    19    1
    57    71    68    1
    58    81    80    2
    59    68    69    1
    60    35    36    1
    61    19    20    2
    62    80    79    1
    63    23    24    2
    64    36    37    1
    65    36    39    1
    66    37    38    2
    67    41    43   ar
    68    41    40   ar
    69    69    70    2
    70    43    45   ar
    71    79    82    1
    72    79    78    1
    73    91    90    1
    74    39    40    1
    75    82    83    1
    76    85    83    1
    77    40    42   ar
    78    92    90    1
    79    45    46    1
    80    45    44   ar
    81    90    87    1
    82    83    84    1
    83    42    44   ar
    84    87    86    1
    85    87    88    1
    86    88    89    2
