@<TRIPOS>MOLECULE
tmp/5a4wF01.pdb
 109 104 0 0 0
SMALL
GASTEIGER

@<TRIPOS>ATOM
      1  N         -2.7890    0.0610    8.0970 N.3    71  GLN71      -0.1231
      2  CA        -1.4550   -0.1400    8.6140 C.3    71  GLN71       0.1698
      3  C         -1.2220    0.6970    9.9050 C.2    71  GLN71       0.2592
      4  O         -0.6590    0.1990   10.8750 O.2    71  GLN71      -0.2718
      5  CB        -0.4330    0.0560    7.5160 C.3    71  GLN71       0.0381
      6  CG         0.8760    0.6020    8.0190 C.3    71  GLN71       0.0905
      7  CD         1.9010    0.8860    6.9260 C.2    71  GLN71       0.2608
      8  OE1        2.7530    0.0210    6.5740 O.2    71  GLN71      -0.2717
      9  NE2        1.8290    2.1000    6.3860 N.am   71  GLN71      -0.0878
     10  N         -1.6950    1.9460    9.9190 N.am   72  TYR72      -0.1976
     11  CA        -1.6810    2.7380   11.1330 C.3    72  TYR72       0.1639
     12  C         -2.3940    2.0090   12.2720 C.2    72  TYR72       0.2290
     13  O         -1.8570    1.8580   13.3720 O.2    72  TYR72      -0.2864
     14  CB        -2.3290    4.1070   10.9050 C.3    72  TYR72       0.0560
     15  CG        -2.6570    4.8010   12.1980 C.ar   72  TYR72      -0.0198
     16  CD1       -1.6910    5.4770   12.9030 C.ar   72  TYR72      -0.0009
     17  CD2       -3.9470    4.7370   12.7400 C.ar   72  TYR72      -0.0009
     18  CE1       -1.9890    6.1040   14.1140 C.ar   72  TYR72       0.0417
     19  CE2       -4.2530    5.3430   13.9550 C.ar   72  TYR72       0.0417
     20  CZ        -3.2760    6.0340   14.6440 C.ar   72  TYR72       0.1957
     21  OH        -3.5870    6.6710   15.8330 O.3    72  TYR72      -0.2866
     22  N         -0.3600   -0.8660   13.6870 N.3    75  HIS75      -0.1241
     23  CA         0.7870   -0.4830   14.5060 C.3    75  HIS75       0.1621
     24  C          0.3360    0.1900   15.8100 C.2    75  HIS75       0.2264
     25  O          0.7500   -0.2070   16.8790 O.2    75  HIS75      -0.2867
     26  CB         1.7460    0.4390   13.7090 C.3    75  HIS75       0.0745
     27  CG         2.6490   -0.3050   12.7770 C.ar   75  HIS75       0.0817
     28  ND1        2.2950   -0.6270   11.4880 N.ar   75  HIS75      -0.2268
     29  CD2        3.8860   -0.8130   12.9630 C.ar   75  HIS75       0.1154
     30  CE1        3.2610   -1.3220   10.9230 C.ar   75  HIS75       0.1986
     31  NE2        4.2490   -1.4380   11.7940 N.ar   75  HIS75      -0.2212
     32  N         -1.3020   -2.4070   18.0310 N.3    78  GLU78      -0.1245
     33  CA        -0.6750   -3.6960   17.7550 C.3    78  GLU78       0.1567
     34  C         -1.0430   -4.7880   18.7320 C.2    78  GLU78       0.2260
     35  O         -1.3480   -5.9290   18.3490 O.2    78  GLU78      -0.2867
     36  CB         0.8530   -3.5550   17.7220 C.3    78  GLU78       0.0388
     37  CG         1.5670   -4.8530   17.4040 C.3    78  GLU78       0.1160
     38  CD         3.0880   -4.7530   17.3040 C.2    78  GLU78       0.3649
     39  OE1        3.6550   -3.6490   17.4600 O.co2  78  GLU78      -0.2457
     40  OE2        3.7030   -5.8180   17.0160 O.co2  78  GLU78      -0.2457
     41  N         -0.1530   -7.5850   11.9100 N.3    85  LEU85      -0.1245
     42  CA         1.2130   -7.6770   11.4600 C.3    85  LEU85       0.1561
     43  C          1.6950   -9.1080   11.6070 C.2    85  LEU85       0.2260
     44  O          0.9850   -9.9790   12.0810 O.2    85  LEU85      -0.2867
     45  CB         2.1050   -6.7280   12.2800 C.3    85  LEU85       0.0270
     46  CG         1.6730   -5.2820   12.2990 C.3    85  LEU85       0.0019
     47  CD1        2.6110   -4.4850   13.1870 C.3    85  LEU85       0.0001
     48  CD2        1.6650   -4.7250   10.8870 C.3    85  LEU85       0.0001
     49  N          6.8180   -8.8290   14.7470 N.3    89  SER89      -0.1202
     50  CA         6.6640   -7.5620   14.0150 C.3    89  SER89       0.2020
     51  C          7.9500   -6.7310   13.9230 C.2    89  SER89       0.2619
     52  O          8.0450   -5.8430   13.0940 O.2    89  SER89      -0.2717
     53  CB         5.5400   -6.7250   14.6220 C.3    89  SER89       0.2103
     54  OG         5.9020   -6.2790   15.9250 O.3    89  SER89      -0.2182
     55  N          8.9430   -7.0430   14.7440 N.am   90  LYS90      -0.1965
     56  CA        10.2390   -6.3670   14.6770 C.3    90  LYS90       0.1728
     57  C         11.1790   -6.9650   13.6170 C.2    90  LYS90       0.2616
     58  O         12.2550   -6.4330   13.3510 O.2    90  LYS90      -0.2715
     59  CB        10.8850   -6.3690   16.0780 C.3    90  LYS90       0.0311
     60  CG         9.9540   -5.8270   17.1460 C.3    90  LYS90       0.0038
     61  CD         9.2390   -4.5400   16.6760 C.3    90  LYS90       0.0206
     62  CE         8.3520   -3.9340   17.7710 C.3    90  LYS90       0.1093
     63  NZ         7.5320   -4.9850   18.4560 N.3    90  LYS90      -0.1314
     64  N         10.7910   -8.0730   13.0150 N.am   91  ASN91      -0.1958
     65  CA        11.5880   -8.7120   11.9880 C.3    91  ASN91       0.1819
     66  C         11.3650   -8.0410   10.6240 C.2    91  ASN91       0.2621
     67  O         10.2930   -8.1740    9.9970 O.2    91  ASN91      -0.2715
     68  CB        11.2600  -10.2030   11.9100 C.3    91  ASN91       0.1195
     69  CG        12.1020  -10.9230   10.8900 C.2    91  ASN91       0.2630
     70  OD1       12.3920  -10.3940    9.8040 O.2    91  ASN91      -0.2716
     71  ND2       12.4480  -12.1590   11.1920 N.am   91  ASN91      -0.0877
     72  N         12.4050   -7.3670   10.1500 N.am   92  ILE92      -0.1977
     73  CA        12.3060   -6.4850    9.0010 C.3    92  ILE92       0.1596
     74  C         12.0930   -7.2450    7.7150 C.2    92  ILE92       0.2287
     75  O         11.3080   -6.8230    6.8560 O.2    92  ILE92      -0.2864
     76  CB        13.5220   -5.5260    8.9500 C.3    92  ILE92       0.0276
     77  CG1       13.4530   -4.5670   10.1700 C.3    92  ILE92       0.0022
     78  CG2       13.5590   -4.7170    7.6470 C.3    92  ILE92       0.0022
     79  CD1       14.7240   -3.8020   10.4680 C.3    92  ILE92       0.0001
     80  N          8.4840   -8.3150    7.5830 N.3    95  TYR95      -0.1227
     81  CA         7.6650   -7.1780    7.2370 C.3    95  TYR95       0.1736
     82  C          7.6900   -6.9730    5.7170 C.2    95  TYR95       0.2595
     83  O          6.6610   -6.7620    5.0810 O.2    95  TYR95      -0.2718
     84  CB         8.0720   -5.9020    8.0080 C.3    95  TYR95       0.0548
     85  CG         6.9070   -4.9630    8.1100 C.ar   95  TYR95      -0.0200
     86  CD1        6.4110   -4.3050    6.9700 C.ar   95  TYR95      -0.0009
     87  CD2        6.2740   -4.7380    9.2970 C.ar   95  TYR95      -0.0009
     88  CE1        5.3250   -3.4520    7.0330 C.ar   95  TYR95       0.0417
     89  CE2        5.1860   -3.8710    9.3720 C.ar   95  TYR95       0.0417
     90  CZ         4.7130   -3.2490    8.2380 C.ar   95  TYR95       0.1957
     91  OH         3.6280   -2.4260    8.2570 O.3    95  TYR95      -0.2866
     92  N          8.8740   -7.0700    5.1200 N.am   96  ALA96      -0.1980
     93  CA         9.0300   -6.8740    3.6590 C.3    96  ALA96       0.1597
     94  C          8.2230   -7.8820    2.8620 C.2    96  ALA96       0.2287
     95  O          7.6870   -7.5500    1.8110 O.2    96  ALA96      -0.2864
     96  CB        10.5110   -6.9500    3.2660 C.3    96  ALA96       0.0319
     97  N          4.8160   -6.7480    2.9740 N.3    99  ALA99      -0.1245
     98  CA         4.7490   -5.6020    2.0620 C.3    99  ALA99       0.1562
     99  C          4.6480   -5.9760    0.5530 C.2    99  ALA99       0.2260
    100  O          3.9280   -5.3240   -0.1920 O.2    99  ALA99      -0.2867
    101  CB         5.9180   -4.6420    2.2990 C.3    99  ALA99       0.0290
    102  N          1.0550   -6.9380    0.0260 N.3   102  MET102     -0.1245
    103  CA         0.2020   -5.7210    0.0250 C.3   102  MET102      0.1570
    104  C          0.3060   -4.9320   -1.3060 C.2   102  MET102      0.2261
    105  O         -0.6860   -4.4870   -1.8470 O.2   102  MET102     -0.2867
    106  CB         0.5100   -4.8310    1.2320 C.3   102  MET102      0.0387
    107  CG         0.1250   -5.4440    2.5930 C.3   102  MET102      0.0595
    108  SD         0.3500   -4.3120    3.9930 S.3   102  MET102     -0.1393
    109  CE         2.0850   -4.0230    4.0140 C.3   102  MET102      0.0692
@<TRIPOS>BOND
     1   105   104    2
     2   104   103    1
     3   100    99    2
     4   103   102    1
     5   103   106    1
     6    99    98    1
     7   106   107    1
     8    95    94    2
     9    98   101    1
    10    98    97    1
    11   107   108    1
    12    94    93    1
    13    96    93    1
    14    93    92    1
    15   108   109    1
    16    83    82    2
    17    92    82   am
    18    82    81    1
    19     9     7   am
    20     8     7    2
    21    75    74    2
    22     7     6    1
    23    86    88   ar
    24    86    85   ar
    25    88    90   ar
    26    81    80    1
    27    81    84    1
    28     5     6    1
    29     5     2    1
    30    78    76    1
    31    74    73    1
    32    84    85    1
    33     1     2    1
    34    85    87   ar
    35    90    91    1
    36    90    89   ar
    37     2     3    1
    38    76    73    1
    39    76    77    1
    40    73    72    1
    41    87    89   ar
    42    70    69    2
    43     3    10   am
    44     3     4    2
    45    10    11    1
    46    67    66    2
    47    72    66   am
    48    77    79    1
    49    66    65    1
    50    48    46    1
    51    69    71   am
    52    69    68    1
    53    14    11    1
    54    14    15    1
    55    30    28   ar
    56    30    31   ar
    57    11    12    1
    58    42    43    1
    59    42    41    1
    60    42    45    1
    61    28    27   ar
    62    43    44    2
    63    31    29   ar
    64    68    65    1
    65    65    64    1
    66    15    17   ar
    67    15    16   ar
    68    12    13    2
    69    45    46    1
    70    46    47    1
    71    17    19   ar
    72    27    29   ar
    73    27    26    1
    74    16    18   ar
    75    64    57   am
    76    52    51    2
    77    58    57    2
    78    57    56    1
    79    22    23    1
    80    26    23    1
    81    51    50    1
    82    51    55   am
    83    19    20   ar
    84    50    53    1
    85    50    49    1
    86    18    20   ar
    87    23    24    1
    88    53    54    1
    89    20    21    1
    90    56    55    1
    91    56    59    1
    92    24    25    2
    93    59    60    1
    94    61    60    1
    95    61    62    1
    96    40    38   ar
    97    38    37    1
    98    38    39   ar
    99    37    36    1
   100    36    33    1
   101    33    32    1
   102    33    34    1
   103    62    63    1
   104    35    34    2
