@<TRIPOS>MOLECULE
tmp/5a54D00.pdb
 145 138 0 0 0
SMALL
GASTEIGER

@<TRIPOS>ATOM
      1  N         17.9840   24.9260   35.8440 N.3    32  ILE32      -0.1231
      2  CA        18.6820   25.5680   34.7130 C.3    32  ILE32       0.1692
      3  C         18.7070   24.7540   33.4130 C.2    32  ILE32       0.2592
      4  O         19.2690   25.2040   32.4120 O.2    32  ILE32      -0.2718
      5  CB        20.1400   25.9330   35.0850 C.3    32  ILE32       0.0266
      6  CG1       20.9220   24.6840   35.5180 C.3    32  ILE32       0.0019
      7  CG2       20.1510   26.9950   36.1750 C.3    32  ILE32       0.0020
      8  CD1       22.4190   24.8830   35.5940 C.3    32  ILE32       0.0001
      9  N         18.1040   23.5680   33.4210 N.am   33  GLY33      -0.1957
     10  CA        18.1040   22.7120   32.2420 C.3    33  GLY33       0.1869
     11  C         17.2430   21.4780   32.4290 C.2    33  GLY33       0.2309
     12  O         17.2250   20.8850   33.5110 O.2    33  GLY33      -0.2863
     13  N         16.6160   12.8090   29.7200 N.3    37  PHE37      -0.1241
     14  CA        17.2630   12.2300   30.9150 C.3    37  PHE37       0.1605
     15  C         16.6240   12.6000   32.2560 C.2    37  PHE37       0.2264
     16  O         16.5680   11.7800   33.1770 O.2    37  PHE37      -0.2867
     17  CB        18.7510   12.6280   30.9560 C.3    37  PHE37       0.0534
     18  CG        18.9940   14.1100   30.8170 C.ar   37  PHE37      -0.0203
     19  CD1       18.8760   14.9560   31.9120 C.ar   37  PHE37      -0.0042
     20  CD2       19.3540   14.6550   29.5920 C.ar   37  PHE37      -0.0042
     21  CE1       19.0950   16.3180   31.7860 C.ar   37  PHE37      -0.0003
     22  CE2       19.5780   16.0150   29.4560 C.ar   37  PHE37      -0.0003
     23  CZ        19.4480   16.8490   30.5550 C.ar   37  PHE37      -0.0000
     24  N         18.6990   19.3830   35.2800 N.3    40  VAL40      -0.1245
     25  CA        20.0200   19.9080   35.6220 C.3    40  VAL40       0.1561
     26  C         19.8520   21.1400   36.5140 C.2    40  VAL40       0.2260
     27  O         19.2940   22.1460   36.0700 O.2    40  VAL40      -0.2867
     28  CB        20.8010   20.3330   34.3550 C.3    40  VAL40       0.0252
     29  CG1       22.1320   20.9800   34.7280 C.3    40  VAL40       0.0019
     30  CG2       21.0170   19.1460   33.4270 C.3    40  VAL40       0.0019
     31  N         26.9420   22.0470   38.6270 N.3    53  ALA53      -0.1245
     32  CA        25.7710   21.6670   37.8480 C.3    53  ALA53       0.1562
     33  C         25.4690   20.2110   38.1200 C.2    53  ALA53       0.2260
     34  O         26.1560   19.3350   37.6080 O.2    53  ALA53      -0.2867
     35  CB        26.0260   21.8850   36.3660 C.3    53  ALA53       0.0290
     36  N         23.3290   16.9710   37.6340 N.3    55  LYS55      -0.1245
     37  CA        22.4350   16.3990   36.6350 C.3    55  LYS55       0.1561
     38  C         21.6170   15.3020   37.2820 C.2    55  LYS55       0.2260
     39  O         22.1380   14.2250   37.5730 O.2    55  LYS55      -0.2867
     40  CB        23.2350   15.8500   35.4500 C.3    55  LYS55       0.0271
     41  CG        22.3880   15.1610   34.3910 C.3    55  LYS55       0.0035
     42  CD        23.0900   15.1160   33.0420 C.3    55  LYS55       0.0206
     43  CE        22.5430   13.9920   32.1790 C.3    55  LYS55       0.1093
     44  NZ        22.9970   14.0990   30.7670 N.3    55  LYS55      -0.1314
     45  N         26.7670    6.7940   30.5160 N.3    70  GLU70      -0.1245
     46  CA        27.4440    8.0950   30.4950 C.3    70  GLU70       0.1567
     47  C         28.5770    8.1450   31.5270 C.2    70  GLU70       0.2260
     48  O         29.6690    8.6250   31.2280 O.2    70  GLU70      -0.2867
     49  CB        26.4630    9.2520   30.7440 C.3    70  GLU70       0.0388
     50  CG        27.1020   10.6290   30.5790 C.3    70  GLU70       0.1160
     51  CD        26.1260   11.7990   30.6530 C.2    70  GLU70       0.3649
     52  OE1       24.9500   11.6060   31.0300 O.co2  70  GLU70      -0.2457
     53  OE2       26.5510   12.9370   30.3360 O.co2  70  GLU70      -0.2457
     54  N         33.7070   18.3720   29.5200 N.3    89  VAL89      -0.1245
     55  CA        33.2060   18.6770   30.8630 C.3    89  VAL89       0.1561
     56  C         33.5350   17.5570   31.8420 C.2    89  VAL89       0.2260
     57  O         33.4870   16.3740   31.4870 O.2    89  VAL89      -0.2867
     58  CB        31.6820   18.9390   30.8590 C.3    89  VAL89       0.0252
     59  CG1       30.9000   17.6550   30.5910 C.3    89  VAL89       0.0019
     60  CG2       31.2450   19.5810   32.1680 C.3    89  VAL89       0.0019
     61  N         28.7020   18.0710   38.1490 N.3   105  PHE105     -0.1227
     62  CA        29.6210   18.6180   37.1530 C.3   105  PHE105      0.1736
     63  C         30.0670   20.0190   37.5470 C.2   105  PHE105      0.2595
     64  O         29.4220   20.6810   38.3610 O.2   105  PHE105     -0.2718
     65  CB        28.9430   18.7240   35.7780 C.3   105  PHE105      0.0547
     66  CG        28.6530   17.4020   35.1200 C.ar  105  PHE105     -0.0202
     67  CD1       29.6320   16.7480   34.3840 C.ar  105  PHE105     -0.0042
     68  CD2       27.3940   16.8310   35.2010 C.ar  105  PHE105     -0.0042
     69  CE1       29.3670   15.5360   33.7670 C.ar  105  PHE105     -0.0003
     70  CE2       27.1220   15.6200   34.5850 C.ar  105  PHE105     -0.0003
     71  CZ        28.1080   14.9720   33.8660 C.ar  105  PHE105     -0.0000
     72  N         31.1590   20.4790   36.9380 N.am  106  GLU106     -0.1965
     73  CA        31.5960   21.8690   37.0710 C.3   106  GLU106      0.1733
     74  C         30.5660   22.7800   36.4120 C.2   106  GLU106      0.2616
     75  O         29.9000   22.3800   35.4620 O.2   106  GLU106     -0.2715
     76  CB        32.9830   22.0680   36.4390 C.3   106  GLU106      0.0429
     77  CG        33.0030   22.0590   34.9120 C.3   106  GLU106      0.1163
     78  CD        34.3760   21.7500   34.3340 C.2   106  GLU106      0.3649
     79  OE1       34.6870   20.5550   34.1360 O.co2 106  GLU106     -0.2457
     80  OE2       35.1380   22.7030   34.0610 O.co2 106  GLU106     -0.2457
     81  N         30.4320   24.0010   36.9190 N.am  107  MET107     -0.1963
     82  CA        29.4230   24.9290   36.4200 C.3   107  MET107      0.1736
     83  C         29.9720   25.7160   35.2390 C.2   107  MET107      0.2616
     84  O         31.0210   26.3530   35.3420 O.2   107  MET107     -0.2715
     85  CB        28.9860   25.8910   37.5250 C.3   107  MET107      0.0427
     86  CG        27.8680   26.8460   37.1330 C.3   107  MET107      0.0599
     87  SD        26.2920   26.0190   36.8260 S.3   107  MET107     -0.1393
     88  CE        25.2750   27.4380   36.4260 C.3   107  MET107      0.0692
     89  N         29.2450   25.6770   34.1270 N.am  108  LEU108     -0.1963
     90  CA        29.6200   26.4010   32.9210 C.3   108  LEU108      0.1728
     91  C         28.5430   27.4230   32.5860 C.2   108  LEU108      0.2617
     92  O         27.4930   27.4610   33.2320 O.2   108  LEU108     -0.2715
     93  CB        29.8070   25.4160   31.7700 C.3   108  LEU108      0.0311
     94  CG        30.8200   24.3000   32.0430 C.3   108  LEU108      0.0022
     95  CD1       30.6790   23.1830   31.0200 C.3   108  LEU108      0.0001
     96  CD2       32.2410   24.8480   32.0570 C.3   108  LEU108      0.0001
     97  N         28.8170   28.2510   31.5790 N.am  109  SER109     -0.1936
     98  CA        27.8960   29.3010   31.1390 C.3   109  SER109      0.2055
     99  C         26.8580   28.7320   30.1640 C.2   109  SER109      0.2643
    100  O         26.6540   27.5160   30.1160 O.2   109  SER109     -0.2714
    101  CB        28.6850   30.4500   30.4960 C.3   109  SER109      0.2130
    102  OG        27.8930   31.6210   30.3570 O.3   109  SER109     -0.2179
    103  N         26.1970   29.6070   29.4030 N.am  110  TYR110     -0.1959
    104  CA        25.1700   29.1790   28.4370 C.3   110  TYR110      0.1771
    105  C         25.7780   28.5870   27.1620 C.2   110  TYR110      0.2619
    106  O         26.8740   28.9650   26.7530 O.2   110  TYR110     -0.2715
    107  CB        24.2000   30.3250   28.0900 C.3   110  TYR110      0.0574
    108  CG        24.8530   31.6570   27.7620 C.ar  110  TYR110     -0.0198
    109  CD1       25.5320   31.8500   26.5620 C.ar  110  TYR110     -0.0009
    110  CD2       24.7780   32.7300   28.6520 C.ar  110  TYR110     -0.0009
    111  CE1       26.1270   33.0660   26.2620 C.ar  110  TYR110      0.0417
    112  CE2       25.3710   33.9490   28.3620 C.ar  110  TYR110      0.0417
    113  CZ        26.0430   34.1130   27.1650 C.ar  110  TYR110      0.1957
    114  OH        26.6330   35.3220   26.8670 O.3   110  TYR110     -0.2866
    115  N         25.0410   27.6670   26.5380 N.am  111  ASN111     -0.1972
    116  CA        25.5050   26.9620   25.3360 C.3   111  ASN111      0.1688
    117  C         25.5750   27.8540   24.0950 C.2   111  ASN111      0.2292
    118  O         25.1270   29.0010   24.1250 O.2   111  ASN111     -0.2864
    119  CB        24.6460   25.7120   25.0720 C.3   111  ASN111      0.1181
    120  CG        23.2150   26.0370   24.6620 C.2   111  ASN111      0.2629
    121  OD1       22.9570   27.0080   23.9490 O.2   111  ASN111     -0.2716
    122  ND2       22.2770   25.1980   25.0920 N.am  111  ASN111     -0.0877
    123  N         29.2250   24.2650   25.5570 N.3   161  LEU161     -0.1245
    124  CA        28.9680   25.3330   26.5240 C.3   161  LEU161      0.1561
    125  C         30.2000   26.1900   26.8020 C.2   161  LEU161      0.2260
    126  O         31.3000   25.6690   26.9780 O.2   161  LEU161     -0.2867
    127  CB        28.4640   24.7370   27.8400 C.3   161  LEU161      0.0270
    128  CG        26.9790   24.3830   27.9230 C.3   161  LEU161      0.0019
    129  CD1       26.5900   23.3430   26.8790 C.3   161  LEU161      0.0001
    130  CD2       26.6600   23.8900   29.3280 C.3   161  LEU161      0.0001
    131  N         29.4160   18.8500   26.4030 N.3   173  VAL173     -0.1231
    132  CA        28.5970   18.1810   27.4300 C.3   173  VAL173      0.1692
    133  C         27.7250   17.0690   26.8480 C.2   173  VAL173      0.2592
    134  O         27.5700   16.9660   25.6350 O.2   173  VAL173     -0.2718
    135  CB        27.7020   19.1820   28.2000 C.3   173  VAL173      0.0266
    136  CG1       28.5280   20.3670   28.6890 C.3   173  VAL173      0.0020
    137  CG2       26.5290   19.6570   27.3470 C.3   173  VAL173      0.0020
    138  N         27.1810   16.2440   27.7410 N.am  174  ASP174     -0.1974
    139  CA        26.2110   15.1810   27.4190 C.3   174  ASP174      0.1709
    140  C         26.8200   14.0370   26.6160 C.2   174  ASP174      0.2293
    141  O         26.9390   14.1140   25.3970 O.2   174  ASP174     -0.2864
    142  CB        24.9640   15.7400   26.7020 C.3   174  ASP174      0.1436
    143  CG        23.8660   14.6830   26.4950 C.2   174  ASP174      0.3671
    144  OD1       23.9230   13.5820   27.0880 O.co2 174  ASP174     -0.2456
    145  OD2       22.9260   14.9640   25.7230 O.co2 174  ASP174     -0.2456
@<TRIPOS>BOND
     1   121   120    2
     2   117   118    2
     3   117   116    1
     4   120   119    1
     5   120   122   am
     6   119   116    1
     7   116   115    1
     8   141   140    2
     9   123   124    1
    10   134   133    2
    11   145   143   ar
    12   111   109   ar
    13   111   113   ar
    14   131   132    1
    15   143   142    1
    16   143   144   ar
    17   124   125    1
    18   124   127    1
    19   115   105   am
    20   109   108   ar
    21   140   139    1
    22   142   139    1
    23   106   105    2
    24   125   126    2
    25   133   132    1
    26   133   138   am
    27   114   113    1
    28   129   128    1
    29   105   104    1
    30   113   112   ar
    31   137   135    1
    32   139   138    1
    33   132   135    1
    34   108   107    1
    35   108   110   ar
    36   127   128    1
    37   128   130    1
    38   107   104    1
    39   135   136    1
    40   112   110   ar
    41   104   103    1
    42   103    99   am
    43    22    20   ar
    44    22    23   ar
    45    54    55    1
    46    20    18   ar
    47    13    14    1
    48   100    99    2
    49    99    98    1
    50    53    51   ar
    51   102   101    1
    52    46    45    1
    53    46    49    1
    54    46    47    1
    55   101    98    1
    56    23    21   ar
    57    50    51    1
    58    50    49    1
    59    59    58    1
    60    51    52   ar
    61    44    43    1
    62    18    17    1
    63    18    19   ar
    64    58    55    1
    65    58    60    1
    66    55    56    1
    67    14    17    1
    68    14    15    1
    69    95    94    1
    70    98    97    1
    71    48    47    2
    72    57    56    2
    73    97    91   am
    74    93    94    1
    75    93    90    1
    76    21    19   ar
    77    94    96    1
    78    43    42    1
    79    10    11    1
    80    10     9    1
    81    15    16    2
    82     4     3    2
    83    11    12    2
    84    91    90    1
    85    91    92    2
    86    90    89    1
    87    42    41    1
    88     3     9   am
    89     3     2    1
    90    30    28    1
    91    69    71   ar
    92    69    67   ar
    93    71    70   ar
    94    80    78   ar
    95    89    83   am
    96    79    78   ar
    97    78    77    1
    98    28    29    1
    99    28    25    1
   100    67    66   ar
   101    41    40    1
   102    70    68   ar
   103     2     5    1
   104     2     1    1
   105    77    76    1
   106     5     6    1
   107     5     7    1
   108    66    68   ar
   109    66    65    1
   110    83    84    2
   111    83    82    1
   112    24    25    1
   113    40    37    1
   114    75    74    2
   115     6     8    1
   116    25    26    1
   117    65    62    1
   118    27    26    2
   119    35    32    1
   120    74    81   am
   121    74    73    1
   122    82    81    1
   123    82    85    1
   124    88    87    1
   125    76    73    1
   126    37    38    1
   127    37    36    1
   128    87    86    1
   129    72    73    1
   130    72    63   am
   131    86    85    1
   132    62    63    1
   133    62    61    1
   134    38    39    2
   135    63    64    2
   136    34    33    2
   137    32    33    1
   138    32    31    1
