@<TRIPOS>MOLECULE
tmp/5a5iA00.pdb
 154 140 0 0 0
SMALL
GASTEIGER

@<TRIPOS>ATOM
      1  N         73.0850   -7.7120   -9.9970 N.3    72  GLU72      -0.1245
      2  CA        73.4710   -8.2410   -8.6820 C.3    72  GLU72       0.1567
      3  C         72.7860   -9.5950   -8.4690 C.2    72  GLU72       0.2260
      4  O         71.5550   -9.6910   -8.5090 O.2    72  GLU72      -0.2867
      5  CB        73.1580   -7.2350   -7.5380 C.3    72  GLU72       0.0388
      6  CG        73.2840   -5.7320   -7.8690 C.3    72  GLU72       0.1160
      7  CD        74.5450   -5.3800   -8.6690 C.2    72  GLU72       0.3649
      8  OE1       75.6220   -5.1230   -8.0770 O.co2  72  GLU72      -0.2457
      9  OE2       74.4590   -5.3410   -9.9140 O.co2  72  GLU72      -0.2457
     10  N         73.3740  -10.7010   -5.7850 N.3    74  ALA74      -0.1245
     11  CA        72.9350  -10.0480   -4.5240 C.3    74  ALA74       0.1562
     12  C         71.4340  -10.0900   -4.3910 C.2    74  ALA74       0.2260
     13  O         70.8990  -10.2130   -3.2800 O.2    74  ALA74      -0.2867
     14  CB        73.4040   -8.5950   -4.4660 C.3    74  ALA74       0.0290
     15  N         68.6450   -7.9920   -4.9760 N.3    76  ARG76      -0.1245
     16  CA        68.1610   -6.9320   -4.1390 C.3    76  ARG76       0.1563
     17  C         66.8560   -6.3650   -4.7010 C.2    76  ARG76       0.2260
     18  O         66.3910   -5.3050   -4.2640 O.2    76  ARG76      -0.2867
     19  CB        69.2580   -5.8860   -4.0560 C.3    76  ARG76       0.0307
     20  CG        70.4170   -6.3450   -3.1720 C.3    76  ARG76       0.0489
     21  CD        70.1130   -6.1850   -1.6830 C.3    76  ARG76       0.2205
     22  NE        69.9960   -4.7560   -1.3950 N.pl3  76  ARG76      -0.0865
     23  CZ        68.8670   -4.0790   -1.1720 C.cat  76  ARG76       0.5346
     24  NH1       67.6570   -4.6740   -1.1470 N.pl3  76  ARG76       0.1354
     25  NH2       68.9630   -2.7720   -0.9560 N.pl3  76  ARG76       0.1354
     26  N         63.3950   -0.1580   -3.7190 N.3    81  VAL81      -0.1231
     27  CA        64.3000    0.6560   -4.6190 C.3    81  VAL81       0.1692
     28  C         64.4850   -0.0470   -5.9740 C.2    81  VAL81       0.2592
     29  O         64.4550    0.5940   -7.0140 O.2    81  VAL81      -0.2718
     30  CB        65.7060    0.8590   -3.9760 C.3    81  VAL81       0.0266
     31  CG1       66.6750    1.5440   -4.8980 C.3    81  VAL81       0.0020
     32  CG2       65.6420    1.6570   -2.6910 C.3    81  VAL81       0.0020
     33  N         64.6280   -1.3690   -5.9410 N.am   82  PHE82      -0.1976
     34  CA        65.0400   -2.1190   -7.1190 C.3    82  PHE82       0.1639
     35  C         63.9520   -2.9810   -7.6570 C.2    82  PHE82       0.2290
     36  O         64.1670   -3.6430   -8.6610 O.2    82  PHE82      -0.2864
     37  CB        66.3100   -2.9270   -6.8430 C.3    82  PHE82       0.0560
     38  CG        67.5170   -2.0690   -6.6320 C.ar   82  PHE82      -0.0200
     39  CD1       67.9300   -1.2190   -7.6340 C.ar   82  PHE82      -0.0042
     40  CD2       68.1890   -2.0430   -5.4080 C.ar   82  PHE82      -0.0042
     41  CE1       68.9970   -0.3680   -7.4400 C.ar   82  PHE82      -0.0003
     42  CE2       69.2650   -1.1880   -5.1980 C.ar   82  PHE82      -0.0003
     43  CZ        69.6850   -0.3700   -6.2340 C.ar   82  PHE82      -0.0000
     44  N         77.4480    0.3360    5.4390 N.3   169  LEU169     -0.1245
     45  CA        76.6020    1.2190    4.6210 C.3   169  LEU169      0.1561
     46  C         77.4180    2.1980    3.7940 C.2   169  LEU169      0.2260
     47  O         77.2080    2.3170    2.5890 O.2   169  LEU169     -0.2867
     48  CB        75.7250    2.0420    5.5740 C.3   169  LEU169      0.0270
     49  CG        74.3200    2.4370    5.1460 C.3   169  LEU169      0.0019
     50  CD1       74.0250    3.8160    5.7480 C.3   169  LEU169      0.0001
     51  CD2       74.1040    2.4460    3.6400 C.3   169  LEU169      0.0001
     52  N         79.3410    0.3190    0.8940 N.3   172  ASN172     -0.1225
     53  CA        78.5230    0.0110   -0.3000 C.3   172  ASN172      0.1785
     54  C         78.1700    1.2460   -1.1050 C.2   172  ASN172      0.2597
     55  O         78.2680    1.2560   -2.3570 O.2   172  ASN172     -0.2718
     56  CB        77.2650   -0.7480    0.0690 C.3   172  ASN172      0.1169
     57  CG        77.5580   -2.1410    0.6120 C.2   172  ASN172      0.2627
     58  OD1       78.6920   -2.4410    1.0110 O.2   172  ASN172     -0.2716
     59  ND2       76.5360   -3.0150    0.6130 N.am  172  ASN172     -0.0877
     60  N         77.7640    2.2970   -0.3910 N.am  173  ILE173     -0.1980
     61  CA        77.5650    3.6010   -1.0170 C.3   173  ILE173      0.1595
     62  C         78.7650    4.0710   -1.8530 C.2   173  ILE173      0.2287
     63  O         78.6030    4.3990   -3.0370 O.2   173  ILE173     -0.2864
     64  CB        77.1620    4.6610    0.0650 C.3   173  ILE173      0.0276
     65  CG1       75.6600    4.8270    0.0460 C.3   173  ILE173      0.0022
     66  CG2       77.8420    6.0130   -0.1280 C.3   173  ILE173      0.0022
     67  CD1       74.8800    3.5340    0.2190 C.3   173  ILE173      0.0001
     68  N         79.2760    1.9470   -5.0470 N.3   176  LEU176     -0.1245
     69  CA        78.2520    2.1330   -6.0810 C.3   176  LEU176      0.1561
     70  C         78.1620    3.4860   -6.7670 C.2   176  LEU176      0.2260
     71  O         77.6570    3.5780   -7.8860 O.2   176  LEU176     -0.2867
     72  CB        76.9020    1.8470   -5.4810 C.3   176  LEU176      0.0270
     73  CG        76.7340    0.3640   -5.2260 C.3   176  LEU176      0.0019
     74  CD1       75.8280    0.1260   -4.0170 C.3   176  LEU176      0.0001
     75  CD2       76.1580   -0.2540   -6.4950 C.3   176  LEU176      0.0001
     76  N         81.1990   -5.6390   -1.8330 N.3   194  LEU194     -0.1245
     77  CA        79.7860   -5.2760   -1.8670 C.3   194  LEU194      0.1561
     78  C         78.9830   -6.4510   -1.3200 C.2   194  LEU194      0.2260
     79  O         78.3770   -6.3540   -0.2440 O.2   194  LEU194     -0.2867
     80  CB        79.3580   -4.9520   -3.2940 C.3   194  LEU194      0.0270
     81  CG        78.1790   -4.0150   -3.5050 C.3   194  LEU194      0.0019
     82  CD1       78.5300   -2.5990   -3.0740 C.3   194  LEU194      0.0001
     83  CD2       77.8130   -4.0450   -4.9750 C.3   194  LEU194      0.0001
     84  N         76.5100   -6.7400    2.0430 N.3   198  VAL198     -0.1245
     85  CA        75.0940   -6.9480    1.7840 C.3   198  VAL198      0.1561
     86  C         74.6600   -8.1480    2.6230 C.2   198  VAL198      0.2260
     87  O         73.7140   -8.0420    3.3900 O.2   198  VAL198     -0.2867
     88  CB        74.7870   -7.1460    0.2640 C.3   198  VAL198      0.0252
     89  CG1       73.3340   -7.5340    0.0020 C.3   198  VAL198      0.0019
     90  CG2       75.0550   -5.8810   -0.5130 C.3   198  VAL198      0.0019
     91  N         74.6380   -7.1740    6.2780 N.3   201  MET201     -0.1245
     92  CA        73.4500   -6.3190    6.6550 C.3   201  MET201      0.1570
     93  C         72.1790   -7.1730    6.7410 C.2   201  MET201      0.2261
     94  O         71.4370   -7.0520    7.7130 O.2   201  MET201     -0.2867
     95  CB        73.2430   -5.1050    5.7070 C.3   201  MET201      0.0387
     96  CG        74.1120   -3.8830    6.0850 C.3   201  MET201      0.0595
     97  SD        74.1830   -2.4170    4.9630 S.3   201  MET201     -0.1393
     98  CE        74.7080   -2.9920    3.3430 C.3   201  MET201      0.0692
     99  N         66.5530   -2.9510    4.3500 N.3   253  VAL253     -0.1231
    100  CA        67.8200   -2.5100    3.8990 C.3   253  VAL253      0.1692
    101  C         67.7350   -1.3150    2.9410 C.2   253  VAL253      0.2592
    102  O         68.4740   -0.3420    3.0810 O.2   253  VAL253     -0.2718
    103  CB        68.6060   -3.6980    3.3160 C.3   253  VAL253      0.0266
    104  CG1       69.8550   -3.2450    2.6310 C.3   253  VAL253      0.0020
    105  CG2       68.9270   -4.6420    4.4660 C.3   253  VAL253      0.0020
    106  N         66.8230   -1.3700    2.0160 N.am  254  ASP254     -0.1974
    107  CA        66.5480   -0.2200    1.1700 C.3   254  ASP254      0.1709
    108  C         66.3220    1.0360    2.0580 C.2   254  ASP254      0.2293
    109  O         66.8230    2.1100    1.7530 O.2   254  ASP254     -0.2864
    110  CB        65.3050   -0.4800    0.2970 C.3   254  ASP254      0.1436
    111  CG        65.5290   -1.5160   -0.8450 C.2   254  ASP254      0.3671
    112  OD1       66.7050   -1.9020   -1.1510 O.co2 254  ASP254     -0.2456
    113  OD2       64.5100   -1.9310   -1.4730 O.co2 254  ASP254     -0.2456
    114  N         69.5450    2.3610    3.9230 N.3   257  GLY257     -0.1210
    115  CA        70.4330    2.9570    3.0080 C.3   257  GLY257      0.1956
    116  C         69.8650    4.2780    2.5580 C.2   257  GLY257      0.2611
    117  O         70.4330    5.2980    2.9250 O.2   257  GLY257     -0.2717
    118  N         68.7710    4.2470    1.7650 N.am  258  ALA258     -0.1979
    119  CA        68.1810    5.4420    1.1740 C.3   258  ALA258      0.1597
    120  C         67.9270    6.5090    2.1910 C.2   258  ALA258      0.2287
    121  O         68.1240    7.6740    1.9330 O.2   258  ALA258     -0.2864
    122  CB        66.9140    5.1010    0.4560 C.3   258  ALA258      0.0319
    123  N         71.9070    8.0660    3.9500 N.3   261  GLU261     -0.1231
    124  CA        72.8370    8.8890    3.1510 C.3   261  GLU261      0.1699
    125  C         72.3550   10.1780    2.5390 C.2   261  GLU261      0.2592
    126  O         73.1100   11.1530    2.4280 O.2   261  GLU261     -0.2718
    127  CB        73.4340    8.0920    2.0000 C.3   261  GLU261      0.0402
    128  CG        74.7300    8.7070    1.4480 C.3   261  GLU261      0.1161
    129  CD        75.7580    8.9280    2.5400 C.2   261  GLU261      0.3649
    130  OE1       75.6980    8.1930    3.5580 O.co2 261  GLU261     -0.2457
    131  OE2       76.5970    9.8320    2.4070 O.co2 261  GLU261     -0.2457
    132  N         71.1170   10.1740    2.0480 N.am  262  THR262     -0.1953
    133  CA        70.6190   11.3300    1.3440 C.3   262  THR262      0.1897
    134  C         70.4670   12.4990    2.3220 C.2   262  THR262      0.2313
    135  O         70.9060   13.5480    2.0420 O.2   262  THR262     -0.2863
    136  CB        69.2750   11.0100    0.6840 C.3   262  THR262      0.1794
    137  OG1       68.6060   10.0920    1.4930 O.3   262  THR262     -0.2208
    138  CG2       69.4310   10.3930   -0.6310 C.3   262  THR262      0.0378
    139  N         70.4830   14.6630   -6.3780 N.3   323  LEU323     -0.1245
    140  CA        70.4720   13.6360   -7.3960 C.3   323  LEU323      0.1561
    141  C         70.0580   14.1770   -8.7430 C.2   323  LEU323      0.2260
    142  O         68.8750   14.1640   -9.1470 O.2   323  LEU323     -0.2867
    143  CB        69.6170   12.4670   -7.0060 C.3   323  LEU323      0.0270
    144  CG        70.0210   11.7780   -5.7320 C.3   323  LEU323      0.0019
    145  CD1       68.7620   11.1090   -5.2280 C.3   323  LEU323      0.0001
    146  CD2       71.1260   10.7490   -5.8830 C.3   323  LEU323      0.0001
    147  N         67.0780    8.5010   -9.8700 N.3   327  LEU327     -0.1245
    148  CA        67.5030    7.1510  -10.2550 C.3   327  LEU327      0.1561
    149  C         66.8100    6.7580  -11.5630 C.2   327  LEU327      0.2260
    150  O         65.7130    7.2090  -11.8410 O.2   327  LEU327     -0.2867
    151  CB        67.0940    6.1120   -9.1720 C.3   327  LEU327      0.0270
    152  CG        67.4960    6.3330   -7.6950 C.3   327  LEU327      0.0019
    153  CD1       66.9240    5.2520   -6.7820 C.3   327  LEU327      0.0001
    154  CD2       68.9970    6.3630   -7.5080 C.3   327  LEU327      0.0001
@<TRIPOS>BOND
     1   150   149    2
     2   149   148    1
     3   148   147    1
     4   148   151    1
     5     1     2    1
     6     9     7   ar
     7   151   152    1
     8   142   141    2
     9   141   140    1
    10     2     3    1
    11     2     5    1
    12     7     8   ar
    13     7     6    1
    14    36    35    2
    15     4     3    2
    16    71    70    2
    17     6     5    1
    18   152   154    1
    19   152   153    1
    20    35    34    1
    21    39    41   ar
    22    39    38   ar
    23    41    43   ar
    24   140   143    1
    25   140   139    1
    26    34    37    1
    27    34    33    1
    28    29    28    2
    29   143   144    1
    30    37    38    1
    31    70    69    1
    32    38    40   ar
    33    75    73    1
    34    43    42   ar
    35    69    72    1
    36    69    68    1
    37    28    33   am
    38    28    27    1
    39   146   144    1
    40    10    11    1
    41   144   145    1
    42    72    73    1
    43    40    42   ar
    44    73    74    1
    45    15    16    1
    46    83    81    1
    47    31    30    1
    48    17    18    2
    49    17    16    1
    50    27    30    1
    51    27    26    1
    52    11    14    1
    53    11    12    1
    54    12    13    2
    55    16    19    1
    56    19    20    1
    57    30    32    1
    58    81    80    1
    59    81    82    1
    60    80    77    1
    61    20    21    1
    62    63    62    2
    63    55    54    2
    64    77    76    1
    65    77    78    1
    66    62    61    1
    67    21    22    1
    68   113   111   ar
    69    22    23    2
    70    78    79    2
    71    23    24    1
    72    23    25    1
    73   112   111   ar
    74    54    60   am
    75    54    53    1
    76    61    60    1
    77    61    64    1
    78   111   110    1
    79   138   136    1
    80    90    88    1
    81    53    56    1
    82    53    52    1
    83    66    64    1
    84    89    88    1
    85    65    64    1
    86    65    67    1
    87    56    57    1
    88    88    85    1
    89   110   107    1
    90   122   119    1
    91    57    59   am
    92    57    58    2
    93   136   133    1
    94   136   137    1
    95   107   106    1
    96   107   108    1
    97   119   118    1
    98   119   120    1
    99   133   132    1
   100   133   134    1
   101   128   127    1
   102   128   129    1
   103   109   108    2
   104   118   116   am
   105    85    84    1
   106    85    86    1
   107   121   120    2
   108   127   124    1
   109   106   101   am
   110   135   134    2
   111   132   125   am
   112   131   129   ar
   113   126   125    2
   114   125   124    1
   115   129   130   ar
   116   116   117    2
   117   116   115    1
   118    47    46    2
   119    86    87    2
   120   104   103    1
   121   101   102    2
   122   101   100    1
   123   115   114    1
   124   124   123    1
   125   103   100    1
   126   103   105    1
   127    98    97    1
   128    51    49    1
   129    46    45    1
   130   100    99    1
   131    45    44    1
   132    45    48    1
   133    97    96    1
   134    49    48    1
   135    49    50    1
   136    95    96    1
   137    95    92    1
   138    91    92    1
   139    92    93    1
   140    93    94    2
