@<TRIPOS>MOLECULE
tmp/5a5jA01.pdb
 211 196 0 0 0
SMALL
GASTEIGER

@<TRIPOS>ATOM
      1  N         16.6790   13.2290    9.8570 N.3    74  GLU74      -0.1245
      2  CA        16.9710   12.5160    8.5620 C.3    74  GLU74       0.1567
      3  C         18.4820   12.5510    8.2360 C.2    74  GLU74       0.2260
      4  O         19.0020   13.6170    7.9200 O.2    74  GLU74      -0.2867
      5  CB        16.1420   13.0180    7.3410 C.3    74  GLU74       0.0388
      6  CG        14.6110   13.1660    7.4970 C.3    74  GLU74       0.1160
      7  CD        13.9640   12.2200    8.5090 C.2    74  GLU74       0.3649
      8  OE1       13.7040   11.0670    8.0950 O.co2  74  GLU74      -0.2457
      9  OE2       13.6950   12.6330    9.6880 O.co2  74  GLU74      -0.2457
     10  N         18.7610   16.6980    5.1970 N.3    78  ARG78      -0.1245
     11  CA        18.0520   17.6850    4.3910 C.3    78  ARG78       0.1563
     12  C         18.2560   19.1330    4.8830 C.2    78  ARG78       0.2260
     13  O         17.7020   20.0890    4.3050 O.2    78  ARG78      -0.2867
     14  CB        16.5620   17.3660    4.3890 C.3    78  ARG78       0.0307
     15  CG        16.1910   15.8870    4.2090 C.3    78  ARG78       0.0489
     16  CD        14.7230   15.6860    3.7790 C.3    78  ARG78       0.2205
     17  NE        13.9350   16.9430    3.8370 N.pl3  78  ARG78      -0.0865
     18  CZ        13.8780   17.9030    2.8720 C.cat  78  ARG78       0.5346
     19  NH1       14.5620   17.7920    1.7190 N.pl3  78  ARG78       0.1354
     20  NH2       13.1270   18.9960    3.0830 N.pl3  78  ARG78       0.1354
     21  N         14.6130   24.8220    4.0490 N.3    83  VAL83      -0.1231
     22  CA        13.4820   24.5730    4.9120 C.3    83  VAL83       0.1692
     23  C         14.0480   24.1400    6.2430 C.2    83  VAL83       0.2592
     24  O         13.6400   24.6030    7.2840 O.2    83  VAL83      -0.2718
     25  CB        12.5970   23.4350    4.3180 C.3    83  VAL83       0.0266
     26  CG1       11.5660   22.9240    5.3000 C.3    83  VAL83       0.0020
     27  CG2       11.9150   23.8570    3.0260 C.3    83  VAL83       0.0020
     28  N         15.0290   23.2500    6.1850 N.am   84  PHE84      -0.1976
     29  CA        15.5110   22.5830    7.3750 C.3    84  PHE84       0.1639
     30  C         16.9340   22.9320    7.7400 C.2    84  PHE84       0.2290
     31  O         17.5730   22.1970    8.4320 O.2    84  PHE84      -0.2864
     32  CB        15.3410   21.0780    7.1900 C.3    84  PHE84       0.0560
     33  CG        13.9160   20.6160    7.2600 C.ar   84  PHE84      -0.0200
     34  CD1       13.0320   21.1570    8.2040 C.ar   84  PHE84      -0.0042
     35  CD2       13.4590   19.6260    6.4020 C.ar   84  PHE84      -0.0042
     36  CE1       11.7070   20.7380    8.2800 C.ar   84  PHE84      -0.0003
     37  CE2       12.1440   19.1810    6.4640 C.ar   84  PHE84      -0.0003
     38  CZ        11.2530   19.7340    7.3960 C.ar   84  PHE84      -0.0000
     39  N          6.8640   12.7670   -5.5220 N.3   171  LEU171     -0.1245
     40  CA         6.3480   13.8570   -4.6890 C.3   171  LEU171      0.1561
     41  C          5.0360   13.4860   -4.0150 C.2   171  LEU171      0.2260
     42  O          4.8730   13.6930   -2.8260 O.2   171  LEU171     -0.2867
     43  CB         6.0930   15.0710   -5.5500 C.3   171  LEU171      0.0270
     44  CG         7.1880   16.1170   -5.5260 C.3   171  LEU171      0.0019
     45  CD1        6.8000   17.1810   -6.5650 C.3   171  LEU171      0.0001
     46  CD2        7.4240   16.7390   -4.1290 C.3   171  LEU171      0.0001
     47  N          5.5700   11.0750   -1.0370 N.3   174  ASN174     -0.1225
     48  CA         5.9790   11.8120    0.1430 C.3   174  ASN174      0.1785
     49  C          4.8050   12.6240    0.6990 C.2   174  ASN174      0.2597
     50  O          4.8080   13.0200    1.8490 O.2   174  ASN174     -0.2718
     51  CB         7.1640   12.7300   -0.1970 C.3   174  ASN174      0.1169
     52  CG         8.4290   11.9590   -0.6030 C.2   174  ASN174      0.2627
     53  OD1        8.4060   10.7740   -0.8430 O.2   174  ASN174     -0.2716
     54  ND2        9.5320   12.6540   -0.6600 N.am  174  ASN174     -0.0877
     55  N          3.8080   12.8780   -0.1410 N.am  175  ILE175     -0.1980
     56  CA         2.5960   13.5330    0.2920 C.3   175  ILE175      0.1595
     57  C          1.8130   12.5920    1.1090 C.2   175  ILE175      0.2287
     58  O          1.5580   12.9270    2.2530 O.2   175  ILE175     -0.2864
     59  CB         1.7410   13.9800   -0.8970 C.3   175  ILE175      0.0276
     60  CG1        2.3310   15.2770   -1.4900 C.3   175  ILE175      0.0022
     61  CG2        0.1690   14.0730   -0.5150 C.3   175  ILE175      0.0022
     62  CD1        3.4530   15.9180   -0.6220 C.3   175  ILE175      0.0001
     63  N          3.6240   12.1920    4.4310 N.3   178  LEU178     -0.1231
     64  CA         3.8060   13.2720    5.4340 C.3   178  LEU178      0.1693
     65  C          2.4760   13.8850    5.9430 C.2   178  LEU178      0.2592
     66  O          2.3960   14.3780    7.0620 O.2   178  LEU178     -0.2718
     67  CB         4.7320   14.3660    4.8910 C.3   178  LEU178      0.0284
     68  CG         6.1270   13.9540    4.3540 C.3   178  LEU178      0.0019
     69  CD1        6.6050   14.9010    3.2420 C.3   178  LEU178      0.0001
     70  CD2        7.2460   13.8740    5.4170 C.3   178  LEU178      0.0001
     71  N          1.4250   13.7650    5.1350 N.am  179  SER179     -0.1952
     72  CA         0.0930   14.2700    5.4620 C.3   179  SER179      0.1924
     73  C         -0.6570   13.2280    6.2850 C.2   179  SER179      0.2314
     74  O         -1.8910   13.2470    6.4050 O.2   179  SER179     -0.2863
     75  CB        -0.6470   14.6490    4.1690 C.3   179  SER179      0.2116
     76  OG        -1.1600   13.5340    3.4790 O.3   179  SER179     -0.2180
     77  N         10.5680    6.9700    2.0400 N.3   196  LEU196     -0.1245
     78  CA        10.8090    8.4030    2.1310 C.3   196  LEU196      0.1561
     79  C         12.2370    8.6710    1.7090 C.2   196  LEU196      0.2260
     80  O         12.4710    9.4570    0.7880 O.2   196  LEU196     -0.2867
     81  CB        10.5930    8.9310    3.5740 C.3   196  LEU196      0.0270
     82  CG         9.8120   10.2430    3.7830 C.3   196  LEU196      0.0019
     83  CD1        8.4610   10.1300    3.1360 C.3   196  LEU196      0.0001
     84  CD2        9.6400   10.6200    5.2610 C.3   196  LEU196      0.0001
     85  N         13.7880   10.6320   -1.6450 N.3   200  VAL200     -0.1245
     86  CA        14.6440   11.8010   -1.5670 C.3   200  VAL200      0.1561
     87  C         15.9340   11.5410   -2.3630 C.2   200  VAL200      0.2260
     88  O         16.3960   12.4320   -3.0720 O.2   200  VAL200     -0.2867
     89  CB        15.0240   12.1550   -0.0990 C.3   200  VAL200      0.0252
     90  CG1       15.9660   13.3590   -0.0590 C.3   200  VAL200      0.0019
     91  CG2       13.7750   12.3900    0.7690 C.3   200  VAL200      0.0019
     92  N         15.4690   11.9300   -5.9570 N.3   203  MET203     -0.1245
     93  CA        15.2840   13.3010   -6.3140 C.3   203  MET203      0.1570
     94  C         16.5920   14.0010   -6.4240 C.2   203  MET203      0.2261
     95  O         16.8480   14.5850   -7.4600 O.2   203  MET203     -0.2867
     96  CB        14.4410   13.9640   -5.2710 C.3   203  MET203      0.0387
     97  CG        13.0670   13.3910   -5.2710 C.3   203  MET203      0.0595
     98  SD        11.8920   14.4550   -6.0760 S.3   203  MET203     -0.1393
     99  CE        10.7870   14.6720   -4.5470 C.3   203  MET203      0.0692
    100  N         15.6220   20.4570   -4.1590 N.3   255  VAL255     -0.1245
    101  CA        14.7220   19.4890   -3.6490 C.3   255  VAL255      0.1561
    102  C         13.7650   20.2500   -2.7680 C.2   255  VAL255      0.2260
    103  O         12.5400   20.0360   -2.7790 O.2   255  VAL255     -0.2867
    104  CB        15.5160   18.4110   -2.9240 C.3   255  VAL255      0.0252
    105  CG1       14.8130   17.8550   -1.6950 C.3   255  VAL255      0.0019
    106  CG2       15.7900   17.2550   -3.8960 C.3   255  VAL255      0.0019
    107  N         11.0420   22.1780   -4.8800 N.3   258  PHE258     -0.1227
    108  CA         9.9270   21.3190   -5.2880 C.3   258  PHE258      0.1736
    109  C          9.0400   20.9380   -4.1640 C.2   258  PHE258      0.2596
    110  O          7.8460   20.8660   -4.3280 O.2   258  PHE258     -0.2718
    111  CB        10.4100   19.9860   -5.8570 C.3   258  PHE258      0.0547
    112  CG        10.9040   20.0810   -7.2280 C.ar  258  PHE258     -0.0202
    113  CD1       10.0490   20.4660   -8.2330 C.ar  258  PHE258     -0.0042
    114  CD2       12.2230   19.8390   -7.4970 C.ar  258  PHE258     -0.0042
    115  CE1       10.4670   20.5820   -9.5050 C.ar  258  PHE258     -0.0003
    116  CE2       12.6890   19.9570   -8.7820 C.ar  258  PHE258     -0.0003
    117  CZ        11.7900   20.3200   -9.8110 C.ar  258  PHE258     -0.0000
    118  N          9.6300   20.6360   -3.0280 N.am  259  GLY259     -0.1942
    119  CA         8.8570   20.1860   -1.8890 C.3   259  GLY259      0.2014
    120  C          7.9330   21.2510   -1.4090 C.2   259  GLY259      0.2638
    121  O          6.7320   21.0970   -1.4400 O.2   259  GLY259     -0.2714
    122  N          8.5000   22.3790   -1.0310 N.am  260  ALA260     -0.1977
    123  CA         7.7000   23.4910   -0.5520 C.3   260  ALA260      0.1597
    124  C          6.7530   24.0020   -1.6130 C.2   260  ALA260      0.2287
    125  O          5.6280   24.3810   -1.2910 O.2   260  ALA260     -0.2864
    126  CB         8.5760   24.6280   -0.0240 C.3   260  ALA260      0.0319
    127  N          5.2690   22.8110   -4.3790 N.3   262  THR262     -0.1203
    128  CA         4.2090   22.1490   -5.1390 C.3   262  THR262      0.1994
    129  C          2.8710   21.9140   -4.4390 C.2   262  THR262      0.2618
    130  O          1.8540   22.3650   -4.9400 O.2   262  THR262     -0.2717
    131  CB         4.6940   20.8720   -5.6940 C.3   262  THR262      0.1784
    132  OG1        5.8590   21.1540   -6.4550 O.3   262  THR262     -0.2211
    133  CG2        3.6530   20.3720   -6.7150 C.3   262  THR262      0.0376
    134  N          2.8410   21.1760   -3.3370 N.am  263  GLU263     -0.1965
    135  CA         1.5790   20.6840   -2.8370 C.3   263  GLU263      0.1733
    136  C          0.8520   21.8170   -2.1050 C.2   263  GLU263      0.2617
    137  O         -0.3510   21.8980   -2.1390 O.2   263  GLU263     -0.2715
    138  CB         1.8270   19.4590   -1.9570 C.3   263  GLU263      0.0429
    139  CG         0.5760   18.6830   -1.5420 C.3   263  GLU263      0.1163
    140  CD        -0.2620   18.2420   -2.7200 C.2   263  GLU263      0.3649
    141  OE1        0.3670   17.9950   -3.7260 O.co2 263  GLU263     -0.2457
    142  OE2       -1.5100   18.1670   -2.6710 O.co2 263  GLU263     -0.2457
    143  N          1.6070   22.6990   -1.4670 N.am  264  THR264     -0.1951
    144  CA         1.0280   23.8780   -0.8730 C.3   264  THR264      0.1897
    145  C          0.2580   24.6680   -1.9290 C.2   264  THR264      0.2313
    146  O         -0.8640   25.1590   -1.6930 O.2   264  THR264     -0.2863
    147  CB         2.1150   24.7770   -0.2910 C.3   264  THR264      0.1794
    148  OG1        3.3100   24.6100   -1.0600 O.3   264  THR264     -0.2208
    149  CG2        2.5510   24.3600    1.1100 C.3   264  THR264      0.0378
    150  N         -2.6820   22.2490   -3.5780 N.3   267  THR267     -0.1218
    151  CA        -3.7240   22.0980   -2.5380 C.3   267  THR267      0.1862
    152  C         -4.6260   23.3100   -2.4630 C.2   267  THR267      0.2287
    153  O         -5.8180   23.1950   -2.3240 O.2   267  THR267     -0.2866
    154  CB        -3.1060   21.9240   -1.1420 C.3   267  THR267      0.1770
    155  OG1       -2.1840   20.8240   -1.1370 O.3   267  THR267     -0.2211
    156  CG2       -4.2070   21.5670   -0.1130 C.3   267  THR267      0.0375
    157  N         -4.3930   26.5730    5.1030 N.3   324  LEU324     -0.1231
    158  CA        -3.4840   25.5250    4.6050 C.3   324  LEU324      0.1693
    159  C         -2.5630   24.8440    5.6380 C.2   324  LEU324      0.2591
    160  O         -2.4600   23.6310    5.6930 O.2   324  LEU324     -0.2718
    161  CB        -2.6010   26.1060    3.5350 C.3   324  LEU324      0.0284
    162  CG        -1.7360   25.0930    2.8070 C.3   324  LEU324      0.0019
    163  CD1       -2.6610   24.1380    1.9470 C.3   324  LEU324      0.0001
    164  CD2       -0.6130   25.7880    1.9440 C.3   324  LEU324      0.0001
    165  N         -1.9030   25.6540    6.4420 N.am  325  LEU325     -0.1980
    166  CA        -0.8720   25.2040    7.3310 C.3   325  LEU325      0.1596
    167  C         -1.1180   25.8260    8.6860 C.2   325  LEU325      0.2287
    168  O         -0.5200   26.8480    9.0120 O.2   325  LEU325     -0.2864
    169  CB         0.4880   25.6280    6.7770 C.3   325  LEU325      0.0297
    170  CG         0.9810   24.7640    5.6240 C.3   325  LEU325      0.0022
    171  CD1        2.4700   24.9090    5.5110 C.3   325  LEU325      0.0001
    172  CD2        0.6620   23.2690    5.7460 C.3   325  LEU325      0.0001
    173  N          5.4480   25.8840    9.6980 N.3   329  LEU329     -0.1245
    174  CA         6.4060   24.8860   10.1020 C.3   329  LEU329      0.1561
    175  C          6.9250   25.3310   11.4930 C.2   329  LEU329      0.2260
    176  O          6.7220   26.4740   11.9060 O.2   329  LEU329     -0.2867
    177  CB         7.5310   24.7310    9.0400 C.3   329  LEU329      0.0270
    178  CG         7.2190   24.7400    7.5220 C.3   329  LEU329      0.0019
    179  CD1        8.4110   24.3260    6.7540 C.3   329  LEU329      0.0001
    180  CD2        6.0240   23.8940    7.0690 C.3   329  LEU329      0.0001
    181  N         -5.5010   15.4440    8.2940 N.3   437  ASN437     -0.1240
    182  CA        -4.1450   15.5090    7.7790 C.3   437  ASN437      0.1653
    183  C         -3.0860   15.8260    8.8270 C.2   437  ASN437      0.2266
    184  O         -3.3060   16.5590    9.7830 O.2   437  ASN437     -0.2867
    185  CB        -4.0820   16.6070    6.7550 C.3   437  ASN437      0.1155
    186  CG        -2.9780   16.4350    5.7960 C.2   437  ASN437      0.2627
    187  OD1       -1.8330   16.7740    6.0670 O.2   437  ASN437     -0.2716
    188  ND2       -3.3090   15.9270    4.6450 N.am  437  ASN437     -0.0877
    189  N         -0.0310   17.5430    8.3810 N.3   439  PHE439     -0.1227
    190  CA         0.3210   18.9530    8.6310 C.3   439  PHE439      0.1736
    191  C         -0.3880   20.0740    7.8800 C.2   439  PHE439      0.2595
    192  O         -0.0380   21.2650    8.1000 O.2   439  PHE439     -0.2718
    193  CB         1.8700   19.1800    8.8500 C.3   439  PHE439      0.0547
    194  CG         2.6850   19.3710    7.5980 C.ar  439  PHE439     -0.0202
    195  CD1        2.1840   19.0630    6.3300 C.ar  439  PHE439     -0.0042
    196  CD2        4.0110   19.8480    7.7190 C.ar  439  PHE439     -0.0042
    197  CE1        2.9660   19.2650    5.2050 C.ar  439  PHE439     -0.0003
    198  CE2        4.8100   20.0290    6.5850 C.ar  439  PHE439     -0.0003
    199  CZ         4.2780   19.7300    5.3200 C.ar  439  PHE439     -0.0000
    200  N         -1.4620   19.7130    7.1620 N.am  440  ALA440     -0.1980
    201  CA        -2.1840   20.6740    6.3050 C.3   440  ALA440      0.1597
    202  C         -3.6870   20.5170    6.1340 C.2   440  ALA440      0.2287
    203  O         -4.2150   19.4470    6.1100 O.2   440  ALA440     -0.2864
    204  CB        -1.5430   20.6850    4.9160 C.3   440  ALA440      0.0319
    205  N         -6.3120   20.0790    3.9050 N.3   442  VAL442     -0.1245
    206  CA        -6.5650   19.5730    2.5360 C.3   442  VAL442      0.1561
    207  C         -8.0620   19.3940    2.2480 C.2   442  VAL442      0.2260
    208  O         -8.8250   18.9910    3.1120 O.2   442  VAL442     -0.2867
    209  CB        -5.8620   18.2070    2.3750 C.3   442  VAL442      0.0252
    210  CG1       -6.4300   17.4050    1.2170 C.3   442  VAL442      0.0019
    211  CG2       -4.3320   18.4130    2.2400 C.3   442  VAL442      0.0019
@<TRIPOS>BOND
     1   117   115   ar
     2   117   116   ar
     3   115   113   ar
     4   116   114   ar
     5   113   112   ar
     6   114   112   ar
     7    95    94    2
     8   112   111    1
     9   133   131    1
    10    45    44    1
    11   132   131    1
    12    94    93    1
    13    93    92    1
    14    93    96    1
    15    98    97    1
    16    98    99    1
    17   111   108    1
    18   131   128    1
    19    43    44    1
    20    43    40    1
    21    44    46    1
    22    39    40    1
    23   108   107    1
    24   108   109    1
    25    97    96    1
    26   128   129    1
    27   128   127    1
    28   130   129    2
    29    40    41    1
    30   129   134   am
    31   110   109    2
    32   109   118   am
    33   100   101    1
    34    41    42    2
    35   106   104    1
    36   141   140   ar
    37   101   104    1
    38   101   102    1
    39   150   151    1
    40   134   135    1
    41    88    87    2
    42   118   119    1
    43   104   105    1
    44   135   136    1
    45   135   138    1
    46   103   102    2
    47   140   142   ar
    48   140   139    1
    49   151   152    1
    50   151   154    1
    51   152   153    2
    52    87    86    1
    53   137   136    2
    54   136   143   am
    55   138   139    1
    56   145   146    2
    57   145   144    1
    58   119   120    1
    59    85    86    1
    60   124   125    2
    61   124   123    1
    62    86    89    1
    63    60    59    1
    64    60    62    1
    65   143   144    1
    66   121   120    2
    67   120   122   am
    68   154   155    1
    69   154   156    1
    70   148   147    1
    71    47    48    1
    72   122   123    1
    73    59    61    1
    74    59    56    1
    75   144   147    1
    76    53    52    2
    77    54    52   am
    78    52    51    1
    79   123   126    1
    80   147   149    1
    81    51    48    1
    82    55    56    1
    83    55    49   am
    84    89    90    1
    85    89    91    1
    86    48    49    1
    87    56    57    1
    88    49    50    2
    89    80    79    2
    90    57    58    2
    91   210   209    1
    92    79    78    1
    93    19    18    1
    94   164   162    1
    95   163   162    1
    96    77    78    1
    97    78    81    1
    98   211   209    1
    99   207   206    1
   100   207   208    2
   101   209   206    1
   102   206   205    1
   103   162   161    1
   104    18    20    1
   105    18    17    2
   106    27    25    1
   107    83    82    1
   108    69    68    1
   109    76    75    1
   110   161   158    1
   111    81    82    1
   112    16    17    1
   113    16    15    1
   114    82    84    1
   115    21    22    1
   116    75    72    1
   117    15    14    1
   118    13    12    2
   119    25    22    1
   120    25    26    1
   121    68    67    1
   122    68    70    1
   123    14    11    1
   124    11    12    1
   125    11    10    1
   126    63    64    1
   127   158   157    1
   128   158   159    1
   129   188   186   am
   130    67    64    1
   131    22    23    1
   132   204   201    1
   133    71    72    1
   134    71    65   am
   135   197   199   ar
   136   197   195   ar
   137   199   198   ar
   138    64    65    1
   139    72    73    1
   140   171   170    1
   141   170   172    1
   142   170   169    1
   143   159   160    2
   144   159   165   am
   145   186   187    2
   146   186   185    1
   147    65    66    2
   148   203   202    2
   149   202   201    1
   150    28    23   am
   151    28    29    1
   152    23    24    2
   153    73    74    2
   154   201   200    1
   155   195   194   ar
   156    35    37   ar
   157    35    33   ar
   158   165   166    1
   159    37    38   ar
   160   198   196   ar
   161   179   178    1
   162   185   182    1
   163   169   166    1
   164   180   178    1
   165   200   191   am
   166    32    33    1
   167    32    29    1
   168    33    34   ar
   169   166   167    1
   170     5     6    1
   171     5     2    1
   172    29    30    1
   173    38    36   ar
   174     6     7    1
   175   178   177    1
   176   194   196   ar
   177   194   193    1
   178    30    31    2
   179   182   181    1
   180   182   183    1
   181   191   192    2
   182   191   190    1
   183     4     3    2
   184     8     7   ar
   185    34    36   ar
   186     3     2    1
   187   189   190    1
   188     7     9   ar
   189     2     1    1
   190   190   193    1
   191   167   168    2
   192   183   184    2
   193   177   174    1
   194   173   174    1
   195   174   175    1
   196   175   176    2
