@<TRIPOS>MOLECULE
tmp/5a5lA00.pdb
 141 130 0 0 0
SMALL
GASTEIGER

@<TRIPOS>ATOM
      1  N         -1.1310  -28.4000   35.0330 N.3    98  ASP98      -0.1239
      2  CA         0.1670  -28.3430   35.6840 C.3    98  ASP98       0.1674
      3  C          0.0420  -27.4870   36.9460 C.2    98  ASP98       0.2266
      4  O          0.3060  -26.2810   36.9250 O.2    98  ASP98      -0.2867
      5  CB         1.2350  -27.7960   34.7480 C.3    98  ASP98       0.1410
      6  CG         2.6340  -28.2200   35.1610 C.2    98  ASP98       0.3668
      7  OD1        2.9300  -28.1770   36.3710 O.co2  98  ASP98      -0.2456
      8  OD2        3.4260  -28.6020   34.2760 O.co2  98  ASP98      -0.2456
      9  N          3.8000  -25.2840   37.7420 N.3   101  GLU101     -0.1231
     10  CA         4.6640  -25.3140   36.5640 C.3   101  GLU101      0.1699
     11  C          6.0040  -24.7300   36.9490 C.2   101  GLU101      0.2593
     12  O          6.1450  -23.5120   37.0280 O.2   101  GLU101     -0.2718
     13  CB         4.0430  -24.5220   35.4080 C.3   101  GLU101      0.0402
     14  CG         4.3150  -25.0650   34.0180 C.3   101  GLU101      0.1161
     15  CD         5.7580  -24.9070   33.5740 C.2   101  GLU101      0.3649
     16  OE1        6.1720  -23.7780   33.2310 O.co2 101  GLU101     -0.2457
     17  OE2        6.4790  -25.9190   33.5520 O.co2 101  GLU101     -0.2457
     18  N          6.9850  -25.5930   37.1900 N.am  102  GLY102     -0.1942
     19  CA         8.2630  -25.1640   37.7230 C.3   102  GLY102      0.2014
     20  C          8.3730  -25.3090   39.2370 C.2   102  GLY102      0.2639
     21  O          8.6500  -24.3300   39.9390 O.2   102  GLY102     -0.2714
     22  N          8.1780  -26.5320   39.7350 N.am  103  THR103     -0.1950
     23  CA         8.2960  -26.8360   41.1620 C.3   103  THR103      0.1897
     24  C          9.6530  -26.4380   41.7680 C.2   103  THR103      0.2313
     25  O          9.7210  -25.9950   42.9220 O.2   103  THR103     -0.2863
     26  CB         8.0700  -28.3470   41.4360 C.3   103  THR103      0.1794
     27  OG1        9.0750  -29.1210   40.7610 O.3   103  THR103     -0.2208
     28  CG2        6.6800  -28.7970   40.9800 C.3   103  THR103      0.0378
     29  N         10.0500  -35.2070   25.4130 N.3   132  TYR132     -0.1241
     30  CA        10.5030  -33.8510   25.1320 C.3   132  TYR132      0.1605
     31  C          9.8190  -33.3430   23.8700 C.2   132  TYR132      0.2264
     32  O          9.2200  -34.1240   23.1280 O.2   132  TYR132     -0.2867
     33  CB        12.0300  -33.7910   24.9830 C.3   132  TYR132      0.0534
     34  CG        12.7550  -34.0040   26.2840 C.ar  132  TYR132     -0.0201
     35  CD1       12.9960  -32.9440   27.1510 C.ar  132  TYR132     -0.0009
     36  CD2       13.1730  -35.2690   26.6670 C.ar  132  TYR132     -0.0009
     37  CE1       13.6530  -33.1330   28.3540 C.ar  132  TYR132      0.0417
     38  CE2       13.8300  -35.4710   27.8700 C.ar  132  TYR132      0.0417
     39  CZ        14.0680  -34.3990   28.7120 C.ar  132  TYR132      0.1957
     40  OH        14.7210  -34.6060   29.9080 O.3   132  TYR132     -0.2866
     41  N          9.7820  -26.6590   20.6010 N.3   135  LYS135     -0.1245
     42  CA         8.7090  -25.6600   20.6200 C.3   135  LYS135      0.1561
     43  C          9.1010  -24.3500   19.9400 C.2   135  LYS135      0.2260
     44  O         10.2300  -23.8670   20.1080 O.2   135  LYS135     -0.2867
     45  CB         8.2880  -25.3480   22.0640 C.3   135  LYS135      0.0271
     46  CG         7.9630  -26.5640   22.9040 C.3   135  LYS135      0.0035
     47  CD         7.6890  -26.1990   24.3630 C.3   135  LYS135      0.0206
     48  CE         7.4550  -27.4670   25.1890 C.3   135  LYS135      0.1093
     49  NZ         7.3660  -27.1800   26.6430 N.3   135  LYS135     -0.1314
     50  N         15.8420  -22.3440   27.3320 N.3   175  MET175     -0.1245
     51  CA        16.1150  -23.0830   28.5370 C.3   175  MET175      0.1570
     52  C         17.6110  -23.3500   28.6720 C.2   175  MET175      0.2261
     53  O         18.2310  -23.7820   27.7040 O.2   175  MET175     -0.2867
     54  CB        15.3430  -24.3870   28.4740 C.3   175  MET175      0.0387
     55  CG        15.0090  -24.9500   29.7800 C.3   175  MET175      0.0595
     56  SD        13.2490  -25.2550   29.9300 S.3   175  MET175     -0.1393
     57  CE        13.3840  -25.6930   31.6330 C.3   175  MET175      0.0692
     58  N         20.3090  -25.5020   29.1170 N.3   177  ARG177     -0.1245
     59  CA        20.5170  -26.9360   29.0590 C.3   177  ARG177      0.1563
     60  C         21.6410  -27.2020   28.0600 C.2   177  ARG177      0.2260
     61  O         21.7930  -26.4620   27.0890 O.2   177  ARG177     -0.2867
     62  CB        19.2360  -27.6650   28.6300 C.3   177  ARG177      0.0307
     63  CG        18.0440  -27.5560   29.5790 C.3   177  ARG177      0.0489
     64  CD        18.3090  -28.3100   30.8730 C.3   177  ARG177      0.2205
     65  NE        17.1030  -28.5160   31.6660 N.pl3 177  ARG177     -0.0865
     66  CZ        16.5730  -27.5980   32.4720 C.cat 177  ARG177      0.5346
     67  NH1       17.1320  -26.3960   32.5660 N.pl3 177  ARG177      0.1354
     68  NH2       15.4800  -27.8760   33.1780 N.pl3 177  ARG177      0.1354
     69  N         21.7410  -29.3020   25.8170 N.3   179  ARG179     -0.1245
     70  CA        21.1210  -29.5610   24.5150 C.3   179  ARG179      0.1563
     71  C         20.9850  -28.3010   23.6530 C.2   179  ARG179      0.2260
     72  O         20.7140  -28.3920   22.4550 O.2   179  ARG179     -0.2867
     73  CB        19.7310  -30.1910   24.7010 C.3   179  ARG179      0.0307
     74  CG        18.6760  -29.2040   25.1820 C.3   179  ARG179      0.0489
     75  CD        17.2790  -29.8250   25.3770 C.3   179  ARG179      0.2205
     76  NE        17.1650  -30.4640   26.6730 N.pl3 179  ARG179     -0.0865
     77  CZ        16.2570  -30.1620   27.5970 C.cat 179  ARG179      0.5346
     78  NH1       15.3360  -29.2340   27.3790 N.pl3 179  ARG179      0.1354
     79  NH2       16.2620  -30.8190   28.7430 N.pl3 179  ARG179      0.1354
     80  N         13.9420  -23.2280   34.5110 N.3   199  ASP199     -0.1225
     81  CA        12.7090  -24.0150   34.4040 C.3   199  ASP199      0.1805
     82  C         11.5530  -23.1160   33.9710 C.2   199  ASP199      0.2598
     83  O         11.6790  -21.9020   33.9420 O.2   199  ASP199     -0.2718
     84  CB        12.3570  -24.7040   35.7300 C.3   199  ASP199      0.1424
     85  CG        13.0770  -26.0400   35.9240 C.2   199  ASP199      0.3668
     86  OD1       13.0920  -26.8660   34.9750 O.co2 199  ASP199     -0.2456
     87  OD2       13.6200  -26.2630   37.0380 O.co2 199  ASP199     -0.2456
     88  N         10.4250  -23.7180   33.6350 N.am  200  GLY200     -0.1942
     89  CA         9.2000  -22.9630   33.4330 C.3   200  GLY200      0.2014
     90  C          9.0140  -22.3430   32.0610 C.2   200  GLY200      0.2638
     91  O          8.8800  -21.1300   31.9450 O.2   200  GLY200     -0.2714
     92  N          8.9760  -23.1590   31.0140 N.am  201  ASP201     -0.1971
     93  CA         8.8200  -22.5870   29.6900 C.3   201  ASP201      0.1709
     94  C          7.3460  -22.3130   29.3230 C.2   201  ASP201      0.2293
     95  O          7.0720  -21.7930   28.2500 O.2   201  ASP201     -0.2864
     96  CB         9.4980  -23.4830   28.6340 C.3   201  ASP201      0.1436
     97  CG         8.8090  -24.8230   28.4400 C.2   201  ASP201      0.3671
     98  OD1        7.8840  -25.1820   29.1890 O.co2 201  ASP201     -0.2456
     99  OD2        9.2150  -25.5370   27.5160 O.co2 201  ASP201     -0.2456
    100  N         13.8460  -26.9940   23.1730 N.3   221  ILE221     -0.1231
    101  CA        13.1940  -28.2470   23.4880 C.3   221  ILE221      0.1692
    102  C         12.7400  -28.2770   24.9340 C.2   221  ILE221      0.2593
    103  O         13.5390  -28.1220   25.8530 O.2   221  ILE221     -0.2718
    104  CB        14.1380  -29.4290   23.2040 C.3   221  ILE221      0.0266
    105  CG1       14.2970  -29.6020   21.6910 C.3   221  ILE221      0.0019
    106  CG2       13.6210  -30.7020   23.8460 C.3   221  ILE221      0.0020
    107  CD1       15.5960  -30.2530   21.2960 C.3   221  ILE221      0.0001
    108  N         11.4420  -28.4540   25.1230 N.am  222  GLY222     -0.1942
    109  CA        10.8760  -28.5110   26.4520 C.3   222  GLY222      0.2014
    110  C         10.1310  -29.8160   26.6380 C.2   222  GLY222      0.2638
    111  O         10.3560  -30.7730   25.9080 O.2   222  GLY222     -0.2714
    112  N          9.2470  -29.8590   27.6240 N.am  223  ALA223     -0.1977
    113  CA         8.4880  -31.0690   27.8910 C.3   223  ALA223      0.1597
    114  C          7.1870  -31.0260   27.0860 C.2   223  ALA223      0.2287
    115  O          6.5620  -29.9700   26.9700 O.2   223  ALA223     -0.2864
    116  CB         8.2200  -31.2060   29.3870 C.3   223  ALA223      0.0319
    117  N          3.4710  -29.9610   28.8320 N.3   226  GLU226     -0.1245
    118  CA         3.5110  -28.5280   29.0660 C.3   226  GLU226      0.1567
    119  C          3.3740  -27.7330   27.7500 C.2   226  GLU226      0.2260
    120  O          2.8000  -26.6450   27.7340 O.2   226  GLU226     -0.2867
    121  CB         4.8110  -28.1600   29.7970 C.3   226  GLU226      0.0388
    122  CG         4.8530  -28.5540   31.2860 C.3   226  GLU226      0.1160
    123  CD         5.0870  -30.0500   31.5500 C.2   226  GLU226      0.3649
    124  OE1        5.2370  -30.8300   30.5910 O.co2 226  GLU226     -0.2457
    125  OE2        5.1230  -30.4480   32.7370 O.co2 226  GLU226     -0.2457
    126  N         20.0410  -35.6580   28.6050 N.3   254  THR254     -0.1218
    127  CA        19.7030  -35.5520   30.0240 C.3   254  THR254      0.1862
    128  C         19.9350  -36.8650   30.7590 C.2   254  THR254      0.2287
    129  O         20.0940  -37.9190   30.1440 O.2   254  THR254     -0.2866
    130  CB        18.2380  -35.1150   30.2390 C.3   254  THR254      0.1770
    131  OG1       17.3500  -36.0890   29.6750 O.3   254  THR254     -0.2211
    132  CG2       17.9860  -33.7640   29.5900 C.3   254  THR254      0.0375
    133  N         17.7110  -38.0930   32.7180 N.3   256  GLU256     -0.1245
    134  CA        16.4180  -38.7640   32.6650 C.3   256  GLU256      0.1567
    135  C         16.3700  -39.7770   31.5280 C.2   256  GLU256      0.2260
    136  O         15.6570  -40.7770   31.6040 O.2   256  GLU256     -0.2867
    137  CB        15.2870  -37.7520   32.5020 C.3   256  GLU256      0.0388
    138  CG        14.8650  -37.0600   33.7890 C.3   256  GLU256      0.1160
    139  CD        15.5340  -35.7140   33.9830 C.2   256  GLU256      0.3649
    140  OE1       16.2640  -35.2640   33.0720 O.co2 256  GLU256     -0.2457
    141  OE2       15.3200  -35.1030   35.0500 O.co2 256  GLU256     -0.2457
@<TRIPOS>BOND
     1    43    44    2
     2    43    42    1
     3    41    42    1
     4    42    45    1
     5   107   105    1
     6   105   104    1
     7    45    46    1
     8    72    71    2
     9    46    47    1
    10    32    31    2
    11   100   101    1
    12   104   101    1
    13   104   106    1
    14   101   102    1
    15    71    70    1
    16    31    30    1
    17    47    48    1
    18    70    73    1
    19    70    69    1
    20    73    74    1
    21   102   108   am
    22   102   103    2
    23    33    30    1
    24    33    34    1
    25   108   109    1
    26    30    29    1
    27    74    75    1
    28    48    49    1
    29    75    76    1
    30   111   110    2
    31    34    36   ar
    32    34    35   ar
    33   109   110    1
    34   110   112   am
    35    36    38   ar
    36    76    77    2
    37   115   114    2
    38   114   113    1
    39    61    60    2
    40    35    37   ar
    41    50    51    1
    42    78    77    1
    43    99    97   ar
    44    77    79    1
    45   112   113    1
    46    53    52    2
    47   120   119    2
    48   119   118    1
    49    38    39   ar
    50   113   116    1
    51    60    59    1
    52    95    94    2
    53    37    39   ar
    54    97    96    1
    55    97    98   ar
    56    54    51    1
    57    54    55    1
    58    51    52    1
    59   126   127    1
    60    62    59    1
    61    62    63    1
    62    96    93    1
    63    39    40    1
    64   117   118    1
    65    59    58    1
    66   118   121    1
    67    94    93    1
    68    63    64    1
    69   132   130    1
    70   131   130    1
    71    93    92    1
    72    55    56    1
    73   121   122    1
    74    56    57    1
    75   127   130    1
    76   127   128    1
    77   129   128    2
    78   124   123   ar
    79    64    65    1
    80    92    90   am
    81   122   123    1
    82   135   136    2
    83   135   134    1
    84   123   125   ar
    85    65    66    2
    86    91    90    2
    87    90    89    1
    88    66    67    1
    89    66    68    1
    90   137   134    1
    91   137   138    1
    92   134   133    1
    93   140   139   ar
    94    16    15   ar
    95    89    88    1
    96    17    15   ar
    97    15    14    1
    98    88    82   am
    99   138   139    1
   100    83    82    2
   101    82    81    1
   102   139   141   ar
   103    14    13    1
   104     8     6   ar
   105    81    80    1
   106    81    84    1
   107     5     6    1
   108     5     2    1
   109    86    85   ar
   110     1     2    1
   111     6     7   ar
   112    13    10    1
   113     2     3    1
   114    84    85    1
   115    85    87   ar
   116    10    11    1
   117    10     9    1
   118     4     3    2
   119    11    12    2
   120    11    18   am
   121    18    19    1
   122    19    20    1
   123    20    22   am
   124    20    21    2
   125    22    23    1
   126    27    26    1
   127    28    26    1
   128    23    26    1
   129    23    24    1
   130    24    25    2
