@<TRIPOS>MOLECULE
tmp/5a5nA00.pdb
 94 90 0 0 0
SMALL
GASTEIGER

@<TRIPOS>ATOM
      1  N        -25.5610   44.7980    2.7400 N.3    30  VAL30      -0.1231
      2  CA       -25.4390   45.1090    4.1630 C.3    30  VAL30       0.1692
      3  C        -23.9830   45.2030    4.6460 C.2    30  VAL30       0.2592
      4  O        -23.7090   45.8610    5.6520 O.2    30  VAL30      -0.2718
      5  CB       -26.2120   44.0770    5.0180 C.3    30  VAL30       0.0266
      6  CG1      -25.5870   42.6950    4.8950 C.3    30  VAL30       0.0020
      7  CG2      -26.2880   44.5160    6.4720 C.3    30  VAL30       0.0020
      8  N        -23.0600   44.5580    3.9330 N.am   31  PHE31      -0.1976
      9  CA       -21.6370   44.5680    4.3000 C.3    31  PHE31       0.1639
     10  C        -20.7950   45.5940    3.5240 C.2    31  PHE31       0.2290
     11  O        -19.5780   45.6390    3.6970 O.2    31  PHE31      -0.2864
     12  CB       -21.0400   43.1640    4.1100 C.3    31  PHE31       0.0560
     13  CG       -21.8190   42.0750    4.7990 C.ar   31  PHE31      -0.0200
     14  CD1      -21.9420   42.0570    6.1840 C.ar   31  PHE31      -0.0042
     15  CD2      -22.4320   41.0670    4.0640 C.ar   31  PHE31      -0.0042
     16  CE1      -22.6700   41.0650    6.8210 C.ar   31  PHE31      -0.0003
     17  CE2      -23.1600   40.0680    4.6980 C.ar   31  PHE31      -0.0003
     18  CZ       -23.2800   40.0670    6.0770 C.ar   31  PHE31      -0.0000
     19  N        -21.4940   49.9330    9.6300 N.3    35  VAL35      -0.1245
     20  CA       -22.7320   50.1410   10.3730 C.3    35  VAL35       0.1561
     21  C        -22.7280   51.5920   10.8620 C.2    35  VAL35       0.2260
     22  O        -21.7500   52.0430   11.4580 O.2    35  VAL35      -0.2867
     23  CB       -22.8600   49.1720   11.5670 C.3    35  VAL35       0.0252
     24  CG1      -24.0500   49.5460   12.4410 C.3    35  VAL35       0.0019
     25  CG2      -22.9940   47.7390   11.0750 C.3    35  VAL35       0.0019
     26  N        -27.1460   55.6110   13.6550 N.3    39  GLU39      -0.1231
     27  CA       -28.3480   54.7800   13.5190 C.3    39  GLU39       0.1699
     28  C        -28.3300   53.5660   14.4510 C.2    39  GLU39       0.2592
     29  O        -29.3820   53.1330   14.9220 O.2    39  GLU39      -0.2718
     30  CB       -28.5140   54.3040   12.0740 C.3    39  GLU39       0.0402
     31  CG       -28.6680   55.4290   11.0590 C.3    39  GLU39       0.1161
     32  CD       -28.7020   54.9330    9.6230 C.2    39  GLU39       0.3649
     33  OE1      -28.6820   53.7020    9.4020 O.co2  39  GLU39      -0.2457
     34  OE2      -28.7480   55.7820    8.7060 O.co2  39  GLU39      -0.2457
     35  N        -27.1420   53.0130   14.6990 N.am   40  VAL40      -0.1980
     36  CA       -26.9800   51.8680   15.6020 C.3    40  VAL40       0.1595
     37  C        -25.9250   52.1950   16.6640 C.2    40  VAL40       0.2287
     38  O        -24.7680   51.8030   16.5270 O.2    40  VAL40      -0.2864
     39  CB       -26.5690   50.5890   14.8380 C.3    40  VAL40       0.0276
     40  CG1      -26.6480   49.3780   15.7550 C.3    40  VAL40       0.0022
     41  CG2      -27.4480   50.3860   13.6140 C.3    40  VAL40       0.0022
     42  N        -25.2320   51.1340   19.7730 N.3    42  ASP42      -0.1225
     43  CA       -24.5700   50.0830   20.5590 C.3    42  ASP42       0.1805
     44  C        -23.6920   49.1270   19.7370 C.2    42  ASP42       0.2597
     45  O        -23.0960   48.2070   20.3020 O.2    42  ASP42      -0.2718
     46  CB       -25.5900   49.2850   21.3870 C.3    42  ASP42       0.1424
     47  CG       -26.4980   48.4250   20.5350 C.2    42  ASP42       0.3668
     48  OD1      -27.2030   48.9850   19.6680 O.co2  42  ASP42      -0.2456
     49  OD2      -26.5150   47.1900   20.7410 O.co2  42  ASP42      -0.2456
     50  N        -23.5950   49.3380   18.4240 N.am   43  TYR43      -0.1976
     51  CA       -22.7390   48.4870   17.5950 C.3    43  TYR43       0.1639
     52  C        -21.2780   48.6320   18.0060 C.2    43  TYR43       0.2290
     53  O        -20.6070   47.6380   18.2860 O.2    43  TYR43      -0.2864
     54  CB       -22.8890   48.8040   16.1050 C.3    43  TYR43       0.0560
     55  CG       -22.2610   47.7440   15.2300 C.ar   43  TYR43      -0.0198
     56  CD1      -22.9470   46.5680   14.9360 C.ar   43  TYR43      -0.0009
     57  CD2      -20.9720   47.8980   14.7230 C.ar   43  TYR43      -0.0009
     58  CE1      -22.3780   45.5850   14.1480 C.ar   43  TYR43       0.0417
     59  CE2      -20.3930   46.9170   13.9300 C.ar   43  TYR43       0.0417
     60  CZ       -21.1000   45.7660   13.6470 C.ar   43  TYR43       0.1957
     61  OH       -20.5410   44.7810   12.8720 O.3    43  TYR43      -0.2866
     62  N        -20.8880   39.6960   12.1740 N.3    82  ALA82      -0.1245
     63  CA       -22.3120   39.5060   11.8770 C.3    82  ALA82       0.1562
     64  C        -22.9350   38.4040   12.7300 C.2    82  ALA82       0.2260
     65  O        -24.0520   38.5540   13.2270 O.2    82  ALA82      -0.2867
     66  CB       -22.5150   39.1970   10.3940 C.3    82  ALA82       0.0290
     67  N        -22.9950   39.8310   16.4880 N.3    85  TYR85      -0.1227
     68  CA       -23.9620   40.8910   16.7570 C.3    85  TYR85       0.1736
     69  C        -25.4160   40.4750   16.5070 C.2    85  TYR85       0.2595
     70  O        -26.3280   41.0570   17.0910 O.2    85  TYR85      -0.2718
     71  CB       -23.6370   42.1460   15.9480 C.3    85  TYR85       0.0548
     72  CG       -24.3890   43.3640   16.4340 C.ar   85  TYR85      -0.0200
     73  CD1      -23.9920   44.0340   17.5910 C.ar   85  TYR85      -0.0009
     74  CD2      -25.5130   43.8320   15.7570 C.ar   85  TYR85      -0.0009
     75  CE1      -24.6820   45.1430   18.0510 C.ar   85  TYR85       0.0417
     76  CE2      -26.2110   44.9410   16.2100 C.ar   85  TYR85       0.0417
     77  CZ       -25.7900   45.5930   17.3570 C.ar   85  TYR85       0.1957
     78  OH       -26.4770   46.6960   17.8120 O.3    85  TYR85      -0.2866
     79  N        -25.6220   39.4720   15.6550 N.am   86  ASN86      -0.1974
     80  CA       -26.9600   39.0180   15.2720 C.3    86  ASN86       0.1688
     81  C        -27.1420   37.5100   15.5120 C.2    86  ASN86       0.2292
     82  O        -27.3110   36.7500   14.5630 O.2    86  ASN86      -0.2864
     83  CB       -27.2090   39.3490   13.7880 C.3    86  ASN86       0.1181
     84  CG       -26.8140   40.7730   13.4290 C.2    86  ASN86       0.2629
     85  OD1      -27.5820   41.7130   13.6300 O.2    86  ASN86      -0.2716
     86  ND2      -25.6100   40.9370   12.8880 N.am   86  ASN86      -0.0877
     87  N        -29.1300   37.7110    7.9910 N.3    96  ILE96      -0.1245
     88  CA       -27.8090   38.3430    7.9550 C.3    96  ILE96       0.1561
     89  C        -26.6990   37.3150    8.1950 C.2    96  ILE96       0.2260
     90  O        -25.6520   37.3870    7.5540 O.2    96  ILE96      -0.2867
     91  CB       -27.6800   39.5530    8.9180 C.3    96  ILE96       0.0252
     92  CG1      -26.4440   40.3870    8.5570 C.3    96  ILE96       0.0019
     93  CG2      -27.6020   39.1040   10.3680 C.3    96  ILE96       0.0019
     94  CD1      -26.4070   41.7520    9.2140 C.3    96  ILE96       0.0001
@<TRIPOS>BOND
     1     1     2    1
     2    10    11    2
     3    10     9    1
     4     8     9    1
     5     8     3   am
     6    15    17   ar
     7    15    13   ar
     8    12     9    1
     9    12    13    1
    10     2     3    1
    11     2     5    1
    12     3     4    2
    13    17    18   ar
    14    13    14   ar
    15     6     5    1
    16     5     7    1
    17    18    16   ar
    18    14    16   ar
    19    90    89    2
    20    88    87    1
    21    88    89    1
    22    88    91    1
    23    92    91    1
    24    92    94    1
    25    34    32   ar
    26    91    93    1
    27    33    32   ar
    28    32    31    1
    29    19    20    1
    30    20    21    1
    31    20    23    1
    32    66    63    1
    33    21    22    2
    34    31    30    1
    35    25    23    1
    36    23    24    1
    37    63    62    1
    38    63    64    1
    39    30    27    1
    40    64    65    2
    41    61    60    1
    42    86    84   am
    43    84    85    2
    44    84    83    1
    45    27    26    1
    46    27    28    1
    47    41    39    1
    48    60    59   ar
    49    60    58   ar
    50    83    80    1
    51    59    57   ar
    52    58    56   ar
    53    28    35   am
    54    28    29    2
    55    82    81    2
    56    35    36    1
    57    57    55   ar
    58    39    36    1
    59    39    40    1
    60    56    55   ar
    61    55    54    1
    62    80    81    1
    63    80    79    1
    64    36    37    1
    65    79    69   am
    66    74    76   ar
    67    74    72   ar
    68    71    72    1
    69    71    68    1
    70    54    51    1
    71    76    77   ar
    72    72    73   ar
    73    67    68    1
    74    69    68    1
    75    69    70    2
    76    38    37    2
    77    77    78    1
    78    77    75   ar
    79    73    75   ar
    80    51    52    1
    81    51    50    1
    82    52    53    2
    83    50    44   am
    84    48    47   ar
    85    44    45    2
    86    44    43    1
    87    42    43    1
    88    47    49   ar
    89    47    46    1
    90    43    46    1
