@<TRIPOS>MOLECULE
tmp/5a5oA00.pdb
 95 90 0 0 0
SMALL
GASTEIGER

@<TRIPOS>ATOM
      1  N        -25.4100   45.0300    3.1240 N.3    30  VAL30      -0.1231
      2  CA       -25.2610   45.3390    4.5500 C.3    30  VAL30       0.1692
      3  C        -23.7920   45.3710    5.0100 C.2    30  VAL30       0.2592
      4  O        -23.4720   46.0220    6.0020 O.2    30  VAL30      -0.2718
      5  CB       -26.0780   44.3520    5.4280 C.3    30  VAL30       0.0266
      6  CG1      -25.5290   42.9350    5.3210 C.3    30  VAL30       0.0020
      7  CG2      -26.1130   44.8050    6.8800 C.3    30  VAL30       0.0020
      8  N        -22.9080   44.6840    4.2850 N.am   31  PHE31      -0.1976
      9  CA       -21.4810   44.6450    4.6270 C.3    31  PHE31       0.1639
     10  C        -20.6300   45.6700    3.8590 C.2    31  PHE31       0.2290
     11  O        -19.4110   45.6870    4.0110 O.2    31  PHE31      -0.2864
     12  CB       -20.9170   43.2360    4.3920 C.3    31  PHE31       0.0560
     13  CG       -21.7420   42.1350    5.0110 C.ar   31  PHE31      -0.0200
     14  CD1      -21.9290   42.0760    6.3860 C.ar   31  PHE31      -0.0042
     15  CD2      -22.3310   41.1560    4.2150 C.ar   31  PHE31      -0.0042
     16  CE1      -22.6980   41.0710    6.9550 C.ar   31  PHE31      -0.0003
     17  CE2      -23.0930   40.1450    4.7810 C.ar   31  PHE31      -0.0003
     18  CZ       -23.2760   40.1030    6.1520 C.ar   31  PHE31      -0.0000
     19  N        -20.7190   49.1170    3.9280 N.3    33  LYS33      -0.1245
     20  CA       -20.3910   50.3500    4.6450 C.3    33  LYS33       0.1561
     21  C        -20.3680   50.0640    6.1440 C.2    33  LYS33       0.2260
     22  O        -21.0030   49.1140    6.5990 O.2    33  LYS33      -0.2867
     23  CB       -21.4280   51.4440    4.3500 C.3    33  LYS33       0.0271
     24  CG       -21.6950   51.7110    2.8740 C.3    33  LYS33       0.0035
     25  CD       -20.5530   52.4500    2.1840 C.3    33  LYS33       0.0206
     26  CE       -20.7580   53.9580    2.1940 C.3    33  LYS33       0.1093
     27  NZ       -19.7690   54.6540    1.3230 N.3    33  LYS33      -0.1314
     28  N        -21.3900   50.3210   10.0780 N.3    35  VAL35      -0.1245
     29  CA       -22.7060   50.4440   10.7100 C.3    35  VAL35       0.1561
     30  C        -22.9050   51.8680   11.2380 C.2    35  VAL35       0.2260
     31  O        -22.0320   52.4110   11.9170 O.2    35  VAL35      -0.2867
     32  CB       -22.8840   49.4330   11.8660 C.3    35  VAL35       0.0252
     33  CG1      -24.2730   49.5530   12.4740 C.3    35  VAL35       0.0019
     34  CG2      -22.6460   48.0110   11.3780 C.3    35  VAL35       0.0019
     35  N        -28.3200   54.5790   13.6590 N.3    39  GLU39      -0.1231
     36  CA       -29.1990   53.4410   13.3960 C.3    39  GLU39       0.1699
     37  C        -28.9880   52.3390   14.4330 C.2    39  GLU39       0.2592
     38  O        -29.9530   51.8060   14.9840 O.2    39  GLU39      -0.2718
     39  CB       -28.9550   52.8780   11.9930 C.3    39  GLU39       0.0402
     40  CG       -29.1800   53.8680   10.8560 C.3    39  GLU39       0.1161
     41  CD       -30.6100   54.3660   10.7660 C.2    39  GLU39       0.3649
     42  OE1      -31.5440   53.5600   10.9670 O.co2  39  GLU39      -0.2457
     43  OE2      -30.8030   55.5670   10.4840 O.co2  39  GLU39      -0.2457
     44  N        -27.7230   52.0040   14.6850 N.am   40  VAL40      -0.1980
     45  CA       -27.3590   50.9680   15.6520 C.3    40  VAL40       0.1595
     46  C        -26.3470   51.5340   16.6590 C.2    40  VAL40       0.2287
     47  O        -25.1380   51.4760   16.4270 O.2    40  VAL40      -0.2864
     48  CB       -26.7690   49.7310   14.9440 C.3    40  VAL40       0.0276
     49  CG1      -26.6570   48.5710   15.9160 C.3    40  VAL40       0.0022
     50  CG2      -27.6260   49.3330   13.7500 C.3    40  VAL40       0.0022
     51  N        -23.6890   49.0160   18.5610 N.3    43  TYR43      -0.1241
     52  CA       -22.7940   48.1990   17.7310 C.3    43  TYR43       0.1605
     53  C        -21.3370   48.4200   18.1220 C.2    43  TYR43       0.2264
     54  O        -20.6180   47.4600   18.3970 O.2    43  TYR43      -0.2867
     55  CB       -22.9770   48.4820   16.2330 C.3    43  TYR43       0.0534
     56  CG       -22.2720   47.4640   15.3580 C.ar   43  TYR43      -0.0201
     57  CD1      -22.8950   46.2690   15.0110 C.ar   43  TYR43      -0.0009
     58  CD2      -20.9740   47.6840   14.9030 C.ar   43  TYR43      -0.0009
     59  CE1      -22.2540   45.3260   14.2240 C.ar   43  TYR43       0.0417
     60  CE2      -20.3210   46.7470   14.1130 C.ar   43  TYR43       0.0417
     61  CZ       -20.9650   45.5700   13.7770 C.ar   43  TYR43       0.1957
     62  OH       -20.3290   44.6300   13.0020 O.3    43  TYR43      -0.2866
     63  N        -20.7170   39.6430   12.1830 N.3    82  ALA82      -0.1245
     64  CA       -22.1380   39.4680   11.8710 C.3    82  ALA82       0.1562
     65  C        -22.7570   38.3100   12.6520 C.2    82  ALA82       0.2260
     66  O        -23.8800   38.4270   13.1410 O.2    82  ALA82      -0.2867
     67  CB       -22.3460   39.2630   10.3690 C.3    82  ALA82       0.0290
     68  N        -22.8700   39.5710   16.4140 N.3    85  TYR85      -0.1227
     69  CA       -23.8410   40.6260   16.6970 C.3    85  TYR85       0.1736
     70  C        -25.2960   40.2180   16.4170 C.2    85  TYR85       0.2595
     71  O        -26.2160   40.7900   16.9990 O.2    85  TYR85      -0.2718
     72  CB       -23.5010   41.9070   15.9280 C.3    85  TYR85       0.0548
     73  CG       -24.3440   43.0790   16.3730 C.ar   85  TYR85      -0.0200
     74  CD1      -24.0690   43.7420   17.5660 C.ar   85  TYR85      -0.0009
     75  CD2      -25.4420   43.4970   15.6270 C.ar   85  TYR85      -0.0009
     76  CE1      -24.8490   44.8060   17.9900 C.ar   85  TYR85       0.0417
     77  CE2      -26.2290   44.5580   16.0440 C.ar   85  TYR85       0.0417
     78  CZ       -25.9280   45.2070   17.2260 C.ar   85  TYR85       0.1957
     79  OH       -26.7050   46.2590   17.6460 O.3    85  TYR85      -0.2866
     80  N        -25.5000   39.2330   15.5420 N.am   86  ASN86      -0.1974
     81  CA       -26.8480   38.7960   15.1510 C.3    86  ASN86       0.1688
     82  C        -27.0210   37.2940   15.3780 C.2    86  ASN86       0.2292
     83  O        -27.1500   36.5360   14.4180 O.2    86  ASN86      -0.2864
     84  CB       -27.1040   39.1340   13.6740 C.3    86  ASN86       0.1181
     85  CG       -26.6840   40.5480   13.3130 C.2    86  ASN86       0.2629
     86  OD1      -27.4440   41.4970   13.4790 O.2    86  ASN86      -0.2716
     87  ND2      -25.4630   40.6900   12.8070 N.am   86  ASN86      -0.0877
     88  N        -29.1000   37.6670    7.8900 N.3    96  ILE96      -0.1245
     89  CA       -27.7840   38.3160    7.9080 C.3    96  ILE96       0.1561
     90  C        -26.6580   37.3020    8.1420 C.2    96  ILE96       0.2260
     91  O        -25.6130   37.4050    7.5120 O.2    96  ILE96      -0.2867
     92  CB       -27.6970   39.4930    8.9140 C.3    96  ILE96       0.0252
     93  CG1      -26.4120   40.2970    8.6790 C.3    96  ILE96       0.0019
     94  CG2      -27.7390   39.0000   10.3500 C.3    96  ILE96       0.0019
     95  CD1      -26.3660   41.6180    9.4190 C.3    96  ILE96       0.0001
@<TRIPOS>BOND
     1    27    26    1
     2    25    26    1
     3    25    24    1
     4    24    23    1
     5     1     2    1
     6    10    11    2
     7    10     9    1
     8    19    20    1
     9    15    17   ar
    10    15    13   ar
    11     8     9    1
    12     8     3   am
    13    23    20    1
    14    12     9    1
    15    12    13    1
    16     2     3    1
    17     2     5    1
    18    20    21    1
    19    17    18   ar
    20     3     4    2
    21    13    14   ar
    22     6     5    1
    23     5     7    1
    24    21    22    2
    25    18    16   ar
    26    14    16   ar
    27    91    90    2
    28    88    89    1
    29    89    90    1
    30    89    92    1
    31    93    92    1
    32    93    95    1
    33    92    94    1
    34    28    29    1
    35    67    64    1
    36    43    41   ar
    37    29    30    1
    38    29    32    1
    39    41    40    1
    40    41    42   ar
    41    40    39    1
    42    30    31    2
    43    34    32    1
    44    32    33    1
    45    64    63    1
    46    64    65    1
    47    39    36    1
    48    65    66    2
    49    87    85   am
    50    62    61    1
    51    85    86    2
    52    85    84    1
    53    36    35    1
    54    36    37    1
    55    84    81    1
    56    50    48    1
    57    61    60   ar
    58    61    59   ar
    59    60    58   ar
    60    59    57   ar
    61    83    82    2
    62    37    44   am
    63    37    38    2
    64    44    45    1
    65    58    56   ar
    66    48    45    1
    67    48    49    1
    68    57    56   ar
    69    81    82    1
    70    81    80    1
    71    56    55    1
    72    80    70   am
    73    75    77   ar
    74    75    73   ar
    75    45    46    1
    76    72    73    1
    77    72    69    1
    78    77    78   ar
    79    55    52    1
    80    73    74   ar
    81    68    69    1
    82    70    69    1
    83    70    71    2
    84    47    46    2
    85    78    79    1
    86    78    76   ar
    87    74    76   ar
    88    52    53    1
    89    52    51    1
    90    53    54    2
