@<TRIPOS>MOLECULE
tmp/5a5pA00.pdb
 122 117 0 0 0
SMALL
GASTEIGER

@<TRIPOS>ATOM
      1  N        -25.3760   44.9850    3.1160 N.3    30  VAL30      -0.1231
      2  CA       -25.2180   45.2970    4.5370 C.3    30  VAL30       0.1692
      3  C        -23.7490   45.3040    4.9920 C.2    30  VAL30       0.2592
      4  O        -23.4140   45.9470    5.9880 O.2    30  VAL30      -0.2718
      5  CB       -26.0410   44.3300    5.4200 C.3    30  VAL30       0.0266
      6  CG1      -25.5000   42.9090    5.3260 C.3    30  VAL30       0.0020
      7  CG2      -26.0630   44.8100    6.8640 C.3    30  VAL30       0.0020
      8  N        -22.8740   44.6120    4.2590 N.am   31  PHE31      -0.1976
      9  CA       -21.4510   44.5550    4.6120 C.3    31  PHE31       0.1639
     10  C        -20.5990   45.5780    3.8520 C.2    31  PHE31       0.2290
     11  O        -19.3810   45.5840    3.9980 O.2    31  PHE31      -0.2864
     12  CB       -20.8950   43.1470    4.3670 C.3    31  PHE31       0.0560
     13  CG       -21.7280   42.0530    4.9750 C.ar   31  PHE31      -0.0200
     14  CD1      -21.9400   42.0090    6.3440 C.ar   31  PHE31      -0.0042
     15  CD2      -22.3070   41.0710    4.1760 C.ar   31  PHE31      -0.0042
     16  CE1      -22.7220   41.0140    6.9090 C.ar   31  PHE31      -0.0003
     17  CE2      -23.0800   40.0680    4.7340 C.ar   31  PHE31      -0.0003
     18  CZ       -23.2910   40.0400    6.1030 C.ar   31  PHE31      -0.0000
     19  N        -20.6310   49.0020    3.9570 N.3    33  LYS33      -0.1245
     20  CA       -20.2940   50.2400    4.6630 C.3    33  LYS33       0.1561
     21  C        -20.2760   50.0100    6.1710 C.2    33  LYS33       0.2260
     22  O        -20.8940   49.0620    6.6600 O.2    33  LYS33      -0.2867
     23  CB       -21.3120   51.3390    4.3310 C.3    33  LYS33       0.0271
     24  CG       -21.2950   51.8120    2.8840 C.3    33  LYS33       0.0035
     25  CD       -20.0980   52.7020    2.5860 C.3    33  LYS33       0.0206
     26  CE       -19.9390   52.9440    1.0910 C.3    33  LYS33       0.1093
     27  NZ       -18.6300   53.5730    0.7580 N.3    33  LYS33      -0.1314
     28  N        -21.3440   50.3700   10.0580 N.3    35  VAL35      -0.1245
     29  CA       -22.6510   50.4970   10.6950 C.3    35  VAL35       0.1561
     30  C        -22.8110   51.9120   11.2520 C.2    35  VAL35       0.2260
     31  O        -21.9620   52.3830   12.0120 O.2    35  VAL35      -0.2867
     32  CB       -22.8200   49.4710   11.8370 C.3    35  VAL35       0.0252
     33  CG1      -24.1490   49.6680   12.5460 C.3    35  VAL35       0.0019
     34  CG2      -22.7070   48.0510   11.2980 C.3    35  VAL35       0.0019
     35  N        -28.1890   54.8610   13.7990 N.3    39  GLU39      -0.1231
     36  CA       -29.1600   53.7950   13.5560 C.3    39  GLU39       0.1699
     37  C        -28.9850   52.6360   14.5380 C.2    39  GLU39       0.2592
     38  O        -29.9640   52.1420   15.1000 O.2    39  GLU39      -0.2718
     39  CB       -29.0380   53.2840   12.1200 C.3    39  GLU39       0.0402
     40  CG       -29.4980   54.2840   11.0690 C.3    39  GLU39       0.1161
     41  CD       -29.0520   53.9270    9.6600 C.2    39  GLU39       0.3649
     42  OE1      -28.4310   52.8580    9.4680 O.co2  39  GLU39      -0.2457
     43  OE2      -29.3230   54.7220    8.7360 O.co2  39  GLU39      -0.2457
     44  N        -27.7380   52.2100   14.7340 N.am   40  VAL40      -0.1980
     45  CA       -27.4130   51.0980   15.6290 C.3    40  VAL40       0.1595
     46  C        -26.3460   51.5310   16.6440 C.2    40  VAL40       0.2287
     47  O        -25.1500   51.3630   16.4000 O.2    40  VAL40      -0.2864
     48  CB       -26.9130   49.8760   14.8310 C.3    40  VAL40       0.0276
     49  CG1      -26.6640   48.6990   15.7570 C.3    40  VAL40       0.0022
     50  CG2      -27.9170   49.4950   13.7530 C.3    40  VAL40       0.0022
     51  N        -23.7580   48.7550   18.4680 N.3    43  TYR43      -0.1241
     52  CA       -22.8470   47.9410   17.6510 C.3    43  TYR43       0.1605
     53  C        -21.4060   48.1110   18.1190 C.2    43  TYR43       0.2264
     54  O        -20.7240   47.1250   18.4000 O.2    43  TYR43      -0.2867
     55  CB       -22.9620   48.2830   16.1590 C.3    43  TYR43       0.0534
     56  CG       -22.2840   47.2670   15.2570 C.ar   43  TYR43      -0.0201
     57  CD1      -22.9490   46.1110   14.8600 C.ar   43  TYR43      -0.0009
     58  CD2      -20.9760   47.4570   14.8120 C.ar   43  TYR43      -0.0009
     59  CE1      -22.3390   45.1750   14.0430 C.ar   43  TYR43       0.0417
     60  CE2      -20.3520   46.5240   13.9920 C.ar   43  TYR43       0.0417
     61  CZ       -21.0430   45.3850   13.6110 C.ar   43  TYR43       0.1957
     62  OH       -20.4460   44.4490   12.8090 O.3    43  TYR43      -0.2866
     63  N        -20.7570   39.4210   12.2120 N.3    82  ALA82      -0.1245
     64  CA       -22.1850   39.2390   11.9180 C.3    82  ALA82       0.1562
     65  C        -22.7870   38.0770   12.7040 C.2    82  ALA82       0.2260
     66  O        -23.9210   38.1690   13.1770 O.2    82  ALA82      -0.2867
     67  CB       -22.4110   39.0330   10.4220 C.3    82  ALA82       0.0290
     68  N        -22.9750   39.4440   16.4190 N.3    85  TYR85      -0.1227
     69  CA       -23.9540   40.5000   16.6630 C.3    85  TYR85       0.1736
     70  C        -25.3960   40.0850   16.3540 C.2    85  TYR85       0.2595
     71  O        -26.3310   40.6780   16.8860 O.2    85  TYR85      -0.2718
     72  CB       -23.5990   41.7590   15.8640 C.3    85  TYR85       0.0548
     73  CG       -24.4710   42.9410   16.2210 C.ar   85  TYR85      -0.0200
     74  CD1      -24.2940   43.6190   17.4240 C.ar   85  TYR85      -0.0009
     75  CD2      -25.4920   43.3620   15.3740 C.ar   85  TYR85      -0.0009
     76  CE1      -25.0990   44.6930   17.7660 C.ar   85  TYR85       0.0417
     77  CE2      -26.3030   44.4330   15.7100 C.ar   85  TYR85       0.0417
     78  CZ       -26.1010   45.0930   16.9050 C.ar   85  TYR85       0.1957
     79  OH       -26.9040   46.1570   17.2370 O.3    85  TYR85      -0.2866
     80  N        -25.5750   39.0700   15.5110 N.am   86  ASN86      -0.1961
     81  CA       -26.9100   38.6200   15.1030 C.3    86  ASN86       0.1804
     82  C        -27.0950   37.1280   15.3790 C.2    86  ASN86       0.2463
     83  O        -27.2680   36.3490   14.4500 O.2    86  ASN86      -0.2730
     84  CB       -27.1280   38.8910   13.6070 C.3    86  ASN86       0.1195
     85  CG       -26.6990   40.2840   13.1920 C.2    86  ASN86       0.2630
     86  OD1      -27.4710   41.2350   13.2770 O.2    86  ASN86      -0.2716
     87  ND2      -25.4590   40.4070   12.7260 N.am   86  ASN86      -0.0877
     88  N        -27.0690   36.7240   16.6610 N.am   87  PRO87      -0.2716
     89  CA       -27.0660   35.3040   17.0040 C.3    87  PRO87       0.1536
     90  C        -28.4500   34.6650   17.1540 C.2    87  PRO87       0.2598
     91  O        -28.5380   33.4540   17.3590 O.2    87  PRO87      -0.2715
     92  CB       -26.3650   35.3030   18.3600 C.3    87  PRO87       0.0310
     93  CG       -26.8420   36.5670   18.9940 C.3    87  PRO87       0.0237
     94  CD       -27.0450   37.5620   17.8750 C.3    87  PRO87       0.0939
     95  N        -29.5140   35.4550   17.0560 N.am   88  ASP88      -0.1972
     96  CA       -30.8550   34.9650   17.3850 C.3    88  ASP88       0.1709
     97  C        -31.4660   34.0930   16.3000 C.2    88  ASP88       0.2293
     98  O        -31.0060   34.0800   15.1530 O.2    88  ASP88      -0.2864
     99  CB       -31.7980   36.1310   17.6740 C.3    88  ASP88       0.1436
    100  CG       -31.3770   36.9360   18.8870 C.2    88  ASP88       0.3671
    101  OD1      -30.3500   36.5930   19.5170 O.co2  88  ASP88      -0.2456
    102  OD2      -32.0820   37.9120   19.2170 O.co2  88  ASP88      -0.2456
    103  N        -34.6240   37.9290   10.7640 N.3    92  GLY92      -0.1210
    104  CA       -33.7000   39.0260   10.4810 C.3    92  GLY92       0.1956
    105  C        -32.2570   38.6340   10.7630 C.2    92  GLY92       0.2611
    106  O        -31.3740   38.8280    9.9220 O.2    92  GLY92      -0.2717
    107  N        -32.0310   38.0650   11.9460 N.am   93  ASP93      -0.1973
    108  CA       -30.7140   37.5780   12.3490 C.3    93  ASP93       0.1709
    109  C        -30.2320   36.4120   11.4870 C.2    93  ASP93       0.2293
    110  O        -29.0680   36.3820   11.0960 O.2    93  ASP93      -0.2864
    111  CB       -30.7110   37.1580   13.8270 C.3    93  ASP93       0.1436
    112  CG       -30.5880   38.3380   14.7730 C.2    93  ASP93       0.3671
    113  OD1      -31.0160   39.4580   14.4160 O.co2  93  ASP93      -0.2456
    114  OD2      -30.0500   38.1410   15.8830 O.co2  93  ASP93      -0.2456
    115  N        -29.0170   37.6350    7.8990 N.3    96  ILE96      -0.1245
    116  CA       -27.7050   38.2770    7.8770 C.3    96  ILE96       0.1561
    117  C        -26.5840   37.2590    8.1120 C.2    96  ILE96       0.2260
    118  O        -25.5530   37.3290    7.4460 O.2    96  ILE96      -0.2867
    119  CB       -27.6030   39.4730    8.8530 C.3    96  ILE96       0.0252
    120  CG1      -26.3260   40.2720    8.5710 C.3    96  ILE96       0.0019
    121  CG2      -27.6460   39.0120   10.3000 C.3    96  ILE96       0.0019
    122  CD1      -26.3140   41.6500    9.1930 C.3    96  ILE96       0.0001
@<TRIPOS>BOND
     1    27    26    1
     2    26    25    1
     3    25    24    1
     4    24    23    1
     5     1     2    1
     6    10    11    2
     7    10     9    1
     8    19    20    1
     9    15    17   ar
    10    15    13   ar
    11     8     9    1
    12     8     3   am
    13    23    20    1
    14    12     9    1
    15    12    13    1
    16     2     3    1
    17     2     5    1
    18    20    21    1
    19    17    18   ar
    20    13    14   ar
    21     3     4    2
    22     6     5    1
    23     5     7    1
    24    18    16   ar
    25    21    22    2
    26    14    16   ar
    27   118   117    2
    28   116   115    1
    29   116   117    1
    30   116   119    1
    31   120   119    1
    32   120   122    1
    33    43    41   ar
    34   119   121    1
    35    42    41   ar
    36    41    40    1
    37   106   105    2
    38    28    29    1
    39    67    64    1
    40   104   105    1
    41   104   103    1
    42    29    30    1
    43    29    32    1
    44   105   107   am
    45    40    39    1
    46   110   109    2
    47    30    31    2
    48    34    32    1
    49   109   108    1
    50    32    33    1
    51    64    63    1
    52    64    65    1
    53   107   108    1
    54    39    36    1
    55   108   111    1
    56    65    66    2
    57    87    85   am
    58    62    61    1
    59    85    86    2
    60    85    84    1
    61    36    35    1
    62    36    37    1
    63    84    81    1
    64    61    60   ar
    65    61    59   ar
    66    50    48    1
    67   111   112    1
    68    60    58   ar
    69    59    57   ar
    70   113   112   ar
    71    83    82    2
    72    37    44   am
    73    37    38    2
    74    44    45    1
    75   112   114   ar
    76    58    56   ar
    77    48    45    1
    78    48    49    1
    79    57    56   ar
    80    81    82    1
    81    81    80    1
    82    98    97    2
    83    56    55    1
    84    75    77   ar
    85    75    73   ar
    86    82    88   am
    87    80    70   am
    88    45    46    1
    89    77    78   ar
    90    72    73    1
    91    72    69    1
    92    55    52    1
    93    73    74   ar
    94    97    96    1
    95    70    69    1
    96    70    71    2
    97    47    46    2
    98    68    69    1
    99    88    89    1
   100    88    94    1
   101    78    79    1
   102    78    76   ar
   103    89    90    1
   104    89    92    1
   105    95    90   am
   106    95    96    1
   107    90    91    2
   108    96    99    1
   109    74    76   ar
   110    52    53    1
   111    52    51    1
   112    99   100    1
   113    94    93    1
   114    53    54    2
   115    92    93    1
   116   100   102   ar
   117   100   101   ar
