@<TRIPOS>MOLECULE
tmp/5a5qA00.pdb
 114 107 0 0 0
SMALL
GASTEIGER

@<TRIPOS>ATOM
      1  N        -25.4110   44.8200    3.1430 N.3    30  VAL30      -0.1231
      2  CA       -25.2740   45.0520    4.5830 C.3    30  VAL30       0.1692
      3  C        -23.8050   45.1200    5.0490 C.2    30  VAL30       0.2592
      4  O        -23.5120   45.7240    6.0770 O.2    30  VAL30      -0.2718
      5  CB       -26.0580   43.9820    5.3960 C.3    30  VAL30       0.0266
      6  CG1      -25.4360   42.6000    5.2410 C.3    30  VAL30       0.0020
      7  CG2      -26.1540   44.3680    6.8620 C.3    30  VAL30       0.0020
      8  N        -22.8880   44.5300    4.2830 N.am   31  PHE31      -0.1976
      9  CA       -21.4590   44.5420    4.6360 C.3    31  PHE31       0.1639
     10  C        -20.6260   45.5760    3.8600 C.2    31  PHE31       0.2290
     11  O        -19.4040   45.6140    4.0000 O.2    31  PHE31      -0.2864
     12  CB       -20.8620   43.1460    4.4360 C.3    31  PHE31       0.0560
     13  CG       -21.6710   42.0420    5.0630 C.ar   31  PHE31      -0.0200
     14  CD1      -21.8760   42.0040    6.4350 C.ar   31  PHE31      -0.0042
     15  CD2      -22.2220   41.0360    4.2800 C.ar   31  PHE31      -0.0042
     16  CE1      -22.6200   40.9900    7.0150 C.ar   31  PHE31      -0.0003
     17  CE2      -22.9640   40.0160    4.8540 C.ar   31  PHE31      -0.0003
     18  CZ       -23.1670   39.9940    6.2210 C.ar   31  PHE31      -0.0000
     19  N        -21.4310   50.0450   10.0850 N.3    35  VAL35      -0.1245
     20  CA       -22.7550   50.0330   10.6990 C.3    35  VAL35       0.1561
     21  C        -23.1090   51.4420   11.1780 C.2    35  VAL35       0.2260
     22  O        -22.2900   52.1100   11.8070 O.2    35  VAL35      -0.2867
     23  CB       -22.8210   49.0560   11.8910 C.3    35  VAL35       0.0252
     24  CG1      -24.1780   49.1340   12.5670 C.3    35  VAL35       0.0019
     25  CG2      -22.5370   47.6320   11.4340 C.3    35  VAL35       0.0019
     26  N        -28.7170   53.9860   13.5790 N.3    39  GLU39      -0.1231
     27  CA       -29.5750   52.8110   13.4300 C.3    39  GLU39       0.1699
     28  C        -29.3620   51.8260   14.5800 C.2    39  GLU39       0.2592
     29  O        -30.3230   51.2520   15.0940 O.2    39  GLU39      -0.2718
     30  CB       -29.3190   52.1190   12.0890 C.3    39  GLU39       0.0402
     31  CG       -30.4160   51.1490   11.6780 C.3    39  GLU39       0.1161
     32  CD       -30.1230   50.4700   10.3550 C.2    39  GLU39       0.3649
     33  OE1      -29.1420   49.7000   10.2860 O.co2  39  GLU39      -0.2457
     34  OE2      -30.8680   50.7120    9.3820 O.co2  39  GLU39      -0.2457
     35  N        -28.1030   51.6330   14.9690 N.am   40  VAL40      -0.1980
     36  CA       -27.7610   50.8050   16.1250 C.3    40  VAL40       0.1595
     37  C        -26.6270   51.4540   16.9250 C.2    40  VAL40       0.2287
     38  O        -25.5200   51.6120   16.4090 O.2    40  VAL40      -0.2864
     39  CB       -27.3520   49.3800   15.7050 C.3    40  VAL40       0.0276
     40  CG1      -26.1550   49.4130   14.7720 C.3    40  VAL40       0.0022
     41  CG2      -27.0490   48.5360   16.9300 C.3    40  VAL40       0.0022
     42  N        -23.5780   48.7170   18.7600 N.3    43  TYR43      -0.1241
     43  CA       -22.6840   47.9080   17.9250 C.3    43  TYR43       0.1605
     44  C        -21.2190   48.1420   18.2870 C.2    43  TYR43       0.2264
     45  O        -20.4650   47.1870   18.4800 O.2    43  TYR43      -0.2867
     46  CB       -22.9080   48.1870   16.4330 C.3    43  TYR43       0.0534
     47  CG       -22.2020   47.1980   15.5300 C.ar   43  TYR43      -0.0201
     48  CD1      -22.7810   45.9700   15.2260 C.ar   43  TYR43      -0.0009
     49  CD2      -20.9470   47.4830   14.9930 C.ar   43  TYR43      -0.0009
     50  CE1      -22.1380   45.0560   14.4080 C.ar   43  TYR43       0.0417
     51  CE2      -20.2960   46.5750   14.1730 C.ar   43  TYR43       0.0417
     52  CZ       -20.8960   45.3650   13.8820 C.ar   43  TYR43       0.1957
     53  OH       -20.2570   44.4550   13.0760 O.3    43  TYR43      -0.2866
     54  N        -20.5980   39.4320   12.2450 N.3    82  ALA82      -0.1245
     55  CA       -22.0140   39.2230   11.9380 C.3    82  ALA82       0.1562
     56  C        -22.6050   38.0550   12.7260 C.2    82  ALA82       0.2260
     57  O        -23.7330   38.1490   13.2110 O.2    82  ALA82      -0.2867
     58  CB       -22.2110   39.0020   10.4370 C.3    82  ALA82       0.0290
     59  N        -22.7410   39.2580   16.5610 N.3    85  TYR85      -0.1227
     60  CA       -23.7120   40.3080   16.8630 C.3    85  TYR85       0.1736
     61  C        -25.1620   39.9020   16.5980 C.2    85  TYR85       0.2595
     62  O        -26.0810   40.4450   17.2190 O.2    85  TYR85      -0.2718
     63  CB       -23.3980   41.5870   16.0820 C.3    85  TYR85       0.0548
     64  CG       -24.2050   42.7620   16.5700 C.ar   85  TYR85      -0.0200
     65  CD1      -23.8510   43.4280   17.7390 C.ar   85  TYR85      -0.0009
     66  CD2      -25.3500   43.1830   15.8920 C.ar   85  TYR85      -0.0009
     67  CE1      -24.5960   44.4970   18.2070 C.ar   85  TYR85       0.0417
     68  CE2      -26.1010   44.2500   16.3550 C.ar   85  TYR85       0.0417
     69  CZ       -25.7160   44.9030   17.5130 C.ar   85  TYR85       0.1957
     70  OH       -26.4530   45.9630   17.9870 O.3    85  TYR85      -0.2866
     71  N        -25.3690   38.9560   15.6850 N.am   86  ASN86      -0.1974
     72  CA       -26.7160   38.5070   15.3210 C.3    86  ASN86       0.1688
     73  C        -26.8750   37.0050   15.5450 C.2    86  ASN86       0.2292
     74  O        -27.0480   36.2570   14.5900 O.2    86  ASN86      -0.2864
     75  CB       -26.9990   38.8490   13.8510 C.3    86  ASN86       0.1181
     76  CG       -26.6020   40.2690   13.4920 C.2    86  ASN86       0.2629
     77  OD1      -27.3650   41.2100   13.6980 O.2    86  ASN86      -0.2716
     78  ND2      -25.3970   40.4270   12.9460 N.am   86  ASN86      -0.0877
     79  N        -29.2510   35.2680   17.1760 N.3    88  ASP88      -0.1239
     80  CA       -30.5750   34.8000   17.5810 C.3    88  ASP88       0.1674
     81  C        -31.2730   34.0070   16.4890 C.2    88  ASP88       0.2266
     82  O        -30.8560   34.0110   15.3240 O.2    88  ASP88      -0.2867
     83  CB       -31.4510   35.9740   18.0270 C.3    88  ASP88       0.1410
     84  CG       -30.9040   36.6790   19.2680 C.2    88  ASP88       0.3668
     85  OD1      -29.9620   36.1570   19.9050 O.co2  88  ASP88      -0.2456
     86  OD2      -31.4240   37.7600   19.6120 O.co2  88  ASP88      -0.2456
     87  N        -34.2190   34.5750   15.3070 N.3    90  ASP90      -0.1239
     88  CA       -35.1700   35.3530   14.5120 C.3    90  ASP90       0.1674
     89  C        -34.6880   35.4620   13.0650 C.2    90  ASP90       0.2266
     90  O        -33.4850   35.4280   12.8120 O.2    90  ASP90      -0.2867
     91  CB       -35.4210   36.7450   15.1080 C.3    90  ASP90       0.1410
     92  CG       -34.3050   37.7110   14.8230 C.2    90  ASP90       0.3668
     93  OD1      -33.2650   37.6260   15.5080 O.co2  90  ASP90      -0.2456
     94  OD2      -34.4670   38.5590   13.9130 O.co2  90  ASP90      -0.2456
     95  N        -34.4110   37.8590   10.8850 N.3    92  GLY92      -0.1210
     96  CA       -33.4580   38.9310   10.5980 C.3    92  GLY92       0.1956
     97  C        -32.0280   38.4880   10.8730 C.2    92  GLY92       0.2611
     98  O        -31.1460   38.6340   10.0200 O.2    92  GLY92      -0.2717
     99  N        -31.8080   37.9280   12.0620 N.am   93  ASP93      -0.1973
    100  CA       -30.4970   37.3890   12.4410 C.3    93  ASP93       0.1709
    101  C        -30.0670   36.2350   11.5430 C.2    93  ASP93       0.2293
    102  O        -28.9180   36.1830   11.1160 O.2    93  ASP93      -0.2864
    103  CB       -30.4880   36.9180   13.9010 C.3    93  ASP93       0.1436
    104  CG       -30.4110   38.0680   14.8910 C.2    93  ASP93       0.3671
    105  OD1      -30.9560   39.1530   14.5970 O.co2  93  ASP93      -0.2456
    106  OD2      -29.8060   37.8860   15.9650 O.co2  93  ASP93      -0.2456
    107  N        -28.9200   37.5500    7.9870 N.3    96  ILE96      -0.1245
    108  CA       -27.5920   38.1750    7.9880 C.3    96  ILE96       0.1561
    109  C        -26.4720   37.1510    8.1860 C.2    96  ILE96       0.2260
    110  O        -25.4300   37.2520    7.5350 O.2    96  ILE96      -0.2867
    111  CB       -27.4670   39.3170    9.0280 C.3    96  ILE96       0.0252
    112  CG1      -26.1900   40.1220    8.7800 C.3    96  ILE96       0.0019
    113  CG2      -27.4640   38.7790   10.4490 C.3    96  ILE96       0.0019
    114  CD1      -26.1470   41.4490    9.5070 C.3    96  ILE96       0.0001
@<TRIPOS>BOND
     1     1     2    1
     2    10    11    2
     3    10     9    1
     4    15    17   ar
     5    15    13   ar
     6     8     9    1
     7     8     3   am
     8    12     9    1
     9    12    13    1
    10     2     3    1
    11     2     5    1
    12    17    18   ar
    13     3     4    2
    14    13    14   ar
    15     6     5    1
    16     5     7    1
    17    18    16   ar
    18    14    16   ar
    19   110   109    2
    20   107   108    1
    21   108   109    1
    22   108   111    1
    23   112   111    1
    24   112   114    1
    25   111   113    1
    26    34    32   ar
    27    98    97    2
    28    19    20    1
    29    33    32   ar
    30    32    31    1
    31    58    55    1
    32    96    97    1
    33    96    95    1
    34    20    21    1
    35    20    23    1
    36    97    99   am
    37   102   101    2
    38    21    22    2
    39    25    23    1
    40   101   100    1
    41    31    30    1
    42    23    24    1
    43    55    54    1
    44    55    56    1
    45    99   100    1
    46    30    27    1
    47   100   103    1
    48    56    57    2
    49    90    89    2
    50    78    76   am
    51    89    88    1
    52    53    52    1
    53    27    26    1
    54    27    28    1
    55    76    77    2
    56    76    75    1
    57    75    72    1
    58    52    51   ar
    59    52    50   ar
    60   103   104    1
    61    94    92   ar
    62    51    49   ar
    63    50    48   ar
    64    88    91    1
    65    88    87    1
    66    28    35   am
    67    28    29    2
    68    74    73    2
    69   105   104   ar
    70    40    39    1
    71    92    91    1
    72    92    93   ar
    73   104   106   ar
    74    35    36    1
    75    49    47   ar
    76    48    47   ar
    77    72    73    1
    78    72    71    1
    79    82    81    2
    80    47    46    1
    81    71    61   am
    82    39    36    1
    83    39    41    1
    84    66    68   ar
    85    66    64   ar
    86    63    64    1
    87    63    60    1
    88    36    37    1
    89    68    69   ar
    90    38    37    2
    91    46    43    1
    92    81    80    1
    93    59    60    1
    94    64    65   ar
    95    61    60    1
    96    61    62    2
    97    79    80    1
    98    69    70    1
    99    69    67   ar
   100    80    83    1
   101    65    67   ar
   102    43    44    1
   103    43    42    1
   104    83    84    1
   105    44    45    2
   106    84    86   ar
   107    84    85   ar
