@<TRIPOS>MOLECULE
tmp/5a5rA00.pdb
 129 123 0 0 0
SMALL
GASTEIGER

@<TRIPOS>ATOM
      1  N        -25.4130   44.8790    3.1260 N.3    30  VAL30      -0.1231
      2  CA       -25.2940   45.1350    4.5620 C.3    30  VAL30       0.1692
      3  C        -23.8340   45.2250    5.0450 C.2    30  VAL30       0.2592
      4  O        -23.5560   45.8750    6.0530 O.2    30  VAL30      -0.2718
      5  CB       -26.0790   44.0740    5.3760 C.3    30  VAL30       0.0266
      6  CG1      -25.4890   42.6820    5.1790 C.3    30  VAL30       0.0020
      7  CG2      -26.1410   44.4470    6.8530 C.3    30  VAL30       0.0020
      8  N        -22.9090   44.6010    4.3180 N.am   31  PHE31      -0.1976
      9  CA       -21.4910   44.6090    4.6960 C.3    31  PHE31       0.1639
     10  C        -20.6480   45.6270    3.9250 C.2    31  PHE31       0.2290
     11  O        -19.4320   45.6510    4.0920 O.2    31  PHE31      -0.2864
     12  CB       -20.8790   43.2170    4.4960 C.3    31  PHE31       0.0560
     13  CG       -21.6840   42.1080    5.1060 C.ar   31  PHE31      -0.0200
     14  CD1      -21.8990   42.0630    6.4750 C.ar   31  PHE31      -0.0042
     15  CD2      -22.2280   41.1070    4.3110 C.ar   31  PHE31      -0.0042
     16  CE1      -22.6560   41.0480    7.0400 C.ar   31  PHE31      -0.0003
     17  CE2      -22.9830   40.0850    4.8730 C.ar   31  PHE31      -0.0003
     18  CZ       -23.1950   40.0550    6.2370 C.ar   31  PHE31      -0.0000
     19  N        -19.6480   50.9760    6.8380 N.3    34  PRO34      -0.2102
     20  CA       -19.7760   50.9130    8.2900 C.3    34  PRO34       0.1504
     21  C        -21.2370   50.9960    8.7260 C.2    34  PRO34       0.2576
     22  O        -22.0550   51.6170    8.0480 O.2    34  PRO34      -0.2718
     23  CB       -19.0010   52.1490    8.7720 C.3    34  PRO34       0.0282
     24  CG       -18.0260   52.4350    7.6830 C.3    34  PRO34       0.0208
     25  CD       -18.7330   52.0520    6.4120 C.3    34  PRO34       0.0893
     26  N        -21.5520   50.3590    9.8440 N.am   35  VAL35      -0.1966
     27  CA       -22.9070   50.3650   10.3810 C.3    35  VAL35       0.1727
     28  C        -23.3420   51.7870   10.7560 C.2    35  VAL35       0.2616
     29  O        -22.5330   52.5870   11.2210 O.2    35  VAL35      -0.2715
     30  CB       -23.0030   49.4460   11.6170 C.3    35  VAL35       0.0290
     31  CG1      -24.2630   49.7370   12.4050 C.3    35  VAL35       0.0023
     32  CG2      -22.9580   47.9850   11.1940 C.3    35  VAL35       0.0023
     33  N        -24.6150   52.0960   10.5190 N.am   36  ASP36      -0.1971
     34  CA       -25.2260   53.3410   10.9900 C.3    36  ASP36       0.1709
     35  C        -25.5400   53.1920   12.4840 C.2    36  ASP36       0.2293
     36  O        -26.3810   52.3690   12.8530 O.2    36  ASP36      -0.2864
     37  CB       -26.5120   53.6250   10.1980 C.3    36  ASP36       0.1436
     38  CG       -27.1570   54.9660   10.5540 C.2    36  ASP36       0.3671
     39  OD1      -26.5810   55.7530   11.3380 O.co2  36  ASP36      -0.2456
     40  OD2      -28.2590   55.2330   10.0310 O.co2  36  ASP36      -0.2456
     41  N        -29.1240   52.9160   13.6500 N.3    39  GLU39      -0.1231
     42  CA       -29.7890   51.6290   13.4280 C.3    39  GLU39       0.1699
     43  C        -29.4160   50.5840   14.4840 C.2    39  GLU39       0.2592
     44  O        -30.2480   49.7540   14.8530 O.2    39  GLU39      -0.2718
     45  CB       -29.4590   51.0870   12.0320 C.3    39  GLU39       0.0402
     46  CG       -30.1530   51.8220   10.8930 C.3    39  GLU39       0.1161
     47  CD       -31.4800   51.1970   10.5010 C.2    39  GLU39       0.3649
     48  OE1      -32.1910   50.6760   11.3880 O.co2  39  GLU39      -0.2457
     49  OE2      -31.8130   51.2270    9.2970 O.co2  39  GLU39      -0.2457
     50  N        -28.1690   50.6170   14.9530 N.am   40  VAL40      -0.1980
     51  CA       -27.6760   49.6550   15.9480 C.3    40  VAL40       0.1595
     52  C        -26.7760   50.3570   16.9750 C.2    40  VAL40       0.2287
     53  O        -25.5470   50.2980   16.8760 O.2    40  VAL40      -0.2864
     54  CB       -26.9170   48.4850   15.2790 C.3    40  VAL40       0.0276
     55  CG1      -27.8830   47.5490   14.5670 C.3    40  VAL40       0.0022
     56  CG2      -25.8730   49.0020   14.3060 C.3    40  VAL40       0.0022
     57  N        -23.8170   48.4960   18.7440 N.3    43  TYR43      -0.1241
     58  CA       -22.8230   47.8360   17.8900 C.3    43  TYR43       0.1605
     59  C        -21.3980   48.1850   18.3210 C.2    43  TYR43       0.2264
     60  O        -20.5580   47.2950   18.4580 O.2    43  TYR43      -0.2867
     61  CB       -23.0350   48.1840   16.4080 C.3    43  TYR43       0.0534
     62  CG       -22.3250   47.2350   15.4600 C.ar   43  TYR43      -0.0201
     63  CD1      -22.9460   46.0710   15.0230 C.ar   43  TYR43      -0.0009
     64  CD2      -21.0280   47.4970   15.0140 C.ar   43  TYR43      -0.0009
     65  CE1      -22.3070   45.1930   14.1650 C.ar   43  TYR43       0.0417
     66  CE2      -20.3760   46.6230   14.1510 C.ar   43  TYR43       0.0417
     67  CZ       -21.0230   45.4730   13.7300 C.ar   43  TYR43       0.1957
     68  OH       -20.3980   44.5920   12.8850 O.3    43  TYR43      -0.2866
     69  N        -20.6230   39.4080   12.3020 N.3    82  ALA82      -0.1245
     70  CA       -22.0440   39.2110   12.0070 C.3    82  ALA82       0.1562
     71  C        -22.6280   38.0530   12.8120 C.2    82  ALA82       0.2260
     72  O        -23.7470   38.1490   13.3140 O.2    82  ALA82      -0.2867
     73  CB       -22.2610   38.9800   10.5120 C.3    82  ALA82       0.0290
     74  N        -22.7660   39.3970   16.5300 N.3    85  TYR85      -0.1227
     75  CA       -23.7630   40.4310   16.7960 C.3    85  TYR85       0.1736
     76  C        -25.2080   39.9770   16.5500 C.2    85  TYR85       0.2595
     77  O        -26.1230   40.5020   17.1820 O.2    85  TYR85      -0.2718
     78  CB       -23.4740   41.7030   15.9900 C.3    85  TYR85       0.0548
     79  CG       -24.3930   42.8390   16.3690 C.ar   85  TYR85      -0.0200
     80  CD1      -24.1790   43.5720   17.5370 C.ar   85  TYR85      -0.0009
     81  CD2      -25.4980   43.1560   15.5880 C.ar   85  TYR85      -0.0009
     82  CE1      -25.0300   44.6040   17.9010 C.ar   85  TYR85       0.0417
     83  CE2      -26.3590   44.1810   15.9470 C.ar   85  TYR85       0.0417
     84  CZ       -26.1190   44.9030   17.1010 C.ar   85  TYR85       0.1957
     85  OH       -26.9710   45.9220   17.4500 O.3    85  TYR85      -0.2866
     86  N        -25.4150   39.0070   15.6570 N.am   86  ASN86      -0.1974
     87  CA       -26.7680   38.5270   15.3190 C.3    86  ASN86       0.1688
     88  C        -26.9160   37.0280   15.5600 C.2    86  ASN86       0.2292
     89  O        -27.0600   36.2620   14.6080 O.2    86  ASN86      -0.2864
     90  CB       -27.0950   38.8200   13.8470 C.3    86  ASN86       0.1181
     91  CG       -26.6600   40.1980   13.4080 C.2    86  ASN86       0.2629
     92  OD1      -27.4020   41.1660   13.5390 O.2    86  ASN86      -0.2716
     93  ND2      -25.4530   40.2880   12.8600 N.am   86  ASN86      -0.0877
     94  N        -29.3380   35.3540   17.2030 N.3    88  ASP88      -0.1239
     95  CA       -30.6780   34.8890   17.5690 C.3    88  ASP88       0.1674
     96  C        -31.3170   34.0350   16.4920 C.2    88  ASP88       0.2266
     97  O        -30.8650   34.0100   15.3410 O.2    88  ASP88      -0.2867
     98  CB       -31.6070   36.0700   17.8720 C.3    88  ASP88       0.1410
     99  CG       -31.1940   36.8460   19.1110 C.2    88  ASP88       0.3668
    100  OD1      -30.2060   36.4600   19.7760 O.co2  88  ASP88      -0.2456
    101  OD2      -31.8720   37.8490   19.4220 O.co2  88  ASP88      -0.2456
    102  N        -34.2440   34.6300   15.3060 N.3    90  ASP90      -0.1239
    103  CA       -35.2130   35.4200   14.5440 C.3    90  ASP90       0.1674
    104  C        -34.7580   35.5560   13.0860 C.2    90  ASP90       0.2266
    105  O        -33.5540   35.5370   12.8120 O.2    90  ASP90      -0.2867
    106  CB       -35.4860   36.7900   15.1900 C.3    90  ASP90       0.1410
    107  CG       -34.3340   37.7590   15.0420 C.2    90  ASP90       0.3668
    108  OD1      -33.4420   37.7550   15.9130 O.co2  90  ASP90      -0.2456
    109  OD2      -34.3320   38.5490   14.0710 O.co2  90  ASP90      -0.2456
    110  N        -34.5060   37.9180   10.8470 N.3    92  GLY92      -0.1210
    111  CA       -33.5480   38.9830   10.5490 C.3    92  GLY92       0.1956
    112  C        -32.1180   38.5740   10.8560 C.2    92  GLY92       0.2611
    113  O        -31.2230   38.7460   10.0230 O.2    92  GLY92      -0.2717
    114  N        -31.9030   38.0230   12.0500 N.am   93  ASP93      -0.1973
    115  CA       -30.5830   37.5190   12.4440 C.3    93  ASP93       0.1709
    116  C        -30.1360   36.3710   11.5460 C.2    93  ASP93       0.2293
    117  O        -28.9890   36.3470   11.1050 O.2    93  ASP93      -0.2864
    118  CB       -30.5660   37.0560   13.9100 C.3    93  ASP93       0.1436
    119  CG       -30.5270   38.2150   14.8970 C.2    93  ASP93       0.3671
    120  OD1      -31.1010   39.2820   14.5870 O.co2  93  ASP93      -0.2456
    121  OD2      -29.9280   38.0610   15.9880 O.co2  93  ASP93      -0.2456
    122  N        -28.9250   37.5810    8.0310 N.3    96  ILE96      -0.1245
    123  CA       -27.6210   38.2460    8.0310 C.3    96  ILE96       0.1561
    124  C        -26.5000   37.2210    8.2140 C.2    96  ILE96       0.2260
    125  O        -25.4720   37.2990    7.5460 O.2    96  ILE96      -0.2867
    126  CB       -27.5240   39.3490    9.1080 C.3    96  ILE96       0.0252
    127  CG1      -28.5820   40.4280    8.8680 C.3    96  ILE96       0.0019
    128  CG2      -26.1600   40.0190    9.0720 C.3    96  ILE96       0.0019
    129  CD1      -28.7790   41.3690   10.0380 C.3    96  ILE96       0.0001
@<TRIPOS>BOND
     1     1     2    1
     2    10    11    2
     3    10     9    1
     4    15    17   ar
     5    15    13   ar
     6     8     9    1
     7     8     3   am
     8    12     9    1
     9    12    13    1
    10     2     3    1
    11     2     5    1
    12    17    18   ar
    13     3     4    2
    14    13    14   ar
    15     6     5    1
    16     5     7    1
    17    18    16   ar
    18    25    19    1
    19    25    24    1
    20    14    16   ar
    21    19    20    1
    22   125   124    2
    23    24    23    1
    24   122   123    1
    25   123   124    1
    26   123   126    1
    27    22    21    2
    28    20    21    1
    29    20    23    1
    30    21    26   am
    31   127   126    1
    32   127   129    1
    33   128   126    1
    34    49    47   ar
    35    26    27    1
    36   113   112    2
    37    40    38   ar
    38    37    38    1
    39    37    34    1
    40    27    28    1
    41    27    30    1
    42    47    46    1
    43    47    48   ar
    44    73    70    1
    45    33    28   am
    46    33    34    1
    47   111   110    1
    48   111   112    1
    49    38    39   ar
    50    28    29    2
    51   112   114   am
    52    46    45    1
    53    34    35    1
    54   117   116    2
    55    32    30    1
    56   116   115    1
    57    30    31    1
    58    70    69    1
    59    70    71    1
    60    45    42    1
    61   114   115    1
    62   115   118    1
    63    35    36    2
    64   105   104    2
    65    71    72    2
    66    93    91   am
    67    68    67    1
    68   104   103    1
    69    91    92    2
    70    91    90    1
    71    42    41    1
    72    42    43    1
    73    67    66   ar
    74    67    65   ar
    75    90    87    1
    76   118   119    1
    77   109   107   ar
    78    66    64   ar
    79    65    63   ar
    80    56    54    1
    81    43    44    2
    82    43    50   am
    83   103   106    1
    84   103   102    1
    85    55    54    1
    86   120   119   ar
    87    89    88    2
    88   119   121   ar
    89    50    51    1
    90    64    62   ar
    91    63    62   ar
    92   107   106    1
    93   107   108   ar
    94    54    51    1
    95    87    88    1
    96    87    86    1
    97    97    96    2
    98    62    61    1
    99    81    83   ar
   100    81    79   ar
   101    86    76   am
   102    83    84   ar
   103    51    52    1
   104    78    79    1
   105    78    75    1
   106    79    80   ar
   107    61    58    1
   108    96    95    1
   109    74    75    1
   110    76    75    1
   111    76    77    2
   112    53    52    2
   113    84    85    1
   114    84    82   ar
   115    94    95    1
   116    80    82   ar
   117    95    98    1
   118    98    99    1
   119    58    59    1
   120    58    57    1
   121    59    60    2
   122    99   101   ar
   123    99   100   ar
