@<TRIPOS>MOLECULE
tmp/5a5sA00.pdb
 127 123 0 0 0
SMALL
GASTEIGER

@<TRIPOS>ATOM
      1  N         -9.7190   -1.8790    8.6880 N.3    40  TRP40      -0.1228
      2  CA       -11.1170   -1.6970    9.1100 C.3    40  TRP40       0.1722
      3  C        -11.8970   -2.9650    9.3890 C.2    40  TRP40       0.2437
      4  O        -12.5810   -3.0440   10.4090 O.2    40  TRP40      -0.2733
      5  CB       -11.8810   -0.7830    8.1500 C.3    40  TRP40       0.0563
      6  CG       -13.2950   -0.5170    8.6050 C.ar   40  TRP40       0.0003
      7  CD1      -13.7160   -0.0830    9.8580 C.ar   40  TRP40       0.0946
      8  CD2      -14.5250   -0.6680    7.8240 C.ar   40  TRP40       0.0152
      9  NE1      -15.0800    0.0390    9.9030 N.ar   40  TRP40      -0.2442
     10  CE2      -15.6260   -0.2960    8.7180 C.ar   40  TRP40       0.0810
     11  CE3      -14.8130   -1.0560    6.5250 C.ar   40  TRP40       0.0012
     12  CZ2      -16.9470   -0.3150    8.3010 C.ar   40  TRP40       0.0191
     13  CZ3      -16.1500   -1.0740    6.1160 C.ar   40  TRP40       0.0001
     14  CH2      -17.1890   -0.7140    6.9870 C.ar   40  TRP40       0.0015
     15  N        -11.8090   -3.9830    8.5110 N.am   41  PRO41      -0.2718
     16  CA       -12.5280   -5.2300    8.8080 C.3    41  PRO41       0.1535
     17  C        -12.1200   -5.8930   10.1280 C.2    41  PRO41       0.2598
     18  O        -12.8660   -6.7240   10.6420 O.2    41  PRO41      -0.2715
     19  CB       -12.1630   -6.1410    7.6290 C.3    41  PRO41       0.0310
     20  CG       -11.7990   -5.2120    6.5260 C.3    41  PRO41       0.0237
     21  CD       -11.1550   -4.0330    7.1900 C.3    41  PRO41       0.0939
     22  N        -10.9480   -5.5310   10.6510 N.am   42  PHE42      -0.1974
     23  CA       -10.4230   -6.0720   11.9030 C.3    42  PHE42       0.1639
     24  C        -10.5390   -5.1080   13.0890 C.2    42  PHE42       0.2290
     25  O        -10.0780   -5.4290   14.1800 O.2    42  PHE42      -0.2864
     26  CB        -8.9550   -6.4610   11.7040 C.3    42  PHE42       0.0560
     27  CG        -8.7420   -7.4360   10.5860 C.ar   42  PHE42      -0.0200
     28  CD1       -8.8740   -8.8010   10.8080 C.ar   42  PHE42      -0.0042
     29  CD2       -8.4360   -6.9930    9.3070 C.ar   42  PHE42      -0.0042
     30  CE1       -8.6950   -9.7050    9.7750 C.ar   42  PHE42      -0.0003
     31  CE2       -8.2540   -7.8940    8.2710 C.ar   42  PHE42      -0.0003
     32  CZ        -8.3860   -9.2530    8.5050 C.ar   42  PHE42      -0.0000
     33  N        -13.2350   -4.0960   14.7050 N.3    44  GLN44      -0.1245
     34  CA       -14.3370   -4.3940   15.6140 C.3    44  GLN44       0.1566
     35  C        -14.7520   -5.8390   15.3880 C.2    44  GLN44       0.2260
     36  O        -14.3740   -6.4290   14.3780 O.2    44  GLN44      -0.2867
     37  CB       -15.5190   -3.4450   15.3800 C.3    44  GLN44       0.0367
     38  CG       -16.0960   -3.4740   13.9710 C.3    44  GLN44       0.0905
     39  CD       -15.2180   -2.7600   12.9590 C.2    44  GLN44       0.2608
     40  OE1      -14.7740   -1.6360   13.1920 O.2    44  GLN44      -0.2717
     41  NE2      -14.9630   -3.4120   11.8280 N.am   44  GLN44      -0.0878
     42  N        -16.5630   -9.1010   14.1400 N.3    46  VAL46      -0.1245
     43  CA       -17.2860   -9.3990   12.9120 C.3    46  VAL46       0.1561
     44  C        -18.7910   -9.3480   13.1810 C.2    46  VAL46       0.2260
     45  O        -19.2950  -10.0500   14.0570 O.2    46  VAL46      -0.2867
     46  CB       -16.8920  -10.7820   12.3540 C.3    46  VAL46       0.0252
     47  CG1      -17.7780  -11.1680   11.1770 C.3    46  VAL46       0.0019
     48  CG2      -15.4240  -10.7880   11.9480 C.3    46  VAL46       0.0019
     49  N        -23.0390   -8.3060    7.7460 N.3    51  LEU51      -0.1245
     50  CA       -22.2320   -8.8500    6.6520 C.3    51  LEU51       0.1561
     51  C        -22.8590  -10.0890    6.0040 C.2    51  LEU51       0.2260
     52  O        -22.3740  -10.5610    4.9750 O.2    51  LEU51      -0.2867
     53  CB       -20.8270   -9.1880    7.1570 C.3    51  LEU51       0.0270
     54  CG       -20.0280   -8.0140    7.7370 C.3    51  LEU51       0.0019
     55  CD1      -18.8540   -8.5210    8.5590 C.3    51  LEU51       0.0001
     56  CD2      -19.5550   -7.0740    6.6340 C.3    51  LEU51       0.0001
     57  N        -22.9860  -13.2740    7.2690 N.3    53  LEU53      -0.1245
     58  CA       -22.0970  -14.4100    7.4760 C.3    53  LEU53       0.1561
     59  C        -22.6630  -15.2360    8.6360 C.2    53  LEU53       0.2260
     60  O        -22.0720  -15.2750    9.7140 O.2    53  LEU53      -0.2867
     61  CB       -20.6840  -13.9190    7.8130 C.3    53  LEU53       0.0270
     62  CG       -19.9960  -13.0160    6.7870 C.3    53  LEU53       0.0019
     63  CD1      -18.7050  -12.4460    7.3550 C.3    53  LEU53       0.0001
     64  CD2      -19.7240  -13.7780    5.5000 C.3    53  LEU53       0.0001
     65  N        -20.5780  -17.6550   10.8960 N.3    56  TYR56      -0.1241
     66  CA       -19.3160  -17.1740   11.4580 C.3    56  TYR56       0.1605
     67  C        -19.1060  -17.6480   12.8980 C.2    56  TYR56       0.2264
     68  O        -18.0600  -18.2170   13.2130 O.2    56  TYR56      -0.2867
     69  CB       -19.1790  -15.6460   11.3870 C.3    56  TYR56       0.0534
     70  CG       -17.7830  -15.2200   11.7840 C.ar   56  TYR56      -0.0201
     71  CD1      -16.7460  -15.2300   10.8560 C.ar   56  TYR56      -0.0009
     72  CD2      -17.4850  -14.8730   13.0990 C.ar   56  TYR56      -0.0009
     73  CE1      -15.4600  -14.8760   11.2190 C.ar   56  TYR56       0.0417
     74  CE2      -16.1990  -14.5190   13.4720 C.ar   56  TYR56       0.0417
     75  CZ       -15.1930  -14.5230   12.5270 C.ar   56  TYR56       0.1957
     76  OH       -13.9190  -14.1780   12.8930 O.3    56  TYR56      -0.2866
     77  N         -9.2280  -15.6980   10.9420 N.3    95  CYS95      -0.1235
     78  CA        -9.3750  -15.2930    9.5530 C.3    95  CYS95       0.1677
     79  C         -8.9690  -16.4210    8.5970 C.2    95  CYS95       0.2270
     80  O         -9.6600  -16.6810    7.6090 O.2    95  CYS95      -0.2867
     81  CB        -8.5530  -14.0300    9.2920 C.3    95  CYS95       0.0956
     82  SG        -8.8760  -13.2530    7.6990 S.3    95  CYS95      -0.0801
     83  N        -11.8410  -19.3090    8.9130 N.3    98  TYR98      -0.1227
     84  CA       -13.1960  -19.0550    8.4220 C.3    98  TYR98       0.1736
     85  C        -13.2730  -18.8390    6.9100 C.2    98  TYR98       0.2595
     86  O        -14.1890  -19.3360    6.2580 O.2    98  TYR98      -0.2718
     87  CB       -13.8380  -17.8570    9.1340 C.3    98  TYR98       0.0548
     88  CG       -15.2280  -17.5910    8.6070 C.ar   98  TYR98      -0.0200
     89  CD1      -16.2870  -18.4190    8.9580 C.ar   98  TYR98      -0.0009
     90  CD2      -15.4730  -16.5500    7.7180 C.ar   98  TYR98      -0.0009
     91  CE1      -17.5580  -18.2080    8.4560 C.ar   98  TYR98       0.0417
     92  CE2      -16.7400  -16.3310    7.2100 C.ar   98  TYR98       0.0417
     93  CZ       -17.7790  -17.1590    7.5840 C.ar   98  TYR98       0.1957
     94  OH       -19.0410  -16.9470    7.0860 O.3    98  TYR98      -0.2866
     95  N        -12.3270  -18.0840    6.3630 N.am   99  ASN99      -0.1960
     96  CA       -12.3900  -17.6640    4.9640 C.3    99  ASN99       0.1819
     97  C        -11.6520  -18.6380    4.0530 C.2    99  ASN99       0.2621
     98  O        -10.9550  -19.5330    4.5280 O.2    99  ASN99      -0.2715
     99  CB       -11.8160  -16.2540    4.8290 C.3    99  ASN99       0.1195
    100  CG       -12.4920  -15.2650    5.7590 C.2    99  ASN99       0.2630
    101  OD1      -13.5970  -14.7980    5.4910 O.2    99  ASN99      -0.2716
    102  ND2      -11.8340  -14.9520    6.8660 N.am   99  ASN99      -0.0877
    103  N        -11.8130  -18.4710    2.7440 N.am  100  LYS100     -0.1977
    104  CA       -11.0960  -19.3020    1.7790 C.3   100  LYS100      0.1596
    105  C         -9.7610  -18.6570    1.4120 C.2   100  LYS100      0.2287
    106  O         -9.6310  -17.4320    1.4750 O.2   100  LYS100     -0.2864
    107  CB       -11.9380  -19.5280    0.5200 C.3   100  LYS100      0.0298
    108  CG       -13.1310  -20.4450    0.7350 C.3   100  LYS100      0.0038
    109  CD       -12.7130  -21.9060    0.8500 C.3   100  LYS100      0.0206
    110  CE       -13.8220  -22.7620    1.4380 C.3   100  LYS100      0.1093
    111  NZ       -14.0430  -22.4870    2.8860 N.3   100  LYS100     -0.1314
    112  N         -9.1570  -15.2380   -0.7860 N.3   103  ASP103     -0.1239
    113  CA       -10.1460  -14.2160   -0.4480 C.3   103  ASP103      0.1674
    114  C         -9.3800  -12.9530   -0.1110 C.2   103  ASP103      0.2266
    115  O         -8.3380  -13.0180    0.5470 O.2   103  ASP103     -0.2867
    116  CB       -10.9970  -14.6160    0.7680 C.3   103  ASP103      0.1410
    117  CG       -12.1230  -15.5750    0.4210 C.2   103  ASP103      0.3668
    118  OD1      -12.1880  -16.0470   -0.7360 O.co2 103  ASP103     -0.2456
    119  OD2      -12.9550  -15.8510    1.3160 O.co2 103  ASP103     -0.2456
    120  N         -9.8290  -10.8090    2.0920 N.3   105  ILE105     -0.1245
    121  CA        -9.6370  -10.6700    3.5360 C.3   105  ILE105      0.1561
    122  C         -8.4470  -11.4850    4.0620 C.2   105  ILE105      0.2260
    123  O         -7.7570  -11.0470    4.9830 O.2   105  ILE105     -0.2867
    124  CB       -10.9290  -11.0280    4.3100 C.3   105  ILE105      0.0252
    125  CG1      -10.8760  -10.4890    5.7440 C.3   105  ILE105      0.0019
    126  CG2      -11.1800  -12.5310    4.2970 C.3   105  ILE105      0.0019
    127  CD1      -10.9400   -8.9790    5.8370 C.3   105  ILE105      0.0001
@<TRIPOS>BOND
     1   112   113    1
     2   118   117   ar
     3   113   114    1
     4   113   116    1
     5   114   115    2
     6   117   116    1
     7   117   119   ar
     8   107   108    1
     9   107   104    1
    10   108   109    1
    11   109   110    1
    12   105   106    2
    13   105   104    1
    14   110   111    1
    15   104   103    1
    16   120   121    1
    17   103    97   am
    18   121   122    1
    19   121   124    1
    20    97    98    2
    21    97    96    1
    22   122   123    2
    23   126   124    1
    24   124   125    1
    25    99    96    1
    26    99   100    1
    27    96    95    1
    28    52    51    2
    29   101   100    2
    30    64    62    1
    31   125   127    1
    32   100   102   am
    33    51    50    1
    34    13    11   ar
    35    13    14   ar
    36    86    85    2
    37    95    85   am
    38    11     8   ar
    39    20    21    1
    40    20    19    1
    41    56    54    1
    42    50    53    1
    43    50    49    1
    44    62    63    1
    45    62    61    1
    46    85    84    1
    47    14    12   ar
    48    94    93    1
    49    53    54    1
    50    21    15    1
    51    92    93   ar
    52    92    90   ar
    53    57    58    1
    54    58    61    1
    55    58    59    1
    56    93    91   ar
    57    80    79    2
    58    19    16    1
    59    82    81    1
    60    90    88   ar
    61    54    55    1
    62     8     6   ar
    63     8    10   ar
    64     5     6    1
    65     5     2    1
    66    31    32   ar
    67    31    29   ar
    68    12    10   ar
    69    84    83    1
    70    84    87    1
    71    91    89   ar
    72    32    30   ar
    73    15    16    1
    74    15     3   am
    75    79    78    1
    76     6     7   ar
    77    88    89   ar
    78    88    87    1
    79    59    60    2
    80     1     2    1
    81    10     9   ar
    82    16    17    1
    83     2     3    1
    84    81    78    1
    85    29    27   ar
    86     3     4    2
    87    78    77    1
    88    30    28   ar
    89     7     9   ar
    90    17    18    2
    91    17    22   am
    92    27    28   ar
    93    27    26    1
    94    22    23    1
    95    71    73   ar
    96    71    70   ar
    97    65    66    1
    98    47    46    1
    99    73    75   ar
   100    69    66    1
   101    69    70    1
   102    66    67    1
   103    26    23    1
   104    70    72   ar
   105    41    39   am
   106    23    24    1
   107    48    46    1
   108    46    43    1
   109    75    76    1
   110    75    74   ar
   111    67    68    2
   112    43    44    1
   113    43    42    1
   114    39    40    2
   115    39    38    1
   116    24    25    2
   117    72    74   ar
   118    44    45    2
   119    38    37    1
   120    36    35    2
   121    33    34    1
   122    37    34    1
   123    35    34    1
