@<TRIPOS>MOLECULE
tmp/5a5vA00.pdb
 123 116 0 0 0
SMALL
GASTEIGER

@<TRIPOS>ATOM
      1  N         -9.1780    7.3150   10.9300 N.3    59  ASN59      -0.1240
      2  CA        -8.5990    6.2030   10.1450 C.3    59  ASN59       0.1653
      3  C         -7.4450    5.4410   10.8360 C.2    59  ASN59       0.2266
      4  O         -6.5200    4.9780   10.1760 O.2    59  ASN59      -0.2867
      5  CB        -8.0880    6.7290    8.8400 C.3    59  ASN59       0.1155
      6  CG        -9.1210    7.5410    8.0970 C.2    59  ASN59       0.2627
      7  OD1       -8.9850    8.7570    7.8950 O.2    59  ASN59      -0.2716
      8  ND2      -10.1350    6.8760    7.6690 N.am   59  ASN59      -0.0877
      9  N         -7.4350   11.0370    7.4400 N.3    76  VAL76      -0.1231
     10  CA        -6.3830   11.3060    6.4760 C.3    76  VAL76       0.1692
     11  C         -6.8790   12.1340    5.2940 C.2    76  VAL76       0.2591
     12  O         -6.0980   12.8610    4.6700 O.2    76  VAL76      -0.2718
     13  CB        -5.6630   10.0240    6.0190 C.3    76  VAL76       0.0266
     14  CG1       -4.9930    9.3570    7.2230 C.3    76  VAL76       0.0020
     15  CG2       -6.6130    9.0560    5.2630 C.3    76  VAL76       0.0020
     16  N         -8.1640   12.0060    5.0060 N.am   77  GLN77      -0.1979
     17  CA        -8.8770   12.8180    4.0020 C.3    77  GLN77       0.1601
     18  C         -9.7750   13.8940    4.6420 C.2    77  GLN77       0.2287
     19  O        -10.6170   14.4680    3.9760 O.2    77  GLN77      -0.2864
     20  CB        -9.7550   11.8780    3.1380 C.3    77  GLN77       0.0394
     21  CG       -10.0680   12.4500    1.7470 C.3    77  GLN77       0.0908
     22  CD        -8.8040   12.7600    0.9190 C.2    77  GLN77       0.2608
     23  OE1       -7.9870   11.8730    0.6360 O.2    77  GLN77      -0.2717
     24  NE2       -8.6390   14.0280    0.5430 N.am   77  GLN77      -0.0878
     25  N          0.8820   12.1260    0.4450 N.3    96  GLY96      -0.1210
     26  CA         0.1620   12.5320   -0.7470 C.3    96  GLY96       0.1956
     27  C         -1.2470   13.0040   -0.5110 C.2    96  GLY96       0.2611
     28  O         -1.7290   13.8420   -1.2480 O.2    96  GLY96      -0.2717
     29  N         -1.9160   12.4430    0.4890 N.am   97  ARG97      -0.1979
     30  CA        -3.2990   12.7730    0.7430 C.3    97  ARG97       0.1597
     31  C         -3.4560   14.1860    1.2690 C.2    97  ARG97       0.2287
     32  O         -4.4890   14.7840    1.0650 O.2    97  ARG97      -0.2864
     33  CB        -3.9320   11.7890    1.7180 C.3    97  ARG97       0.0334
     34  CG        -4.0300   10.3710    1.1840 C.3    97  ARG97       0.0492
     35  CD        -4.8010    9.5440    2.2080 C.3    97  ARG97       0.2205
     36  NE        -5.2480    8.2420    1.7310 N.pl3  97  ARG97      -0.0865
     37  CZ        -4.5930    7.1000    1.8800 C.cat  97  ARG97       0.5346
     38  NH1       -3.4230    7.0560    2.4810 N.pl3  97  ARG97       0.1354
     39  NH2       -5.1360    5.9860    1.4320 N.pl3  97  ARG97       0.1354
     40  N         -2.2700   18.9400   -0.8740 N.3   100  LYS100     -0.1245
     41  CA        -2.9890   20.1150   -1.3160 C.3   100  LYS100      0.1561
     42  C         -3.1760   21.1090   -0.1740 C.2   100  LYS100      0.2260
     43  O         -3.4600   22.2560   -0.4350 O.2   100  LYS100     -0.2867
     44  CB        -4.3360   19.7270   -2.0010 C.3   100  LYS100      0.0271
     45  CG        -5.4060   19.1430   -1.0920 C.3   100  LYS100      0.0035
     46  CD        -6.6010   18.6400   -1.9190 C.3   100  LYS100      0.0206
     47  CE        -7.0030   17.2100   -1.5490 C.3   100  LYS100      0.1093
     48  NZ        -5.8740   16.2420   -1.7060 N.3   100  LYS100     -0.1314
     49  N          0.3730    2.4820   -6.8520 N.3   184  ARG184     -0.1245
     50  CA         0.5010    2.5940   -5.4180 C.3   184  ARG184      0.1563
     51  C          0.6530    1.2440   -4.7370 C.2   184  ARG184      0.2260
     52  O          1.0270    1.2300   -3.5890 O.2   184  ARG184     -0.2867
     53  CB        -0.7030    3.2970   -4.8190 C.3   184  ARG184      0.0307
     54  CG        -1.9940    2.4620   -4.8420 C.3   184  ARG184      0.0489
     55  CD        -3.2260    3.3120   -4.5240 C.3   184  ARG184      0.2205
     56  NE        -3.2160    3.7710   -3.1480 N.pl3 184  ARG184     -0.0865
     57  CZ        -4.0090    4.7280   -2.6580 C.cat 184  ARG184      0.5346
     58  NH1       -4.9160    5.3290   -3.4250 N.pl3 184  ARG184      0.1354
     59  NH2       -3.8760    5.1190   -1.3910 N.pl3 184  ARG184      0.1354
     60  N         -4.5040    7.1880   -9.1090 N.3   205  THR205     -0.1203
     61  CA        -4.5430    7.1190   -7.6600 C.3   205  THR205      0.1994
     62  C         -5.5110    6.1010   -7.1370 C.2   205  THR205      0.2617
     63  O         -5.1400    5.3020   -6.2890 O.2   205  THR205     -0.2717
     64  CB        -4.9240    8.4530   -7.0610 C.3   205  THR205      0.1784
     65  OG1       -4.0970    9.4460   -7.6200 O.3   205  THR205     -0.2211
     66  CG2       -4.8090    8.4510   -5.5170 C.3   205  THR205      0.0376
     67  N         -6.7400    6.1050   -7.6320 N.am  206  HIS206     -0.1975
     68  CA        -7.7210    5.0410   -7.2520 C.3   206  HIS206      0.1656
     69  C         -8.0420    4.0430   -8.3670 C.2   206  HIS206      0.2291
     70  O         -9.0610    3.3570   -8.3280 O.2   206  HIS206     -0.2864
     71  CB        -9.0190    5.6360   -6.6890 C.3   206  HIS206      0.0771
     72  CG        -8.8120    6.5120   -5.5010 C.ar  206  HIS206      0.0820
     73  ND1       -8.6420    7.8720   -5.6120 N.ar  206  HIS206     -0.2267
     74  CD2       -8.7430    6.2290   -4.1810 C.ar  206  HIS206      0.1154
     75  CE1       -8.4760    8.3960   -4.4110 C.ar  206  HIS206      0.1986
     76  NE2       -8.5410    7.4190   -3.5230 N.ar  206  HIS206     -0.2212
     77  N        -11.2330   -1.5340   -0.2980 N.3   228  ARG228     -0.1245
     78  CA       -11.3300   -0.1780    0.1550 C.3   228  ARG228      0.1563
     79  C        -12.5970    0.0270    1.0060 C.2   228  ARG228      0.2260
     80  O        -12.6230    0.8740    1.8770 O.2   228  ARG228     -0.2867
     81  CB       -11.3560    0.7590   -1.0480 C.3   228  ARG228      0.0307
     82  CG       -11.1720    2.2070   -0.7030 C.3   228  ARG228      0.0489
     83  CD       -10.8920    3.0250   -1.9630 C.3   228  ARG228      0.2205
     84  NE       -10.8750    4.4780   -1.7140 N.pl3 228  ARG228     -0.0865
     85  CZ       -11.9190    5.2880   -1.8110 C.cat 228  ARG228      0.5346
     86  NH1      -13.0900    4.8130   -2.1870 N.pl3 228  ARG228      0.1354
     87  NH2      -11.7750    6.5720   -1.5630 N.pl3 228  ARG228      0.1354
     88  N        -11.8200    0.3040    4.6510 N.3   231  ILE231     -0.1231
     89  CA       -11.3090    1.5820    5.0260 C.3   231  ILE231      0.1692
     90  C        -12.4250    2.6210    5.1290 C.2   231  ILE231      0.2591
     91  O        -12.3590    3.5090    5.9560 O.2   231  ILE231     -0.2718
     92  CB       -10.2570    2.0450    3.9750 C.3   231  ILE231      0.0266
     93  CG1       -9.0290    1.1000    3.9630 C.3   231  ILE231      0.0019
     94  CG2       -9.8500    3.4680    4.2010 C.3   231  ILE231      0.0020
     95  CD1       -8.6720    0.4600    5.2870 C.3   231  ILE231      0.0001
     96  N        -13.4330    2.5470    4.2630 N.am  232  LEU232     -0.1980
     97  CA       -14.4250    3.6030    4.2330 C.3   232  LEU232      0.1596
     98  C        -15.5410    3.3470    5.2360 C.2   232  LEU232      0.2287
     99  O        -16.3610    4.2290    5.4530 O.2   232  LEU232     -0.2864
    100  CB       -15.0110    3.7800    2.8210 C.3   232  LEU232      0.0297
    101  CG       -14.3100    4.7700    1.8850 C.3   232  LEU232      0.0022
    102  CD1      -14.3600    6.1960    2.4190 C.3   232  LEU232      0.0001
    103  CD2      -12.8660    4.3950    1.6870 C.3   232  LEU232      0.0001
    104  N         -3.6290   -0.0240    1.5470 N.3   266  TYR266     -0.1227
    105  CA        -4.2900    1.2050    1.0740 C.3   266  TYR266      0.1736
    106  C         -3.9600    2.4410    1.9160 C.2   266  TYR266      0.2595
    107  O         -3.6630    3.5370    1.3940 O.2   266  TYR266     -0.2718
    108  CB        -5.8090    0.9940    1.0340 C.3   266  TYR266      0.0548
    109  CG        -6.5200    2.1760    0.4110 C.ar  266  TYR266     -0.0200
    110  CD1       -6.3770    2.4760   -0.9550 C.ar  266  TYR266     -0.0009
    111  CD2       -7.2590    3.0530    1.1960 C.ar  266  TYR266     -0.0009
    112  CE1       -6.9910    3.6120   -1.5110 C.ar  266  TYR266      0.0417
    113  CE2       -7.8900    4.1510    0.6480 C.ar  266  TYR266      0.0417
    114  CZ        -7.7570    4.4340   -0.6940 C.ar  266  TYR266      0.1957
    115  OH        -8.3370    5.5650   -1.1690 O.3   266  TYR266     -0.2866
    116  N         -4.0740    2.2760    3.2270 N.am  267  LEU267     -0.1980
    117  CA        -3.8820    3.3800    4.1910 C.3   267  LEU267      0.1596
    118  C         -2.4010    3.6610    4.4260 C.2   267  LEU267      0.2287
    119  O         -1.9220    4.7580    4.1050 O.2   267  LEU267     -0.2864
    120  CB        -4.5680    3.0630    5.5290 C.3   267  LEU267      0.0297
    121  CG        -6.0140    3.4950    5.6570 C.3   267  LEU267      0.0022
    122  CD1       -6.4880    3.1070    7.0480 C.3   267  LEU267      0.0001
    123  CD2       -6.1640    4.9990    5.4360 C.3   267  LEU267      0.0001
@<TRIPOS>BOND
     1    60    61    1
     2    69    70    2
     3    69    68    1
     4    61    62    1
     5    61    64    1
     6    67    68    1
     7    67    62   am
     8    65    64    1
     9    68    71    1
    10    62    63    2
    11    64    66    1
    12    49    50    1
    13    71    72    1
    14    73    72   ar
    15    73    75   ar
    16    72    74   ar
    17    50    53    1
    18    50    51    1
    19    54    53    1
    20    54    55    1
    21    51    52    2
    22    55    56    1
    23    75    76   ar
    24    74    76   ar
    25    58    57    1
    26    56    57    2
    27    57    59    1
    28    86    85    1
    29    44    41    1
    30    44    45    1
    31    83    84    1
    32    83    82    1
    33    46    47    1
    34    46    45    1
    35    85    84    2
    36    85    87    1
    37    48    47    1
    38   112   110   ar
    39   112   114   ar
    40    41    40    1
    41    41    42    1
    42    28    27    2
    43   115   114    1
    44    81    82    1
    45    81    78    1
    46   110   109   ar
    47    26    27    1
    48    26    25    1
    49   114   113   ar
    50    27    29   am
    51    43    42    2
    52    77    78    1
    53    78    79    1
    54   109   108    1
    55   109   111   ar
    56    29    30    1
    57    24    22   am
    58    23    22    2
    59   113   111   ar
    60    30    31    1
    61    30    33    1
    62    22    21    1
    63    79    80    2
    64   108   105    1
    65    32    31    2
    66   105   104    1
    67   105   106    1
    68    34    33    1
    69    34    35    1
    70   107   106    2
    71    39    37    1
    72   103   101    1
    73    36    37    2
    74    36    35    1
    75    21    20    1
    76    37    38    1
    77   101   102    1
    78   101   100    1
    79   106   116   am
    80   100    97    1
    81    20    17    1
    82   116   117    1
    83    93    92    1
    84    93    95    1
    85    92    94    1
    86    92    89    1
    87    19    18    2
    88    17    18    1
    89    17    16    1
    90   119   118    2
    91   117   118    1
    92   117   120    1
    93    97    96    1
    94    97    98    1
    95    96    90   am
    96    88    89    1
    97    12    11    2
    98    16    11   am
    99    89    90    1
   100    90    91    2
   101    98    99    2
   102    15    13    1
   103    11    10    1
   104   123   121    1
   105   120   121    1
   106   121   122    1
   107    13    10    1
   108    13    14    1
   109    10     9    1
   110     8     6   am
   111     7     6    2
   112     6     5    1
   113     5     2    1
   114     2     3    1
   115     2     1    1
   116     4     3    2
