@<TRIPOS>MOLECULE
tmp/5a5zA00.pdb
 103 99 0 0 0
SMALL
GASTEIGER

@<TRIPOS>ATOM
      1  N          9.7640   56.4860  -15.9850 N.3    31  MET31      -0.1245
      2  CA         9.1770   55.6430  -14.9440 C.3    31  MET31       0.1570
      3  C          7.6540   55.6850  -14.8950 C.2    31  MET31       0.2261
      4  O          7.0580   56.7630  -14.8810 O.2    31  MET31      -0.2867
      5  CB         9.7400   56.0390  -13.5760 C.3    31  MET31       0.0387
      6  CG         9.5140   54.9990  -12.4910 C.3    31  MET31       0.0595
      7  SD        10.6110   55.2420  -11.0820 S.3    31  MET31      -0.1393
      8  CE        10.1010   53.8930  -10.0210 C.3    31  MET31       0.0692
      9  N         13.0880   59.5570  -14.5210 N.3    37  VAL37      -0.1245
     10  CA        13.8160   59.6290  -13.2570 C.3    37  VAL37       0.1561
     11  C         15.3040   59.3300  -13.4330 C.2    37  VAL37       0.2260
     12  O         15.6810   58.3130  -14.0160 O.2    37  VAL37      -0.2867
     13  CB        13.2310   58.6510  -12.2200 C.3    37  VAL37       0.0252
     14  CG1       13.9840   58.7590  -10.9030 C.3    37  VAL37       0.0019
     15  CG2       11.7530   58.9230  -12.0130 C.3    37  VAL37       0.0019
     16  N         19.8240   51.7740  -14.9430 N.3    57  TRP57      -0.1241
     17  CA        18.4970   51.1720  -14.8980 C.3    57  TRP57       0.1605
     18  C         18.4390   49.8730  -15.7020 C.2    57  TRP57       0.2264
     19  O         17.7810   48.9140  -15.2970 O.2    57  TRP57      -0.2867
     20  CB        17.4390   52.1440  -15.4230 C.3    57  TRP57       0.0550
     21  CG        17.2700   53.4020  -14.6210 C.ar   57  TRP57       0.0003
     22  CD1       17.8960   54.5960  -14.8290 C.ar   57  TRP57       0.0946
     23  CD2       16.3920   53.5990  -13.5050 C.ar   57  TRP57       0.0152
     24  NE1       17.4720   55.5210  -13.9040 N.ar   57  TRP57      -0.2442
     25  CE2       16.5480   54.9340  -13.0810 C.ar   57  TRP57       0.0810
     26  CE3       15.4940   52.7750  -12.8190 C.ar   57  TRP57       0.0012
     27  CZ2       15.8400   55.4630  -12.0030 C.ar   57  TRP57       0.0191
     28  CZ3       14.7900   53.3020  -11.7510 C.ar   57  TRP57       0.0001
     29  CH2       14.9680   54.6320  -11.3530 C.ar   57  TRP57       0.0015
     30  N         17.4470   47.5740   -5.8020 N.3    86  HIS86      -0.1226
     31  CA        16.4120   48.1770   -6.6340 C.3    86  HIS86       0.1752
     32  C         16.9440   48.3240   -8.0570 C.2    86  HIS86       0.2596
     33  O         18.1470   48.1980   -8.2850 O.2    86  HIS86      -0.2718
     34  CB        15.9610   49.5250   -6.0640 C.3    86  HIS86       0.0759
     35  CG        15.0050   49.4030   -4.9170 C.ar   86  HIS86       0.0818
     36  ND1       14.7530   50.4380   -4.0410 N.ar   86  HIS86      -0.2268
     37  CD2       14.2380   48.3670   -4.5030 C.ar   86  HIS86       0.1154
     38  CE1       13.8730   50.0440   -3.1390 C.ar   86  HIS86       0.1986
     39  NE2       13.5440   48.7910   -3.3960 N.ar   86  HIS86      -0.2212
     40  N         16.0510   48.5770   -9.0100 N.am   87  GLN87      -0.1965
     41  CA        16.4200   48.5620  -10.4250 C.3    87  GLN87       0.1733
     42  C         17.4420   49.6350  -10.7860 C.2    87  GLN87       0.2616
     43  O         18.3220   49.4070  -11.6150 O.2    87  GLN87      -0.2715
     44  CB        15.1810   48.7280  -11.3070 C.3    87  GLN87       0.0408
     45  CG        15.4450   48.4370  -12.7780 C.3    87  GLN87       0.0908
     46  CD        14.2970   48.8460  -13.6810 C.2    87  GLN87       0.2608
     47  OE1       13.2550   49.3030  -13.2140 O.2    87  GLN87      -0.2717
     48  NE2       14.4840   48.6750  -14.9850 N.am   87  GLN87      -0.0878
     49  N         17.3300   50.8010  -10.1590 N.am   88  ASP88      -0.1971
     50  CA        18.2320   51.9090  -10.4520 C.3    88  ASP88       0.1709
     51  C         19.6670   51.6030  -10.0290 C.2    88  ASP88       0.2293
     52  O         20.6010   52.2950  -10.4350 O.2    88  ASP88      -0.2864
     53  CB        17.7460   53.1860   -9.7650 C.3    88  ASP88       0.1436
     54  CG        17.5790   53.0170   -8.2680 C.2    88  ASP88       0.3671
     55  OD1       17.4050   51.8670   -7.8160 O.co2  88  ASP88      -0.2456
     56  OD2       17.6200   54.0340   -7.5440 O.co2  88  ASP88      -0.2456
     57  N         16.6080   53.6580    3.5930 N.3   153  HIS153     -0.1241
     58  CA        15.8150   53.6090    2.4010 C.3   153  HIS153      0.1621
     59  C         15.2110   52.2490    2.2020 C.2   153  HIS153      0.2264
     60  O         14.1320   52.1500    1.7280 O.2   153  HIS153     -0.2867
     61  CB        16.6530   54.0240    1.2230 C.3   153  HIS153      0.0745
     62  CG        15.9420   53.9810   -0.0840 C.ar  153  HIS153      0.0817
     63  ND1       14.9220   54.8360   -0.3910 N.ar  153  HIS153     -0.2268
     64  CD2       16.0750   53.1710   -1.1460 C.ar  153  HIS153      0.1154
     65  CE1       14.4640   54.5750   -1.5950 C.ar  153  HIS153      0.1986
     66  NE2       15.1540   53.5680   -2.0770 N.ar  153  HIS153     -0.2212
     67  N         20.5910   56.0340   -2.0930 N.3   172  CYS172     -0.1235
     68  CA        19.2370   56.5220   -1.9930 C.3   172  CYS172      0.1677
     69  C         18.8420   56.6770   -0.5260 C.2   172  CYS172      0.2270
     70  O         17.6780   56.9150   -0.2190 O.2   172  CYS172     -0.2867
     71  CB        18.2690   55.5810   -2.6920 C.3   172  CYS172      0.0956
     72  SG        18.2700   55.3230   -4.4760 S.3   172  CYS172     -0.0801
     73  N         18.8980   62.1880    0.7950 N.3   175  LYS175     -0.1245
     74  CA        18.2670   63.0740   -0.1740 C.3   175  LYS175      0.1561
     75  C         18.9060   64.4570   -0.0730 C.2   175  LYS175      0.2260
     76  O         19.5490   64.7720    0.9280 O.2   175  LYS175     -0.2867
     77  CB        16.7580   63.1520    0.0640 C.3   175  LYS175      0.0271
     78  CG        16.0810   61.7970    0.2100 C.3   175  LYS175      0.0035
     79  CD        16.3510   60.9040   -0.9910 C.3   175  LYS175      0.0206
     80  CE        15.7430   59.5240   -0.7970 C.3   175  LYS175      0.1093
     81  NZ        16.0290   58.6260   -1.9500 N.3   175  LYS175     -0.1314
     82  N         10.8040   60.3090   -0.6000 N.3   183  GLY183     -0.1210
     83  CA        10.6010   59.5440   -1.8160 C.3   183  GLY183      0.1956
     84  C          9.9480   58.1890   -1.6180 C.2   183  GLY183      0.2611
     85  O          8.9980   58.0500   -0.8480 O.2   183  GLY183     -0.2717
     86  N         10.4610   57.1890   -2.3300 N.am  184  ASN184     -0.1974
     87  CA         9.9200   55.8360   -2.2740 C.3   184  ASN184      0.1688
     88  C         10.1120   55.2100   -0.8990 C.2   184  ASN184      0.2292
     89  O         11.2010   54.7420   -0.5660 O.2   184  ASN184     -0.2864
     90  CB        10.5710   54.9600   -3.3460 C.3   184  ASN184      0.1181
     91  CG         9.9620   53.5740   -3.4190 C.2   184  ASN184      0.2629
     92  OD1        8.7950   53.3770   -3.0800 O.2   184  ASN184     -0.2716
     93  ND2       10.7520   52.6030   -3.8650 N.am  184  ASN184     -0.0877
     94  N         19.5870   60.4800   -6.7960 N.3   214  HIS214     -0.1241
     95  CA        18.6190   61.1720   -7.6430 C.3   214  HIS214      0.1621
     96  C         18.7590   62.6910   -7.6780 C.2   214  HIS214      0.2264
     97  O         17.9590   63.3740   -8.3180 O.2   214  HIS214     -0.2867
     98  CB        17.2090   60.7980   -7.1950 C.3   214  HIS214      0.0745
     99  CG        16.9800   59.3210   -7.1290 C.ar  214  HIS214      0.0817
    100  ND1       17.0210   58.5130   -8.2440 N.ar  214  HIS214     -0.2268
    101  CD2       16.7290   58.5030   -6.0800 C.ar  214  HIS214      0.1154
    102  CE1       16.7960   57.2620   -7.8870 C.ar  214  HIS214      0.1986
    103  NE2       16.6150   57.2280   -6.5790 N.ar  214  HIS214     -0.2212
@<TRIPOS>BOND
     1     1     2    1
     2    18    19    2
     3    18    17    1
     4    20    17    1
     5    20    21    1
     6    48    46   am
     7     2     3    1
     8     2     5    1
     9    16    17    1
    10     3     4    2
    11    22    21   ar
    12    22    24   ar
    13    21    23   ar
    14     9    10    1
    15    12    11    2
    16    24    25   ar
    17    46    47    2
    18    46    45    1
    19     5     6    1
    20    23    25   ar
    21    23    26   ar
    22    11    10    1
    23    10    13    1
    24    25    27   ar
    25    26    28   ar
    26    45    44    1
    27     6     7    1
    28    13    15    1
    29    13    14    1
    30    27    29   ar
    31    28    29   ar
    32    43    42    2
    33    44    41    1
    34     7     8    1
    35    42    41    1
    36    42    49   am
    37    50    49    1
    38    50    51    1
    39    50    53    1
    40    52    51    2
    41    41    40    1
    42    53    54    1
    43    40    32   am
    44    97    96    2
    45    33    32    2
    46    54    55   ar
    47    54    56   ar
    48   100   102   ar
    49   100    99   ar
    50    32    31    1
    51   102   103   ar
    52    96    95    1
    53    95    98    1
    54    95    94    1
    55    98    99    1
    56    99   101   ar
    57    31    34    1
    58    31    30    1
    59   103   101   ar
    60    34    35    1
    61    35    37   ar
    62    35    36   ar
    63    37    39   ar
    64    72    71    1
    65    36    38   ar
    66    93    91   am
    67    91    90    1
    68    91    92    2
    69    39    38   ar
    70    90    87    1
    71    71    68    1
    72    86    87    1
    73    86    84   am
    74    87    88    1
    75    67    68    1
    76    66    65   ar
    77    66    64   ar
    78    68    69    1
    79    81    80    1
    80    83    84    1
    81    83    82    1
    82    84    85    2
    83    65    63   ar
    84    64    62   ar
    85    79    80    1
    86    79    78    1
    87    88    89    2
    88    69    70    2
    89    63    62   ar
    90    74    75    1
    91    74    77    1
    92    74    73    1
    93    62    61    1
    94    75    76    2
    95    77    78    1
    96    61    58    1
    97    60    59    2
    98    59    58    1
    99    58    57    1
