@<TRIPOS>MOLECULE
tmp/5a61A00.pdb
 157 144 0 0 0
SMALL
GASTEIGER

@<TRIPOS>ATOM
      1  N         35.7670   55.4840   79.6450 N.3     5  GLU5       -0.1245
      2  CA        34.4300   54.9720   79.3600 C.3     5  GLU5        0.1567
      3  C         34.3790   53.4940   79.7280 C.2     5  GLU5        0.2260
      4  O         35.2850   52.7440   79.3780 O.2     5  GLU5       -0.2867
      5  CB        34.0590   55.1580   77.8850 C.3     5  GLU5        0.0388
      6  CG        32.6240   54.7420   77.5620 C.3     5  GLU5        0.1160
      7  CD        32.3080   54.7980   76.0830 C.2     5  GLU5        0.3649
      8  OE1       33.0160   54.1350   75.2970 O.co2   5  GLU5       -0.2457
      9  OE2       31.3420   55.4940   75.6980 O.co2   5  GLU5       -0.2457
     10  N         31.5250   50.4960   79.3370 N.3     7  GLU7       -0.1245
     11  CA        30.2100   50.0740   78.8820 C.3     7  GLU7        0.1567
     12  C         30.1800   48.6230   78.4510 C.2     7  GLU7        0.2260
     13  O         31.1690   48.0910   77.9200 O.2     7  GLU7       -0.2867
     14  CB        29.6930   50.9870   77.7680 C.3     7  GLU7        0.0388
     15  CG        30.4890   50.9750   76.4710 C.3     7  GLU7        0.1160
     16  CD        30.0020   52.0260   75.4810 C.2     7  GLU7        0.3649
     17  OE1       29.4880   53.0820   75.9120 O.co2   7  GLU7       -0.2457
     18  OE2       30.1310   51.8060   74.2620 O.co2   7  GLU7       -0.2457
     19  N         28.4080   46.0030   75.9800 N.3     9  LYS9       -0.1245
     20  CA        27.7160   45.9680   74.6890 C.3     9  LYS9        0.1561
     21  C         27.1030   44.6010   74.4500 C.2     9  LYS9        0.2260
     22  O         27.7950   43.5920   74.5650 O.2     9  LYS9       -0.2867
     23  CB        28.6820   46.2760   73.5400 C.3     9  LYS9        0.0271
     24  CG        28.0040   46.3750   72.1750 C.3     9  LYS9        0.0035
     25  CD        28.9770   46.3060   71.0080 C.3     9  LYS9        0.0206
     26  CE        29.9830   47.4450   70.9890 C.3     9  LYS9        0.1093
     27  NZ        29.3640   48.8010   70.8900 N.3     9  LYS9       -0.1314
     28  N         34.0040   58.6090   60.6830 N.3    41  TYR41      -0.1241
     29  CA        35.2920   58.2220   61.2530 C.3    41  TYR41       0.1605
     30  C         36.4030   58.4960   60.2460 C.2    41  TYR41       0.2264
     31  O         36.2310   58.2840   59.0440 O.2    41  TYR41      -0.2867
     32  CB        35.2950   56.7460   61.6410 C.3    41  TYR41       0.0534
     33  CG        34.5300   56.4280   62.9060 C.ar   41  TYR41      -0.0201
     34  CD1       33.1340   56.3580   62.9020 C.ar   41  TYR41      -0.0009
     35  CD2       35.1970   56.1660   64.1020 C.ar   41  TYR41      -0.0009
     36  CE1       32.4300   56.0480   64.0560 C.ar   41  TYR41       0.0417
     37  CE2       34.5010   55.8550   65.2640 C.ar   41  TYR41       0.0417
     38  CZ        33.1140   55.7970   65.2350 C.ar   41  TYR41       0.1957
     39  OH        32.4150   55.4860   66.3820 O.3    41  TYR41      -0.2866
     40  N         36.3770   60.2260   65.4200 N.3    57  ARG57      -0.1245
     41  CA        35.1280   60.5630   64.7390 C.3    57  ARG57       0.1563
     42  C         34.6630   61.9810   65.0170 C.2    57  ARG57       0.2260
     43  O         35.0580   62.6020   66.0040 O.2    57  ARG57      -0.2867
     44  CB        34.0030   59.5960   65.1440 C.3    57  ARG57       0.0307
     45  CG        33.5430   59.7320   66.5910 C.3    57  ARG57       0.0489
     46  CD        32.2310   59.0200   66.8470 C.3    57  ARG57       0.2205
     47  NE        31.8020   59.2400   68.2310 N.pl3  57  ARG57      -0.0865
     48  CZ        31.6960   58.3140   69.1880 C.cat  57  ARG57       0.5346
     49  NH1       31.9490   57.0210   68.9640 N.pl3  57  ARG57       0.1354
     50  NH2       31.3020   58.6940   70.4000 N.pl3  57  ARG57       0.1354
     51  N         30.8230   63.3410   65.5750 N.3    59  ARG59      -0.1245
     52  CA        29.4190   62.9720   65.7570 C.3    59  ARG59       0.1563
     53  C         28.5380   64.1980   65.5670 C.2    59  ARG59       0.2260
     54  O         28.8200   65.2530   66.1280 O.2    59  ARG59      -0.2867
     55  CB        29.1890   62.4030   67.1610 C.3    59  ARG59       0.0307
     56  CG        27.7200   62.1780   67.5160 C.3    59  ARG59       0.0489
     57  CD        27.5580   61.2020   68.6660 C.3    59  ARG59       0.2205
     58  NE        27.9700   59.8650   68.2640 N.pl3  59  ARG59      -0.0865
     59  CZ        28.0580   58.8060   69.0610 C.cat  59  ARG59       0.5346
     60  NH1       27.7550   58.8870   70.3550 N.pl3  59  ARG59       0.1354
     61  NH2       28.4650   57.6490   68.5460 N.pl3  59  ARG59       0.1354
     62  N         38.8710   57.8350   70.9410 N.3    70  LYS70      -0.1245
     63  CA        39.0070   56.7330   71.8770 C.3    70  LYS70       0.1561
     64  C         40.3230   56.0570   71.5720 C.2    70  LYS70       0.2260
     65  O         40.7390   55.9930   70.4140 O.2    70  LYS70      -0.2867
     66  CB        37.8660   55.7440   71.7100 C.3    70  LYS70       0.0271
     67  CG        36.5010   56.3530   71.9610 C.3    70  LYS70       0.0035
     68  CD        35.4150   55.2960   71.9600 C.3    70  LYS70       0.0206
     69  CE        34.0330   55.9330   71.9580 C.3    70  LYS70       0.1093
     70  NZ        33.0610   55.1370   72.7500 N.3    70  LYS70      -0.1314
     71  N         37.6420   51.8760   77.7330 N.3    82  ARG82      -0.1245
     72  CA        38.5010   52.6320   76.8250 C.3    82  ARG82       0.1563
     73  C         38.7230   54.0350   77.3560 C.2    82  ARG82       0.2260
     74  O         37.7650   54.6910   77.7750 O.2    82  ARG82      -0.2867
     75  CB        37.8550   52.7370   75.4430 C.3    82  ARG82       0.0307
     76  CG        37.7990   51.4270   74.6820 C.3    82  ARG82       0.0489
     77  CD        36.9460   51.5460   73.4310 C.3    82  ARG82       0.2205
     78  NE        35.5170   51.6190   73.7440 N.pl3  82  ARG82      -0.0865
     79  CZ        34.5340   51.6920   72.8460 C.cat  82  ARG82       0.5346
     80  NH1       34.7990   51.7120   71.5430 N.pl3  82  ARG82       0.1354
     81  NH2       33.2690   51.7490   73.2620 N.pl3  82  ARG82       0.1354
     82  N         38.9480   57.8660   76.7010 N.3    84  GLU84      -0.1245
     83  CA        38.3440   58.6900   75.6630 C.3    84  GLU84       0.1567
     84  C         38.4710   60.1570   76.0230 C.2    84  GLU84       0.2260
     85  O         38.6520   60.5160   77.1930 O.2    84  GLU84      -0.2867
     86  CB        36.8760   58.2900   75.4050 C.3    84  GLU84       0.0388
     87  CG        35.8430   58.9830   76.2810 C.3    84  GLU84       0.1160
     88  CD        34.4080   58.5620   76.0050 C.2    84  GLU84       0.3649
     89  OE1       34.1350   57.8390   75.0190 O.co2  84  GLU84      -0.2457
     90  OE2       33.5450   58.9780   76.7920 O.co2  84  GLU84      -0.2457
     91  N         28.8830   55.8160   60.6450 N.3   123  THR123     -0.1218
     92  CA        27.8200   55.1100   61.3470 C.3   123  THR123      0.1862
     93  C         26.6240   56.0610   61.4080 C.2   123  THR123      0.2287
     94  O         26.7790   57.2520   61.7080 O.2   123  THR123     -0.2866
     95  CB        28.2440   54.6160   62.7490 C.3   123  THR123      0.1770
     96  OG1       28.4690   55.7230   63.6250 O.3   123  THR123     -0.2211
     97  CG2       29.5040   53.7600   62.6680 C.3   123  THR123      0.0375
     98  N         22.7970   55.8360   62.9160 N.3   125  PHE125     -0.1241
     99  CA        21.8490   55.0500   63.6900 C.3   125  PHE125      0.1605
    100  C         21.0050   55.9010   64.6200 C.2   125  PHE125      0.2264
    101  O         21.3970   57.0050   65.0240 O.2   125  PHE125     -0.2867
    102  CB        22.5750   53.9360   64.4710 C.3   125  PHE125      0.0534
    103  CG        23.5850   54.4330   65.4750 C.ar  125  PHE125     -0.0203
    104  CD1       24.9040   54.6720   65.1010 C.ar  125  PHE125     -0.0042
    105  CD2       23.2230   54.6400   66.8010 C.ar  125  PHE125     -0.0042
    106  CE1       25.8340   55.1180   66.0340 C.ar  125  PHE125     -0.0003
    107  CE2       24.1450   55.0880   67.7350 C.ar  125  PHE125     -0.0003
    108  CZ        25.4570   55.3220   67.3510 C.ar  125  PHE125     -0.0000
    109  N         19.4030   56.2100   68.2560 N.3   127  ARG127     -0.1245
    110  CA        19.6960   55.7990   69.6310 C.3   127  ARG127      0.1563
    111  C         18.5500   56.2000   70.5460 C.2   127  ARG127      0.2260
    112  O         18.2300   57.3810   70.6540 O.2   127  ARG127     -0.2867
    113  CB        21.0000   56.4320   70.1320 C.3   127  ARG127      0.0307
    114  CG        21.2750   56.1940   71.6140 C.3   127  ARG127      0.0489
    115  CD        22.7080   56.5250   71.9970 C.3   127  ARG127      0.2205
    116  NE        23.6490   55.5440   71.4760 N.pl3 127  ARG127     -0.0865
    117  CZ        24.9770   55.6220   71.5820 C.cat 127  ARG127      0.5346
    118  NH1       25.5670   56.6550   72.1860 N.pl3 127  ARG127      0.1354
    119  NH2       25.7280   54.6550   71.0700 N.pl3 127  ARG127      0.1354
    120  N         23.6480   49.0020   74.7200 N.3   161  GLU161     -0.1245
    121  CA        24.8100   49.3480   75.5340 C.3   161  GLU161      0.1567
    122  C         24.3690   49.7660   76.9250 C.2   161  GLU161      0.2260
    123  O         23.4130   50.5230   77.0670 O.2   161  GLU161     -0.2867
    124  CB        25.6110   50.4700   74.8830 C.3   161  GLU161      0.0388
    125  CG        26.1230   50.1270   73.4930 C.3   161  GLU161      0.1160
    126  CD        27.1730   51.0930   72.9880 C.2   161  GLU161      0.3649
    127  OE1       27.1740   52.2670   73.4140 O.co2 161  GLU161     -0.2457
    128  OE2       28.0130   50.6930   72.1570 O.co2 161  GLU161     -0.2457
    129  N         26.0820   51.7560   79.7160 N.3   163  GLU163     -0.1245
    130  CA        27.2660   52.5600   80.0530 C.3   163  GLU163      0.1567
    131  C         27.1930   53.0230   81.4990 C.2   163  GLU163      0.2260
    132  O         26.1770   53.5680   81.9320 O.2   163  GLU163     -0.2867
    133  CB        27.4280   53.7700   79.1240 C.3   163  GLU163      0.0388
    134  CG        28.6360   54.6320   79.5020 C.3   163  GLU163      0.1160
    135  CD        29.0110   55.6990   78.4900 C.2   163  GLU163      0.3649
    136  OE1       28.5160   55.6820   77.3430 O.co2 163  GLU163     -0.2457
    137  OE2       29.8210   56.5710   78.8670 O.co2 163  GLU163     -0.2457
    138  N         33.6710   46.8830   68.5720 N.3   191  SER191     -0.1202
    139  CA        33.1560   48.2460   68.5590 C.3   191  SER191      0.2020
    140  C         32.5790   48.5600   67.1840 C.2   191  SER191      0.2619
    141  O         32.8760   47.8770   66.1960 O.2   191  SER191     -0.2717
    142  CB        34.2650   49.2360   68.8880 C.3   191  SER191      0.2103
    143  OG        35.2610   49.2110   67.8870 O.3   191  SER191     -0.2182
    144  N         31.7520   49.5960   67.1150 N.am  192  LYS192     -0.1965
    145  CA        31.2490   50.0560   65.8260 C.3   192  LYS192      0.1728
    146  C         32.4180   50.4310   64.9050 C.2   192  LYS192      0.2616
    147  O         32.3900   50.1150   63.7160 O.2   192  LYS192     -0.2715
    148  CB        30.2640   51.2210   65.9990 C.3   192  LYS192      0.0311
    149  CG        28.9510   50.8360   66.6760 C.3   192  LYS192      0.0038
    150  CD        28.0070   52.0260   66.7580 C.3   192  LYS192      0.0206
    151  CE        26.6890   51.7040   67.4560 C.3   192  LYS192      0.1093
    152  NZ        26.7750   51.5360   68.9330 N.3   192  LYS192     -0.1314
    153  N         33.4590   51.0530   65.4680 N.am  193  ALA193     -0.1977
    154  CA        34.6620   51.3880   64.6960 C.3   193  ALA193      0.1597
    155  C         35.3710   50.1540   64.1510 C.2   193  ALA193      0.2287
    156  O         35.7900   50.1490   62.9940 O.2   193  ALA193     -0.2864
    157  CB        35.6370   52.2230   65.5170 C.3   193  ALA193      0.0319
@<TRIPOS>BOND
     1    31    30    2
     2    30    29    1
     3    91    92    1
     4    28    29    1
     5    29    32    1
     6    92    93    1
     7    92    95    1
     8    93    94    2
     9    32    33    1
    10    97    95    1
    11    95    96    1
    12    34    33   ar
    13    34    36   ar
    14    33    35   ar
    15    98    99    1
    16   156   155    2
    17    99   102    1
    18    99   100    1
    19   147   146    2
    20    36    38   ar
    21    35    37   ar
    22   155   154    1
    23   102   103    1
    24   100   101    2
    25   154   153    1
    26   154   157    1
    27    41    42    1
    28    41    44    1
    29    41    40    1
    30   146   153   am
    31   146   145    1
    32    42    43    2
    33   104   103   ar
    34   104   106   ar
    35    44    45    1
    36    38    37   ar
    37    38    39    1
    38   103   105   ar
    39    53    52    1
    40    53    54    2
    41    51    52    1
    42    52    55    1
    43   145   148    1
    44   145   144    1
    45   148   149    1
    46   106   108   ar
    47   141   140    2
    48    45    46    1
    49   149   150    1
    50   150   151    1
    51   105   107   ar
    52    46    47    1
    53   144   140   am
    54    55    56    1
    55   140   139    1
    56   108   107   ar
    57   151   152    1
    58    56    57    1
    59   143   142    1
    60    47    48    2
    61   109   110    1
    62    58    57    1
    63    58    59    2
    64    61    59    1
    65   139   138    1
    66   139   142    1
    67    49    48    1
    68    59    60    1
    69    48    50    1
    70   110   113    1
    71   110   111    1
    72   113   114    1
    73    65    64    2
    74   111   112    2
    75    27    26    1
    76    62    63    1
    77    26    25    1
    78    25    24    1
    79   119   117    1
    80   116   117    2
    81   116   115    1
    82    80    79    1
    83    64    63    1
    84   117   118    1
    85   114   115    1
    86    66    63    1
    87    66    67    1
    88    69    68    1
    89    69    70    1
    90    68    67    1
    91   128   126   ar
    92    24    23    1
    93    79    81    1
    94    79    78    2
    95   126   127   ar
    96   126   125    1
    97    77    78    1
    98    77    76    1
    99   125   124    1
   100    23    20    1
   101    18    16   ar
   102    21    22    2
   103    21    20    1
   104    76    75    1
   105    20    19    1
   106   120   121    1
   107   124   121    1
   108    89    88   ar
   109     8     7   ar
   110    86    83    1
   111    86    87    1
   112    75    72    1
   113    16    17   ar
   114    16    15    1
   115   121   122    1
   116    83    84    1
   117    83    82    1
   118     9     7   ar
   119    88    87    1
   120    88    90   ar
   121    84    85    2
   122     7     6    1
   123    15    14    1
   124    72    73    1
   125    72    71    1
   126   122   123    2
   127   136   135   ar
   128    73    74    2
   129     6     5    1
   130    14    11    1
   131     5     2    1
   132    13    12    2
   133    12    11    1
   134   135   137   ar
   135   135   134    1
   136    11    10    1
   137   133   134    1
   138   133   130    1
   139     2     1    1
   140     2     3    1
   141     4     3    2
   142   129   130    1
   143   130   131    1
   144   131   132    2
