@<TRIPOS>MOLECULE
tmp/5a64A00.pdb
 233 216 0 0 0
SMALL
GASTEIGER

@<TRIPOS>ATOM
      1  N        -23.6350   31.4740   18.7030 N.3     4  GLU4       -0.1245
      2  CA       -23.1060   32.7800   19.0940 C.3     4  GLU4        0.1567
      3  C        -22.2630   33.2640   17.9220 C.2     4  GLU4        0.2260
      4  O        -21.4550   32.5060   17.3830 O.2     4  GLU4       -0.2867
      5  CB       -22.2860   32.6480   20.3870 C.3     4  GLU4        0.0388
      6  CG       -21.1050   33.6090   20.6020 C.3     4  GLU4        0.1160
      7  CD       -19.8890   32.9510   21.2730 C.2     4  GLU4        0.3649
      8  OE1      -19.9240   32.6730   22.4960 O.co2   4  GLU4       -0.2457
      9  OE2      -18.8690   32.7130   20.5760 O.co2   4  GLU4       -0.2457
     10  N        -19.7320   36.5270   16.9530 N.3     6  GLU6       -0.1245
     11  CA       -18.9850   37.5800   17.6280 C.3     6  GLU6        0.1567
     12  C        -17.8080   38.1730   16.8660 C.2     6  GLU6        0.2260
     13  O        -17.2110   37.5150   16.0460 O.2     6  GLU6       -0.2867
     14  CB       -18.4180   37.0250   18.9250 C.3     6  GLU6        0.0388
     15  CG       -17.3770   35.9100   18.7010 C.3     6  GLU6        0.1160
     16  CD       -16.5910   35.5490   19.9620 C.2     6  GLU6        0.3649
     17  OE1      -16.7650   36.2430   20.9840 O.co2   6  GLU6       -0.2457
     18  OE2      -15.7960   34.5670   19.9330 O.co2   6  GLU6       -0.2457
     19  N        -14.4090   40.4930   18.2080 N.3     8  LYS8       -0.1245
     20  CA       -13.7000   41.1520   19.3050 C.3     8  LYS8        0.1561
     21  C        -12.9850   42.4140   18.8540 C.2     8  LYS8        0.2260
     22  O        -12.5290   42.4960   17.7160 O.2     8  LYS8       -0.2867
     23  CB       -12.7360   40.1820   19.9530 C.3     8  LYS8        0.0271
     24  CG       -13.4640   38.9490   20.4840 C.3     8  LYS8        0.0035
     25  CD       -12.5770   38.0800   21.3490 C.3     8  LYS8        0.0206
     26  CE       -13.2000   36.7150   21.6010 C.3     8  LYS8        0.1093
     27  NZ       -14.4630   36.8440   22.3710 N.3     8  LYS8       -0.1314
     28  N        -13.7230   32.9260   35.6860 N.3    34  ASP34      -0.1239
     29  CA       -13.8520   31.8220   34.7310 C.3    34  ASP34       0.1674
     30  C        -12.7030   30.8340   34.9860 C.2    34  ASP34       0.2266
     31  O        -11.5730   31.2280   35.1940 O.2    34  ASP34      -0.2867
     32  CB       -13.6740   32.3270   33.2810 C.3    34  ASP34       0.1410
     33  CG       -14.9110   32.9700   32.6930 C.2    34  ASP34       0.3668
     34  OD1      -16.0220   32.6770   33.1200 O.co2  34  ASP34      -0.2456
     35  OD2      -14.7810   33.7360   31.7180 O.co2  34  ASP34      -0.2456
     36  N        -11.0690   27.4490   32.9230 N.3    36  TYR36      -0.1241
     37  CA       -11.0890   26.6480   31.7120 C.3    36  TYR36       0.1605
     38  C        -10.3470   25.3480   31.9720 C.2    36  TYR36       0.2264
     39  O         -9.3720   25.3400   32.7340 O.2    36  TYR36      -0.2867
     40  CB       -10.4520   27.3590   30.5150 C.3    36  TYR36       0.0534
     41  CG       -11.2740   28.4670   29.9670 C.ar   36  TYR36      -0.0201
     42  CD1      -11.2580   29.7600   30.5450 C.ar   36  TYR36      -0.0009
     43  CD2      -12.0870   28.2610   28.8800 C.ar   36  TYR36      -0.0009
     44  CE1      -12.0460   30.8050   30.0060 C.ar   36  TYR36       0.0417
     45  CE2      -12.8790   29.2740   28.3710 C.ar   36  TYR36       0.0417
     46  CZ       -12.8460   30.5370   28.9350 C.ar   36  TYR36       0.1957
     47  OH       -13.6790   31.4820   28.3590 O.3    36  TYR36      -0.2866
     48  N         -9.0640   22.0680   23.2440 N.3    45  MET45      -0.1245
     49  CA        -8.7990   23.3630   22.6370 C.3    45  MET45       0.1570
     50  C         -8.2070   23.1540   21.2170 C.2    45  MET45       0.2261
     51  O         -8.5430   23.8950   20.3070 O.2    45  MET45      -0.2867
     52  CB        -7.9730   24.2510   23.6070 C.3    45  MET45       0.0387
     53  CG        -8.7310   24.5530   24.9450 C.3    45  MET45       0.0595
     54  SD        -7.9630   25.6010   26.2320 S.3    45  MET45      -0.1393
     55  CE        -6.4170   24.7270   26.4750 C.3    45  MET45       0.0692
     56  N        -10.9500   22.9040   18.9510 N.3    48  ASP48      -0.1239
     57  CA       -11.8090   24.0990   18.9670 C.3    48  ASP48       0.1674
     58  C        -13.0290   23.9400   19.8680 C.2    48  ASP48       0.2266
     59  O        -14.0910   24.5220   19.6040 O.2    48  ASP48      -0.2867
     60  CB       -12.2210   24.5090   17.5320 C.3    48  ASP48       0.1410
     61  CG       -12.5580   25.9850   17.4110 C.2    48  ASP48       0.3668
     62  OD1      -12.1920   26.7740   18.3050 O.co2  48  ASP48      -0.2456
     63  OD2      -13.1920   26.3540   16.4050 O.co2  48  ASP48      -0.2456
     64  N        -14.1140   24.4470   23.9830 N.3    50  TRP50      -0.1241
     65  CA       -13.6950   25.2740   25.1100 C.3    50  TRP50       0.1605
     66  C        -14.6630   25.0090   26.2830 C.2    50  TRP50       0.2264
     67  O        -15.8370   25.3540   26.2140 O.2    50  TRP50      -0.2867
     68  CB       -13.6820   26.7610   24.6750 C.3    50  TRP50       0.0550
     69  CG       -12.9230   26.9490   23.3930 C.ar   50  TRP50       0.0003
     70  CD1      -13.4060   26.7860   22.1140 C.ar   50  TRP50       0.0946
     71  CD2      -11.5330   27.2650   23.2530 C.ar   50  TRP50       0.0152
     72  NE1      -12.4050   26.9880   21.2040 N.ar   50  TRP50      -0.2442
     73  CE2      -11.2450   27.2850   21.8720 C.ar   50  TRP50       0.0810
     74  CE3      -10.4990   27.5010   24.1590 C.ar   50  TRP50       0.0012
     75  CZ2       -9.9730   27.5610   21.3790 C.ar   50  TRP50       0.0191
     76  CZ3       -9.2230   27.7920   23.6580 C.ar   50  TRP50       0.0001
     77  CH2       -8.9760   27.8350   22.2890 C.ar   50  TRP50       0.0015
     78  N        -15.6220   25.5400   30.2030 N.3    52  ARG52      -0.1245
     79  CA       -15.4070   26.3640   31.3450 C.3    52  ARG52       0.1563
     80  C        -16.4880   26.3440   32.4010 C.2    52  ARG52       0.2260
     81  O        -17.6400   26.0980   32.1190 O.2    52  ARG52      -0.2867
     82  CB       -15.2020   27.7800   30.8780 C.3    52  ARG52       0.0307
     83  CG       -16.4600   28.4710   30.5120 C.3    52  ARG52       0.0489
     84  CD       -16.2470   29.9180   30.1580 C.3    52  ARG52       0.2205
     85  NE       -17.5190   30.5260   29.8130 N.pl3  52  ARG52      -0.0865
     86  CZ       -17.7120   31.4070   28.8280 C.cat  52  ARG52       0.5346
     87  NH1      -16.7480   31.8700   28.0480 N.pl3  52  ARG52       0.1354
     88  NH2      -18.9180   31.8630   28.6390 N.pl3  52  ARG52       0.1354
     89  N        -18.0220   29.0450   34.9870 N.3    54  ARG54      -0.1245
     90  CA       -18.1310   30.4700   35.2210 C.3    54  ARG54       0.1563
     91  C        -18.9090   30.7220   36.4910 C.2    54  ARG54       0.2260
     92  O        -20.0370   30.2390   36.6580 O.2    54  ARG54      -0.2867
     93  CB       -18.8540   31.1620   34.0740 C.3    54  ARG54       0.0307
     94  CG       -19.1200   32.6580   34.2570 C.3    54  ARG54       0.0489
     95  CD       -19.5370   33.2830   32.9090 C.3    54  ARG54       0.2205
     96  NE       -18.3770   33.5010   32.0780 N.pl3  54  ARG54      -0.0865
     97  CZ       -18.3670   34.0970   30.8920 C.cat  54  ARG54       0.5346
     98  NH1      -19.4930   34.5220   30.3240 N.pl3  54  ARG54       0.1354
     99  NH2      -17.2070   34.2730   30.2860 N.pl3  54  ARG54       0.1354
    100  N        -18.1790   25.6330   24.5760 N.3    62  LYS62      -0.1245
    101  CA       -18.2430   26.2080   23.2290 C.3    62  LYS62       0.1561
    102  C        -17.8260   25.1510   22.2170 C.2    62  LYS62       0.2260
    103  O        -16.7940   24.5290   22.3810 O.2    62  LYS62      -0.2867
    104  CB       -17.3830   27.4590   23.1260 C.3    62  LYS62       0.0271
    105  CG       -17.9330   28.5870   23.9980 C.3    62  LYS62       0.0035
    106  CD       -17.2800   29.9420   23.7500 C.3    62  LYS62       0.0206
    107  CE       -17.5410   30.9560   24.8790 C.3    62  LYS62       0.1093
    108  NZ       -18.8300   31.7110   24.7940 N.3    62  LYS62      -0.1314
    109  N        -15.9530   35.2090   14.4820 N.3    74  ASN74      -0.1240
    110  CA       -16.0670   33.7620   14.7440 C.3    74  ASN74       0.1653
    111  C        -17.4610   33.2960   15.2520 C.2    74  ASN74       0.2266
    112  O        -18.3010   34.1230   15.6410 O.2    74  ASN74      -0.2867
    113  CB       -14.9480   33.2960   15.7100 C.3    74  ASN74       0.1155
    114  CG       -14.1120   32.1410   15.1500 C.2    74  ASN74       0.2627
    115  OD1      -14.2640   31.7340   13.9930 O.2    74  ASN74      -0.2716
    116  ND2      -13.1970   31.6320   15.9650 N.am   74  ASN74      -0.0877
    117  N        -19.6580   29.9680   17.3670 N.3    76  TYR76      -0.1241
    118  CA       -19.6320   28.8130   18.2440 C.3    76  TYR76       0.1605
    119  C        -21.0410   28.4860   18.6210 C.2    76  TYR76       0.2264
    120  O        -21.8840   29.3760   18.6470 O.2    76  TYR76      -0.2867
    121  CB       -18.7830   29.1040   19.5050 C.3    76  TYR76       0.0534
    122  CG       -17.3260   29.0970   19.1370 C.ar   76  TYR76      -0.0201
    123  CD1      -16.7080   30.2450   18.6660 C.ar   76  TYR76      -0.0009
    124  CD2      -16.5920   27.9010   19.1470 C.ar   76  TYR76      -0.0009
    125  CE1      -15.3880   30.2130   18.2490 C.ar   76  TYR76       0.0417
    126  CE2      -15.2760   27.8660   18.7410 C.ar   76  TYR76       0.0417
    127  CZ       -14.6850   29.0190   18.3050 C.ar   76  TYR76       0.1957
    128  OH       -13.3940   28.9710   17.9010 O.3    76  TYR76      -0.2866
    129  N        -23.0260   27.3510   21.8280 N.3    78  GLU78      -0.1245
    130  CA       -22.7850   27.4040   23.2650 C.3    78  GLU78       0.1567
    131  C        -23.7040   26.3680   23.9390 C.2    78  GLU78       0.2260
    132  O        -24.9100   26.5090   23.8860 O.2    78  GLU78      -0.2867
    133  CB       -23.0430   28.8340   23.7790 C.3    78  GLU78       0.0388
    134  CG       -22.9910   29.0390   25.2960 C.3    78  GLU78       0.1160
    135  CD       -21.8440   29.9330   25.8050 C.2    78  GLU78       0.3649
    136  OE1      -21.6070   31.0330   25.2220 O.co2  78  GLU78      -0.2457
    137  OE2      -21.1960   29.5540   26.8050 O.co2  78  GLU78      -0.2457
    138  N        -16.8480   42.9330   33.7790 N.3   122  ARG122     -0.1245
    139  CA       -17.5080   43.0920   32.5080 C.3   122  ARG122      0.1563
    140  C        -18.5860   44.1840   32.6000 C.2   122  ARG122      0.2260
    141  O        -19.3970   44.1500   33.5310 O.2   122  ARG122     -0.2867
    142  CB       -18.1730   41.7660   32.1030 C.3   122  ARG122      0.0307
    143  CG       -19.1920   41.8920   30.9770 C.3   122  ARG122      0.0489
    144  CD       -19.6290   40.5270   30.4610 C.3   122  ARG122      0.2205
    145  NE       -18.5110   39.9230   29.7450 N.pl3 122  ARG122     -0.0865
    146  CZ       -18.5120   38.7340   29.1580 C.cat 122  ARG122      0.5346
    147  NH1      -19.5850   37.9440   29.1660 N.pl3 122  ARG122      0.1354
    148  NH2      -17.4230   38.3490   28.5190 N.pl3 122  ARG122      0.1354
    149  N        -19.9710   43.6240   25.1560 N.3   133  ASP133     -0.1239
    150  CA       -19.3790   43.3980   26.4750 C.3   133  ASP133      0.1674
    151  C        -17.9880   43.9910   26.4820 C.2   133  ASP133      0.2266
    152  O        -17.1850   43.6740   25.5990 O.2   133  ASP133     -0.2867
    153  CB       -19.3250   41.9030   26.7910 C.3   133  ASP133      0.1410
    154  CG       -20.7080   41.3030   27.0420 C.2   133  ASP133      0.3668
    155  OD1      -21.5770   41.9340   27.6730 O.co2 133  ASP133     -0.2456
    156  OD2      -20.9360   40.1800   26.5960 O.co2 133  ASP133     -0.2456
    157  N        -14.7180   44.1440   28.6690 N.3   135  ASP135     -0.1239
    158  CA       -14.1460   43.3050   29.6950 C.3   135  ASP135      0.1674
    159  C        -12.7720   43.7770   30.1130 C.2   135  ASP135      0.2266
    160  O        -11.9950   44.1960   29.2810 O.2   135  ASP135     -0.2867
    161  CB       -13.9700   41.8830   29.1620 C.3   135  ASP135      0.1410
    162  CG       -15.2620   41.1170   29.0410 C.2   135  ASP135      0.3668
    163  OD1      -16.3170   41.5780   29.5610 O.co2 135  ASP135     -0.2456
    164  OD2      -15.2070   40.0240   28.4370 O.co2 135  ASP135     -0.2456
    165  N        -16.3030   42.7880   22.8520 N.3   145  GLU145     -0.1245
    166  CA       -16.9160   41.9940   21.8240 C.3   145  GLU145      0.1567
    167  C        -18.3280   42.4860   21.5210 C.2   145  GLU145      0.2260
    168  O        -19.1060   42.8320   22.4240 O.2   145  GLU145     -0.2867
    169  CB       -16.9170   40.5050   22.1880 C.3   145  GLU145      0.0388
    170  CG       -17.9290   40.1290   23.2280 C.3   145  GLU145      0.1160
    171  CD       -17.8330   38.6880   23.6890 C.2   145  GLU145      0.3649
    172  OE1      -17.4730   37.8370   22.8160 O.co2 145  GLU145     -0.2457
    173  OE2      -18.1480   38.4300   24.9140 O.co2 145  GLU145     -0.2457
    174  N        -21.6670   40.9800   19.8920 N.3   147  GLU147     -0.1245
    175  CA       -22.1520   39.6230   19.8230 C.3   147  GLU147      0.1567
    176  C        -23.6540   39.5320   19.5390 C.2   147  GLU147      0.2260
    177  O        -24.4200   40.3960   19.9540 O.2   147  GLU147     -0.2867
    178  CB       -21.7740   38.9400   21.1250 C.3   147  GLU147      0.0388
    179  CG       -22.4040   37.5880   21.3700 C.3   147  GLU147      0.1160
    180  CD       -21.8660   36.9070   22.6250 C.2   147  GLU147      0.3649
    181  OE1      -21.0630   37.5130   23.3890 O.co2 147  GLU147     -0.2457
    182  OE2      -22.2610   35.7420   22.8410 O.co2 147  GLU147     -0.2457
    183  N         -7.9900   42.4180   14.9070 N.3   177  GLU177     -0.1245
    184  CA        -8.5830   41.1440   15.3420 C.3   177  GLU177      0.1567
    185  C         -8.0890   40.9490   16.7570 C.2   177  GLU177      0.2260
    186  O         -7.0850   40.2970   16.9790 O.2   177  GLU177     -0.2867
    187  CB        -8.1190   40.0170   14.3970 C.3   177  GLU177      0.0388
    188  CG        -8.3440   38.5740   14.8700 C.3   177  GLU177      0.1160
    189  CD        -8.0980   37.5520   13.7700 C.2   177  GLU177      0.3649
    190  OE1       -7.4280   37.8730   12.7580 O.co2 177  GLU177     -0.2457
    191  OE2       -8.6120   36.4200   13.9170 O.co2 177  GLU177     -0.2457
    192  N         -7.2680   39.7590   20.4430 N.3   179  PRO179     -0.2102
    193  CA        -7.3310   38.3850   20.9710 C.3   179  PRO179      0.1504
    194  C         -8.2420   38.1790   22.1800 C.2   179  PRO179      0.2576
    195  O         -8.4560   39.0940   22.9860 O.2   179  PRO179     -0.2718
    196  CB        -5.8820   38.0910   21.3610 C.3   179  PRO179      0.0282
    197  CG        -5.3230   39.4310   21.6880 C.3   179  PRO179      0.0208
    198  CD        -5.9390   40.3660   20.6700 C.3   179  PRO179      0.0893
    199  N         -8.7420   36.9600   22.3040 N.am  180  ALA180     -0.1966
    200  CA        -9.5260   36.5560   23.4710 C.3   180  ALA180      0.1728
    201  C         -8.6990   36.6320   24.7590 C.2   180  ALA180      0.2616
    202  O         -7.4760   36.4160   24.7630 O.2   180  ALA180     -0.2715
    203  CB       -10.0700   35.1480   23.2620 C.3   180  ALA180      0.0334
    204  N         -9.3790   36.9290   25.8550 N.am  181  LYS181     -0.1963
    205  CA        -8.7350   36.9680   27.1740 C.3   181  LYS181      0.1728
    206  C         -7.9680   35.6850   27.4760 C.2   181  LYS181      0.2616
    207  O         -6.8380   35.7630   27.9210 O.2   181  LYS181     -0.2715
    208  CB        -9.7550   37.1580   28.2700 C.3   181  LYS181      0.0311
    209  CG       -10.4400   38.5210   28.2190 C.3   181  LYS181      0.0038
    210  CD       -11.4840   38.7150   29.3110 C.3   181  LYS181      0.0206
    211  CE       -12.6070   37.7150   29.2990 C.3   181  LYS181      0.1093
    212  NZ       -13.5080   37.6580   28.1450 N.3   181  LYS181     -0.1314
    213  N         -8.5940   34.5360   27.2200 N.am  182  LEU182     -0.1963
    214  CA        -7.9680   33.2180   27.4110 C.3   182  LEU182      0.1728
    215  C         -6.6640   33.0600   26.6190 C.2   182  LEU182      0.2616
    216  O         -5.6960   32.5090   27.1500 O.2   182  LEU182     -0.2715
    217  CB        -8.9080   32.0600   27.0870 C.3   182  LEU182      0.0311
    218  CG        -8.3100   30.6580   27.2570 C.3   182  LEU182      0.0022
    219  CD1       -7.7460   30.3380   28.6530 C.3   182  LEU182      0.0001
    220  CD2       -9.3570   29.6080   26.8960 C.3   182  LEU182      0.0001
    221  N         -6.6300   33.5940   25.3910 N.am  183  MET183     -0.1977
    222  CA        -5.4390   33.4930   24.5910 C.3   183  MET183      0.1605
    223  C         -4.2920   34.3570   25.1270 C.2   183  MET183      0.2287
    224  O         -3.1490   33.9490   25.0400 O.2   183  MET183     -0.2864
    225  CB        -5.7290   33.8210   23.1060 C.3   183  MET183      0.0413
    226  CG        -6.7220   32.8540   22.4740 C.3   183  MET183      0.0598
    227  SD        -5.9950   31.2230   22.1960 S.3   183  MET183     -0.1393
    228  CE        -6.7420   30.3160   23.5190 C.3   183  MET183      0.0692
    229  N         -2.2760   25.9070   14.4990 N.3   201  ALA201     -0.1245
    230  CA        -3.0450   26.8750   13.6950 C.3   201  ALA201      0.1562
    231  C         -2.4110   27.0840   12.3150 C.2   201  ALA201      0.2260
    232  O         -3.1070   27.0720   11.3040 O.2   201  ALA201     -0.2867
    233  CB        -3.1750   28.2050   14.4270 C.3   201  ALA201      0.0290
@<TRIPOS>BOND
     1   232   231    2
     2   231   230    1
     3   190   189   ar
     4   230   233    1
     5   230   229    1
     6   189   191   ar
     7   189   188    1
     8   115   114    2
     9   187   188    1
    10   187   184    1
    11   109   110    1
    12   110   111    1
    13   110   113    1
    14   183   184    1
    15   114   113    1
    16   114   116   am
    17   111   112    2
    18   184   185    1
    19    13    12    2
    20    63    61   ar
    21   185   186    2
    22    12    11    1
    23    10    11    1
    24   117   118    1
    25     4     3    2
    26    61    60    1
    27    61    62   ar
    28    60    57    1
    29    11    14    1
    30    22    21    2
    31   128   127    1
    32     3     2    1
    33    19    20    1
    34   118   119    1
    35   118   121    1
    36   125   127   ar
    37   125   123   ar
    38   127   126   ar
    39   119   120    2
    40   123   122   ar
    41    15    14    1
    42    15    16    1
    43     1     2    1
    44   126   124   ar
    45    21    20    1
    46    56    57    1
    47    57    58    1
    48     2     5    1
    49   122   124   ar
    50   122   121    1
    51    20    23    1
    52   176   175    1
    53   176   177    2
    54    59    58    2
    55   175   174    1
    56   175   178    1
    57    18    16   ar
    58    23    24    1
    59    16    17   ar
    60    51    50    2
    61     5     6    1
    62   192   198    1
    63   192   193    1
    64    24    25    1
    65     9     7   ar
    66     6     7    1
    67   198   197    1
    68   193   196    1
    69   193   194    1
    70   178   179    1
    71    72    73   ar
    72    72    70   ar
    73    50    49    1
    74     7     8   ar
    75    25    26    1
    76   196   197    1
    77   179   180    1
    78    75    73   ar
    79    75    77   ar
    80   167   166    1
    81   167   168    2
    82    26    27    1
    83   166   169    1
    84   166   165    1
    85   129   130    1
    86    73    71   ar
    87    70    69   ar
    88   194   199   am
    89   194   195    2
    90   169   170    1
    91   227   226    1
    92   227   228    1
    93   102   103    2
    94   102   101    1
    95    77    76   ar
    96   199   200    1
    97   226   225    1
    98   180   182   ar
    99   180   181   ar
   100    49    48    1
   101    49    52    1
   102   172   171   ar
   103   225   222    1
   104   104   101    1
   105   104   105    1
   106   170   171    1
   107   101   100    1
   108    71    69   ar
   109    71    74   ar
   110   203   200    1
   111   130   133    1
   112   130   131    1
   113    69    68    1
   114   200   201    1
   115    52    53    1
   116    76    74   ar
   117   171   173   ar
   118   106   105    1
   119   106   107    1
   120   133   134    1
   121   132   131    2
   122    64    65    1
   123   222   223    1
   124   222   221    1
   125    68    65    1
   126   201   202    2
   127   201   204   am
   128   108   107    1
   129    53    54    1
   130   224   223    2
   131    65    66    1
   132   149   150    1
   133   136   135   ar
   134   134   135    1
   135   221   215   am
   136   152   151    2
   137   135   137   ar
   138   204   205    1
   139    67    66    2
   140    54    55    1
   141   150   151    1
   142   150   153    1
   143   156   154   ar
   144   215   216    2
   145   215   214    1
   146   153   154    1
   147   220   218    1
   148   154   155   ar
   149   217   218    1
   150   217   214    1
   151   205   206    1
   152   205   208    1
   153   213   214    1
   154   213   206   am
   155   218   219    1
   156   206   207    2
   157    87    86    1
   158   212   211    1
   159   209   208    1
   160   209   210    1
   161    47    46    1
   162    45    43   ar
   163    45    46   ar
   164   164   162   ar
   165   148   146    1
   166    88    86    1
   167   157   158    1
   168    86    85    2
   169    43    41   ar
   170    46    44   ar
   171   162   161    1
   172   162   163   ar
   173   146   147    1
   174   146   145    2
   175   161   158    1
   176   160   159    2
   177   211   210    1
   178   158   159    1
   179   145   144    1
   180    85    84    1
   181    41    40    1
   182    41    42   ar
   183    44    42   ar
   184    84    83    1
   185    78    79    1
   186    99    97    1
   187    98    97    1
   188   144   143    1
   189    83    82    1
   190    40    37    1
   191    82    79    1
   192    97    96    2
   193   143   142    1
   194    79    80    1
   195    37    38    1
   196    37    36    1
   197    35    33   ar
   198    38    39    2
   199    96    95    1
   200   142   139    1
   201    81    80    2
   202   139   140    1
   203   139   138    1
   204   140   141    2
   205    33    34   ar
   206    33    32    1
   207    95    94    1
   208    32    29    1
   209    93    94    1
   210    93    90    1
   211    29    30    1
   212    29    28    1
   213    30    31    2
   214    89    90    1
   215    90    91    1
   216    91    92    2
