@<TRIPOS>MOLECULE
tmp/5a65A00.pdb
 184 173 0 0 0
SMALL
GASTEIGER

@<TRIPOS>ATOM
      1  N         34.4290  -21.5660   17.4210 N.3    11  GLU11      -0.1245
      2  CA        34.1910  -20.2300   16.9080 C.3    11  GLU11       0.1567
      3  C         35.4410  -19.6030   16.2870 C.2    11  GLU11       0.2260
      4  O         36.5720  -19.9030   16.6980 O.2    11  GLU11      -0.2867
      5  CB        33.6240  -19.3490   18.0240 C.3    11  GLU11       0.0388
      6  CG        34.6970  -18.7850   18.9470 C.3    11  GLU11       0.1160
      7  CD        34.1820  -18.1360   20.2100 C.2    11  GLU11       0.3649
      8  OE1       33.0720  -18.4900   20.7040 O.co2  11  GLU11      -0.2457
      9  OE2       34.9440  -17.2730   20.7020 O.co2  11  GLU11      -0.2457
     10  N         36.4660  -15.5600   14.6920 N.3    13  LYS13      -0.1245
     11  CA        36.1570  -14.1710   14.3880 C.3    13  LYS13       0.1561
     12  C         36.8660  -13.7050   13.1170 C.2    13  LYS13       0.2260
     13  O         37.9300  -14.2000   12.7930 O.2    13  LYS13      -0.2867
     14  CB        36.5730  -13.2710   15.5500 C.3    13  LYS13       0.0271
     15  CG        35.8110  -13.5210   16.8370 C.3    13  LYS13       0.0035
     16  CD        36.3600  -12.6350   17.9540 C.3    13  LYS13       0.0206
     17  CE        35.4500  -12.5640   19.1540 C.3    13  LYS13       0.1093
     18  NZ        35.1080  -13.9040   19.6880 N.3    13  LYS13      -0.1314
     19  N         26.1130   -5.3510   26.6610 N.3    39  ASP39      -0.1239
     20  CA        27.0470   -6.1530   27.4730 C.3    39  ASP39       0.1674
     21  C         27.7380   -5.2170   28.4710 C.2    39  ASP39       0.2266
     22  O         28.1230   -4.1040   28.1050 O.2    39  ASP39      -0.2867
     23  CB        28.1350   -6.8060   26.5990 C.3    39  ASP39       0.1410
     24  CG        27.6790   -8.0960   25.9390 C.2    39  ASP39       0.3668
     25  OD1       26.9710   -8.8990   26.6000 O.co2  39  ASP39      -0.2456
     26  OD2       28.0460   -8.3210   24.7530 O.co2  39  ASP39      -0.2456
     27  N         30.9250   -5.6100   31.3490 N.3    41  TYR41      -0.1241
     28  CA        31.9530   -6.4630   31.9390 C.3    41  TYR41       0.1605
     29  C         32.3920   -5.9010   33.2790 C.2    41  TYR41       0.2264
     30  O         32.3010   -4.6910   33.5060 O.2    41  TYR41      -0.2867
     31  CB        33.1460   -6.6280   30.9820 C.3    41  TYR41       0.0534
     32  CG        32.8190   -7.5250   29.7970 C.ar   41  TYR41      -0.0201
     33  CD1       32.1740   -7.0140   28.6720 C.ar   41  TYR41      -0.0009
     34  CD2       33.1290   -8.8920   29.8140 C.ar   41  TYR41      -0.0009
     35  CE1       31.8500   -7.8290   27.5870 C.ar   41  TYR41       0.0417
     36  CE2       32.8190   -9.7120   28.7260 C.ar   41  TYR41       0.0417
     37  CZ        32.1810   -9.1790   27.6180 C.ar   41  TYR41       0.1957
     38  OH        31.8660   -9.9700   26.5500 O.3    41  TYR41      -0.2866
     39  N         40.6530  -10.6230   34.4410 N.3    50  MET50      -0.1245
     40  CA        41.1750  -10.6320   33.0820 C.3    50  MET50       0.1570
     41  C         42.6180  -11.1150   32.9800 C.2    50  MET50       0.2261
     42  O         42.9610  -11.7860   32.0210 O.2    50  MET50      -0.2867
     43  CB        41.0360   -9.2520   32.4590 C.3    50  MET50       0.0387
     44  CG        39.5840   -8.8280   32.3390 C.3    50  MET50       0.0595
     45  SD        39.3450   -7.2440   31.4920 S.3    50  MET50      -0.1393
     46  CE        37.6000   -7.0270   31.8120 C.3    50  MET50       0.0692
     47  N         42.6040  -14.7150   32.6380 N.3    53  ASP53      -0.1239
     48  CA        41.7590  -15.2070   31.5410 C.3    53  ASP53       0.1674
     49  C         40.3340  -15.5800   31.9880 C.2    53  ASP53       0.2266
     50  O         39.7560  -16.5500   31.5050 O.2    53  ASP53      -0.2867
     51  CB        42.4510  -16.3780   30.8150 C.3    53  ASP53       0.1410
     52  CG        42.0720  -16.4900   29.3400 C.2    53  ASP53       0.3668
     53  OD1       41.4240  -15.5820   28.7560 O.co2  53  ASP53      -0.2456
     54  OD2       42.4550  -17.5140   28.7450 O.co2  53  ASP53      -0.2456
     55  N         36.4020  -13.8680   32.4810 N.3    55  TRP55      -0.1241
     56  CA        35.6360  -12.8280   31.8030 C.3    55  TRP55       0.1605
     57  C         34.2030  -12.8860   32.2920 C.2    55  TRP55       0.2264
     58  O         33.4780  -13.8310   31.9580 O.2    55  TRP55      -0.2867
     59  CB        35.7120  -13.0310   30.2790 C.3    55  TRP55       0.0550
     60  CG        37.1240  -13.1410   29.8240 C.ar   55  TRP55       0.0003
     61  CD1       37.8670  -14.2850   29.7200 C.ar   55  TRP55       0.0946
     62  CD2       37.9940  -12.0650   29.4970 C.ar   55  TRP55       0.0152
     63  NE1       39.1380  -13.9880   29.3180 N.ar   55  TRP55      -0.2442
     64  CE2       39.2480  -12.6290   29.1750 C.ar   55  TRP55       0.0810
     65  CE3       37.8360  -10.6740   29.4320 C.ar   55  TRP55       0.0012
     66  CZ2       40.3390  -11.8510   28.7880 C.ar   55  TRP55       0.0191
     67  CZ3       38.9250   -9.9000   29.0510 C.ar   55  TRP55       0.0001
     68  CH2       40.1650  -10.4970   28.7340 C.ar   55  TRP55       0.0015
     69  N         30.5010  -11.0190   32.7070 N.3    57  ARG57      -0.1245
     70  CA        29.5890  -10.0280   32.1540 C.3    57  ARG57       0.1563
     71  C         28.1470  -10.2960   32.5120 C.2    57  ARG57       0.2260
     72  O         27.7590  -11.4340   32.7890 O.2    57  ARG57      -0.2867
     73  CB        29.6730   -9.9800   30.6310 C.3    57  ARG57       0.0307
     74  CG        29.2410  -11.2540   29.8900 C.3    57  ARG57       0.0489
     75  CD        29.0490  -10.9960   28.4000 C.3    57  ARG57       0.2205
     76  NE        28.4110  -12.1000   27.6700 N.pl3  57  ARG57      -0.0865
     77  CZ        28.8970  -12.7510   26.5930 C.cat  57  ARG57       0.5346
     78  NH1       30.0690  -12.4530   26.0240 N.pl3  57  ARG57       0.1354
     79  NH2       28.1850  -13.7320   26.0550 N.pl3  57  ARG57       0.1354
     80  N         24.6760   -9.7100   30.4020 N.3    59  ARG59      -0.1245
     81  CA        24.2180   -9.4690   29.0470 C.3    59  ARG59       0.1563
     82  C         22.7320   -9.2370   29.0830 C.2    59  ARG59       0.2260
     83  O         21.9850  -10.0780   29.5800 O.2    59  ARG59      -0.2867
     84  CB        24.5150  -10.6580   28.1590 C.3    59  ARG59       0.0307
     85  CG        23.8620  -10.5630   26.7940 C.3    59  ARG59       0.0489
     86  CD        24.4300  -11.5960   25.8510 C.3    59  ARG59       0.2205
     87  NE        25.7380  -11.1800   25.3640 N.pl3  59  ARG59      -0.0865
     88  CZ        26.4200  -11.7800   24.3920 C.cat  59  ARG59       0.5346
     89  NH1       25.9410  -12.8670   23.7930 N.pl3  59  ARG59       0.1354
     90  NH2       27.6090  -11.2930   24.0320 N.pl3  59  ARG59       0.1354
     91  N         33.3360  -16.7210   31.8690 N.3    67  LYS67      -0.1245
     92  CA        34.1470  -17.6300   31.0650 C.3    67  LYS67       0.1561
     93  C         35.4710  -17.9020   31.7450 C.2    67  LYS67       0.2260
     94  O         36.1490  -16.9790   32.1420 O.2    67  LYS67      -0.2867
     95  CB        34.4190  -17.0340   29.7000 C.3    67  LYS67       0.0271
     96  CG        33.3540  -17.3300   28.6700 C.3    67  LYS67       0.0035
     97  CD        33.6850  -16.5980   27.3680 C.3    67  LYS67       0.0206
     98  CE        32.6950  -16.9360   26.2510 C.3    67  LYS67       0.1093
     99  NZ        32.1790  -15.6320   25.7360 N.3    67  LYS67      -0.1314
    100  N         42.3570  -21.2820   21.7070 N.3    76  ASN76      -0.1240
    101  CA        41.9190  -21.2710   23.1190 C.3    76  ASN76       0.1653
    102  C         40.7540  -22.2070   23.4620 C.2    76  ASN76       0.2266
    103  O         39.9590  -22.5800   22.5980 O.2    76  ASN76      -0.2867
    104  CB        41.4840  -19.8670   23.5770 C.3    76  ASN76       0.1155
    105  CG        42.6220  -18.8670   23.6730 C.2    76  ASN76       0.2627
    106  OD1       42.4240  -17.7040   23.3620 O.2    76  ASN76      -0.2716
    107  ND2       43.8000  -19.2970   24.1290 N.am   76  ASN76      -0.0877
    108  N         37.6300  -22.5940   26.5170 N.3    78  TYR78      -0.1241
    109  CA        36.9230  -21.9620   27.6070 C.3    78  TYR78       0.1605
    110  C         35.7780  -22.8420   28.1270 C.2    78  TYR78       0.2264
    111  O         35.1850  -23.6170   27.3800 O.2    78  TYR78      -0.2867
    112  CB        36.4210  -20.5780   27.1730 C.3    78  TYR78       0.0534
    113  CG        37.5440  -19.5610   26.9770 C.ar   78  TYR78      -0.0201
    114  CD1       38.0470  -18.8320   28.0610 C.ar   78  TYR78      -0.0009
    115  CD2       38.1030  -19.3310   25.7160 C.ar   78  TYR78      -0.0009
    116  CE1       39.0740  -17.9050   27.8950 C.ar   78  TYR78       0.0417
    117  CE2       39.1310  -18.4110   25.5420 C.ar   78  TYR78       0.0417
    118  CZ        39.6090  -17.7010   26.6340 C.ar   78  TYR78       0.1957
    119  OH        40.6170  -16.7950   26.4630 O.3    78  TYR78      -0.2866
    120  N         23.2510   -6.8280   16.2830 N.3   124  ARG124     -0.1245
    121  CA        23.6540   -8.0950   15.7050 C.3   124  ARG124      0.1563
    122  C         22.6800   -8.5540   14.6270 C.2   124  ARG124      0.2260
    123  O         21.4680   -8.4810   14.8280 O.2   124  ARG124     -0.2867
    124  CB        23.6920   -9.1500   16.7920 C.3   124  ARG124      0.0307
    125  CG        23.8140  -10.5670   16.2310 C.3   124  ARG124      0.0489
    126  CD        24.0110  -11.5670   17.3340 C.3   124  ARG124      0.2205
    127  NE        25.3000  -11.4240   17.9900 N.pl3 124  ARG124     -0.0865
    128  CZ        25.8110  -12.3090   18.8400 C.cat 124  ARG124      0.5346
    129  NH1       25.1390  -13.4210   19.1410 N.pl3 124  ARG124      0.1354
    130  NH2       27.0150  -12.0960   19.3760 N.pl3 124  ARG124      0.1354
    131  N         28.3850   -8.5800   14.1600 N.3   141  ASP141     -0.1239
    132  CA        28.2020   -7.6060   15.2490 C.3   141  ASP141      0.1674
    133  C         28.7300   -6.2120   14.9120 C.2   141  ASP141      0.2266
    134  O         29.8490   -6.0700   14.3940 O.2   141  ASP141     -0.2867
    135  CB        28.8970   -8.0880   16.5160 C.3   141  ASP141      0.1410
    136  CG        28.2150   -9.2570   17.1600 C.2   141  ASP141      0.3668
    137  OD1       27.0910   -9.6510   16.7520 O.co2 141  ASP141     -0.2456
    138  OD2       28.8250   -9.7670   18.1210 O.co2 141  ASP141     -0.2456
    139  N         31.6030  -13.4780   13.2510 N.3   151  GLU151     -0.1245
    140  CA        32.0800  -14.7230   13.7980 C.3   151  GLU151      0.1567
    141  C         31.3290  -15.9040   13.2150 C.2   151  GLU151      0.2260
    142  O         30.0950  -15.8700   13.0950 O.2   151  GLU151     -0.2867
    143  CB        31.9320  -14.7230   15.3200 C.3   151  GLU151      0.0388
    144  CG        32.6980  -15.8430   16.0000 C.3   151  GLU151      0.1160
    145  CD        32.3520  -15.9640   17.4820 C.2   151  GLU151      0.3649
    146  OE1       31.3090  -16.5870   17.7970 O.co2 151  GLU151     -0.2457
    147  OE2       33.1190  -15.4540   18.3290 O.co2 151  GLU151     -0.2457
    148  N         39.9370   -9.1530   16.4610 N.3   185  PRO185     -0.2102
    149  CA        39.8170   -9.0300   17.9180 C.3   185  PRO185      0.1504
    150  C         38.3680   -9.0220   18.4240 C.2   185  PRO185      0.2576
    151  O         37.4410   -8.6280   17.6920 O.2   185  PRO185     -0.2718
    152  CB        40.5230   -7.6870   18.2260 C.3   185  PRO185      0.0282
    153  CG        40.4930   -6.9160   16.9620 C.3   185  PRO185      0.0208
    154  CD        40.4480   -7.9160   15.8310 C.3   185  PRO185      0.0893
    155  N         38.1920   -9.4860   19.6650 N.am  186  ALA186     -0.1966
    156  CA        36.9300   -9.3600   20.3870 C.3   186  ALA186      0.1728
    157  C         36.5560   -7.8970   20.6380 C.2   186  ALA186      0.2616
    158  O         37.4270   -7.0290   20.8360 O.2   186  ALA186     -0.2715
    159  CB        37.0050  -10.1070   21.7000 C.3   186  ALA186      0.0334
    160  N         35.2550   -7.6250   20.6200 N.am  187  LYS187     -0.1963
    161  CA        34.7540   -6.2850   20.8650 C.3   187  LYS187      0.1728
    162  C         35.3470   -5.6940   22.1400 C.2   187  LYS187      0.2616
    163  O         35.7880   -4.5500   22.1310 O.2   187  LYS187     -0.2715
    164  CB        33.2220   -6.2890   20.9800 C.3   187  LYS187      0.0311
    165  CG        32.4780   -6.5590   19.6720 C.3   187  LYS187      0.0038
    166  CD        30.9500   -6.5040   19.8480 C.3   187  LYS187      0.0206
    167  CE        30.3910   -7.5690   20.7900 C.3   187  LYS187      0.1093
    168  NZ        30.6400   -8.9480   20.2850 N.3   187  LYS187     -0.1314
    169  N         35.3570   -6.4560   23.2300 N.am  188  LEU188     -0.1963
    170  CA        35.8740   -5.9710   24.5200 C.3   188  LEU188      0.1728
    171  C         37.3550   -5.5700   24.4570 C.2   188  LEU188      0.2616
    172  O         37.7470   -4.5700   25.0550 O.2   188  LEU188     -0.2715
    173  CB        35.6650   -7.0130   25.6250 C.3   188  LEU188      0.0311
    174  CG        36.1920   -6.6340   27.0380 C.3   188  LEU188      0.0022
    175  CD1       35.4740   -5.4030   27.5660 C.3   188  LEU188      0.0001
    176  CD2       36.0280   -7.7820   27.9960 C.3   188  LEU188      0.0001
    177  N         38.1620   -6.3260   23.7110 N.am  189  MET189     -0.1977
    178  CA        39.5810   -6.0220   23.5990 C.3   189  MET189      0.1605
    179  C         39.8060   -4.7090   22.8260 C.2   189  MET189      0.2287
    180  O         40.6820   -3.9390   23.1850 O.2   189  MET189     -0.2864
    181  CB        40.3260   -7.1890   22.9620 C.3   189  MET189      0.0413
    182  CG        40.2360   -8.4800   23.7730 C.3   189  MET189      0.0598
    183  SD        41.0460   -8.3680   25.3900 S.3   189  MET189     -0.1393
    184  CE        42.7460   -8.3610   24.8260 C.3   189  MET189      0.0692
@<TRIPOS>BOND
     1    13    12    2
     2   142   141    2
     3    12    11    1
     4   141   140    1
     5   139   140    1
     6   140   143    1
     7   131   132    1
     8    11    10    1
     9    11    14    1
    10   134   133    2
    11   122   123    2
    12   122   121    1
    13   133   132    1
    14   132   135    1
    15   143   144    1
    16    14    15    1
    17   121   120    1
    18   121   124    1
    19   154   148    1
    20   154   153    1
    21   144   145    1
    22   125   124    1
    23   125   126    1
    24     3     4    2
    25     3     2    1
    26   148   149    1
    27   135   136    1
    28   137   136   ar
    29    15    16    1
    30     2     1    1
    31     2     5    1
    32   153   152    1
    33   136   138   ar
    34   126   127    1
    35   145   146   ar
    36   145   147   ar
    37   151   150    2
    38   149   152    1
    39   149   150    1
    40    16    17    1
    41   127   128    2
    42     5     6    1
    43   150   155   am
    44   128   129    1
    45   128   130    1
    46     6     7    1
    47    17    18    1
    48   155   156    1
    49   165   166    1
    50   165   164    1
    51   166   167    1
    52     7     9   ar
    53     7     8   ar
    54   168   167    1
    55   156   157    1
    56   156   159    1
    57   160   157   am
    58   160   161    1
    59   157   158    2
    60   161   164    1
    61   161   162    1
    62   100   101    1
    63   163   162    2
    64   162   169   am
    65   103   102    2
    66   179   180    2
    67   179   178    1
    68   181   178    1
    69   181   182    1
    70   101   102    1
    71   101   104    1
    72   169   170    1
    73   106   105    2
    74   104   105    1
    75   178   177    1
    76   105   107   am
    77   177   171   am
    78   182   183    1
    79    89    88    1
    80    90    88    1
    81    88    87    2
    82   171   170    1
    83   171   172    2
    84   170   173    1
    85    26    24   ar
    86   184   183    1
    87    87    86    1
    88   117   115   ar
    89   117   118   ar
    90   173   174    1
    91   115   113   ar
    92    99    98    1
    93    86    85    1
    94    24    23    1
    95    24    25   ar
    96    78    77    1
    97    79    77    1
    98    98    97    1
    99   119   118    1
   100   108   109    1
   101    38    37    1
   102    77    76    2
   103    23    20    1
   104   118   116   ar
   105    19    20    1
   106    85    84    1
   107   113   112    1
   108   113   114   ar
   109   174   175    1
   110   174   176    1
   111   112   109    1
   112    97    96    1
   113   111   110    2
   114    20    21    1
   115    35    37   ar
   116    35    33   ar
   117   109   110    1
   118    37    36   ar
   119    76    75    1
   120   116   114   ar
   121    22    21    2
   122    84    81    1
   123    75    74    1
   124    96    95    1
   125    33    32   ar
   126    36    34   ar
   127    68    66   ar
   128    68    67   ar
   129    54    52   ar
   130    53    52   ar
   131    66    64   ar
   132    81    82    1
   133    81    80    1
   134    67    65   ar
   135    82    83    2
   136    64    63   ar
   137    64    62   ar
   138    63    61   ar
   139    52    51    1
   140    65    62   ar
   141    62    60   ar
   142    95    92    1
   143    61    60   ar
   144    32    34   ar
   145    32    31    1
   146    60    59    1
   147    74    73    1
   148    59    56    1
   149    73    70    1
   150    51    48    1
   151    31    28    1
   152    92    93    1
   153    92    91    1
   154    27    28    1
   155    45    46    1
   156    45    44    1
   157    50    49    2
   158    48    49    1
   159    48    47    1
   160    93    94    2
   161    56    57    1
   162    56    55    1
   163    28    29    1
   164    58    57    2
   165    42    41    2
   166    70    71    1
   167    70    69    1
   168    44    43    1
   169    43    40    1
   170    71    72    2
   171    41    40    1
   172    40    39    1
   173    29    30    2
