@<TRIPOS>MOLECULE
tmp/5a66B00.pdb
 157 144 0 0 0
SMALL
GASTEIGER

@<TRIPOS>ATOM
      1  N         30.9550   60.3430   57.0390 N.3     3  GLU3       -0.1245
      2  CA        31.0510   59.4720   55.9040 C.3     3  GLU3        0.1567
      3  C         32.0400   58.4110   56.3290 C.2     3  GLU3        0.2260
      4  O         33.0320   58.7070   56.9720 O.2     3  GLU3       -0.2867
      5  CB        31.5500   60.2480   54.7030 C.3     3  GLU3        0.0388
      6  CG        31.7320   59.4060   53.4470 C.3     3  GLU3        0.1160
      7  CD        33.1640   59.4460   52.9430 C.2     3  GLU3        0.3649
      8  OE1       33.6230   60.4890   52.4010 O.co2   3  GLU3       -0.2457
      9  OE2       33.8510   58.4390   53.1340 O.co2   3  GLU3       -0.2457
     10  N         34.1950   54.9180   54.9180 N.3     5  GLU5       -0.1245
     11  CA        34.5160   54.0420   53.8160 C.3     5  GLU5        0.1567
     12  C         35.7490   53.2050   54.0480 C.2     5  GLU5        0.2260
     13  O         36.7090   53.6430   54.6610 O.2     5  GLU5       -0.2867
     14  CB        34.6360   54.8270   52.5070 C.3     5  GLU5        0.0388
     15  CG        35.7540   55.8440   52.4820 C.3     5  GLU5        0.1160
     16  CD        35.7800   56.7030   51.2250 C.2     5  GLU5        0.3649
     17  OE1       34.7890   56.7990   50.4780 O.co2   5  GLU5       -0.2457
     18  OE2       36.8220   57.3110   50.9850 O.co2   5  GLU5       -0.2457
     19  N         39.0680   51.7870   52.6870 N.3     7  LYS7       -0.1245
     20  CA        40.0480   52.3040   51.7440 C.3     7  LYS7        0.1561
     21  C         41.2560   51.3970   51.7050 C.2     7  LYS7        0.2260
     22  O         42.0300   51.3760   52.6460 O.2     7  LYS7       -0.2867
     23  CB        40.5090   53.6960   52.1520 C.3     7  LYS7        0.0271
     24  CG        39.6770   54.8310   51.6200 C.3     7  LYS7        0.0035
     25  CD        40.2420   56.1790   52.0640 C.3     7  LYS7        0.0206
     26  CE        41.5870   56.5180   51.4330 C.3     7  LYS7        0.1093
     27  NZ        41.4540   57.1650   50.1000 N.3     7  LYS7       -0.1314
     28  N         37.0000   62.0980   37.0510 N.3    33  GLN33      -0.1245
     29  CA        36.9760   63.1370   38.0800 C.3    33  GLN33       0.1566
     30  C         38.2310   64.0020   38.0080 C.2    33  GLN33       0.2260
     31  O         39.3390   63.4910   37.7970 O.2    33  GLN33      -0.2867
     32  CB        36.9100   62.5230   39.4750 C.3    33  GLN33       0.0367
     33  CG        35.7730   61.5480   39.7100 C.3    33  GLN33       0.0905
     34  CD        35.9030   60.8310   41.0420 C.2    33  GLN33       0.2608
     35  OE1       36.9960   60.4350   41.4370 O.2    33  GLN33      -0.2717
     36  NE2       34.7840   60.6560   41.7370 N.am   33  GLN33      -0.0878
     37  N         39.8080   66.7230   40.6530 N.3    35  ASN35      -0.1240
     38  CA        39.6960   67.2950   41.9950 C.3    35  ASN35       0.1653
     39  C         40.5690   68.5280   42.1270 C.2    35  ASN35       0.2266
     40  O         41.7410   68.4820   41.7700 O.2    35  ASN35      -0.2867
     41  CB        40.1250   66.2620   43.0280 C.3    35  ASN35       0.1155
     42  CG        39.3080   64.9790   42.9350 C.2    35  ASN35       0.2627
     43  OD1       38.0950   64.9890   43.1380 O.2    35  ASN35      -0.2716
     44  ND2       39.9680   63.8740   42.6130 N.am   35  ASN35      -0.0877
     45  N         37.1440   71.1290   48.7140 N.3    53  ARG53      -0.1245
     46  CA        37.3630   70.5740   47.3860 C.3    53  ARG53       0.1563
     47  C         36.2360   70.9390   46.4180 C.2    53  ARG53       0.2260
     48  O         35.0620   70.8830   46.7660 O.2    53  ARG53      -0.2867
     49  CB        37.4790   69.0500   47.4710 C.3    53  ARG53       0.0307
     50  CG        37.5870   68.3460   46.1220 C.3    53  ARG53       0.0489
     51  CD        37.7490   66.8380   46.2680 C.3    53  ARG53       0.2205
     52  NE        36.4720   66.1850   46.5510 N.pl3  53  ARG53      -0.0865
     53  CZ        36.3340   64.9970   47.1410 C.cat  53  ARG53       0.5346
     54  NH1       37.3900   64.3050   47.5420 N.pl3  53  ARG53       0.1354
     55  NH2       35.1230   64.5000   47.3510 N.pl3  53  ARG53       0.1354
     56  N         35.1660   69.2600   42.9850 N.3    55  ARG55      -0.1245
     57  CA        35.3230   68.1600   42.0490 C.3    55  ARG55       0.1563
     58  C         34.4940   68.4370   40.8020 C.2    55  ARG55       0.2260
     59  O         33.3070   68.7630   40.8930 O.2    55  ARG55      -0.2867
     60  CB        34.8810   66.8440   42.6760 C.3    55  ARG55       0.0307
     61  CG        34.7840   65.6750   41.7040 C.3    55  ARG55       0.0489
     62  CD        34.4700   64.3760   42.4300 C.3    55  ARG55       0.2205
     63  NE        35.6070   63.9120   43.2190 N.pl3  55  ARG55      -0.0865
     64  CZ        35.5430   63.0060   44.1930 C.cat  55  ARG55       0.5346
     65  NH1       34.3860   62.4440   44.5250 N.pl3  55  ARG55       0.1354
     66  NH2       36.6470   62.6610   44.8490 N.pl3  55  ARG55       0.1354
     67  N         35.4180   68.5430   54.0620 N.3    77  LYS77      -0.1245
     68  CA        35.7370   67.3820   54.8910 C.3    77  LYS77       0.1561
     69  C         36.5540   67.8200   56.0910 C.2    77  LYS77       0.2260
     70  O         37.5450   68.5320   55.9360 O.2    77  LYS77      -0.2867
     71  CB        36.5060   66.3460   54.0850 C.3    77  LYS77       0.0271
     72  CG        35.6340   65.6040   53.1040 C.3    77  LYS77       0.0035
     73  CD        36.4340   64.5410   52.3800 C.3    77  LYS77       0.0206
     74  CE        35.5730   63.8340   51.3600 C.3    77  LYS77       0.1093
     75  NZ        36.2490   62.6500   50.8020 N.3    77  LYS77      -0.1314
     76  N         38.2280   54.7280   56.7170 N.3    87  SER87      -0.1217
     77  CA        38.2170   56.1760   56.7480 C.3    87  SER87       0.1889
     78  C         36.9070   56.6800   57.3440 C.2    87  SER87       0.2288
     79  O         35.8270   56.2220   56.9640 O.2    87  SER87      -0.2866
     80  CB        38.3830   56.7360   55.3380 C.3    87  SER87       0.2089
     81  OG        38.2610   58.1450   55.3490 O.3    87  SER87      -0.2183
     82  N         31.5190   65.0900   56.6110 N.3    91  GLU91      -0.1245
     83  CA        31.4450   65.5750   55.2380 C.3    91  GLU91       0.1567
     84  C         30.1620   66.3410   54.9710 C.2    91  GLU91       0.2260
     85  O         29.0830   65.9710   55.4510 O.2    91  GLU91      -0.2867
     86  CB        31.6000   64.4290   54.2440 C.3    91  GLU91       0.0388
     87  CG        31.4400   64.8690   52.7960 C.3    91  GLU91       0.1160
     88  CD        32.0290   63.8960   51.8030 C.2    91  GLU91       0.3649
     89  OE1       32.2650   62.7270   52.1840 O.co2  91  GLU91      -0.2457
     90  OE2       32.2680   64.3030   50.6380 O.co2  91  GLU91      -0.2457
     91  N         44.2470   67.1670   40.9070 N.3   140  PHE140     -0.1241
     92  CA        44.6030   65.9590   40.1780 C.3   140  PHE140      0.1605
     93  C         43.3880   65.2250   39.6060 C.2   140  PHE140      0.2264
     94  O         42.2520   65.4440   40.0150 O.2   140  PHE140     -0.2867
     95  CB        45.4060   65.0130   41.0830 C.3   140  PHE140      0.0534
     96  CG        44.6930   64.6540   42.3490 C.ar  140  PHE140     -0.0203
     97  CD1       44.8370   65.4370   43.4850 C.ar  140  PHE140     -0.0042
     98  CD2       43.8480   63.5480   42.3980 C.ar  140  PHE140     -0.0042
     99  CE1       44.1650   65.1140   44.6540 C.ar  140  PHE140     -0.0003
    100  CE2       43.1740   63.2280   43.5580 C.ar  140  PHE140     -0.0003
    101  CZ        43.3290   64.0110   44.6900 C.ar  140  PHE140     -0.0000
    102  N         37.3850   56.6490   38.2060 N.3   144  ARG144     -0.1245
    103  CA        36.6990   55.8380   39.2080 C.3   144  ARG144      0.1563
    104  C         35.7530   54.8530   38.5340 C.2   144  ARG144      0.2260
    105  O         34.7470   55.2500   37.9530 O.2   144  ARG144     -0.2867
    106  CB        35.9170   56.7270   40.1780 C.3   144  ARG144      0.0307
    107  CG        35.0380   55.9560   41.1580 C.3   144  ARG144      0.0489
    108  CD        34.6680   56.8010   42.3650 C.3   144  ARG144      0.2205
    109  NE        35.8140   57.0090   43.2480 N.pl3 144  ARG144     -0.0865
    110  CZ        35.8740   57.9220   44.2160 C.cat 144  ARG144      0.5346
    111  NH1       34.8410   58.7320   44.4600 N.pl3 144  ARG144      0.1354
    112  NH2       36.9700   58.0280   44.9640 N.pl3 144  ARG144      0.1354
    113  N         34.2600   51.0680   44.5730 N.3   155  GLU155     -0.1245
    114  CA        34.8670   52.1170   43.7640 C.3   155  GLU155      0.1567
    115  C         36.3460   51.8000   43.5940 C.2   155  GLU155      0.2260
    116  O         37.0910   51.7260   44.5800 O.2   155  GLU155     -0.2867
    117  CB        34.6860   53.4700   44.4390 C.3   155  GLU155      0.0388
    118  CG        33.2510   53.7580   44.8810 C.3   155  GLU155      0.1160
    119  CD        33.1410   55.0160   45.7090 C.2   155  GLU155      0.3649
    120  OE1       34.1750   55.5330   46.1910 O.co2 155  GLU155     -0.2457
    121  OE2       32.0100   55.4930   45.8880 O.co2 155  GLU155     -0.2457
    122  N         37.7800   51.5100   47.1460 N.3   170  GLU170     -0.1245
    123  CA        36.9750   52.0610   48.2220 C.3   170  GLU170      0.1567
    124  C         35.5760   51.4750   48.2480 C.2   170  GLU170      0.2260
    125  O         35.0660   51.0170   47.2310 O.2   170  GLU170     -0.2867
    126  CB        36.8590   53.5630   48.0770 C.3   170  GLU170      0.0388
    127  CG        38.1980   54.2290   47.9520 C.3   170  GLU170      0.1160
    128  CD        38.0970   55.7100   48.0580 C.2   170  GLU170      0.3649
    129  OE1       37.0140   56.2640   47.7530 O.co2 170  GLU170     -0.2457
    130  OE2       39.0990   56.3230   48.4610 O.co2 170  GLU170     -0.2457
    131  N         45.0970   59.8710   52.4950 N.3   200  THR200     -0.1203
    132  CA        44.0760   60.3400   51.5600 C.3   200  THR200      0.1994
    133  C         44.7240   60.7130   50.2260 C.2   200  THR200      0.2618
    134  O         45.9390   60.9280   50.1560 O.2   200  THR200     -0.2717
    135  CB        43.3390   61.5800   52.0930 C.3   200  THR200      0.1784
    136  OG1       44.2810   62.6150   52.3640 O.3   200  THR200     -0.2211
    137  CG2       42.5760   61.2540   53.3730 C.3   200  THR200      0.0376
    138  N         43.9170   60.7920   49.1730 N.am  201  LYS201     -0.1965
    139  CA        44.4360   61.1930   47.8590 C.3   201  LYS201      0.1728
    140  C         45.0010   62.6120   47.9080 C.2   201  LYS201      0.2616
    141  O         46.0310   62.8940   47.2910 O.2   201  LYS201     -0.2715
    142  CB        43.3600   61.0850   46.7710 C.3   201  LYS201      0.0311
    143  CG        42.8910   59.6570   46.4920 C.3   201  LYS201      0.0038
    144  CD        41.8350   59.6130   45.3930 C.3   201  LYS201      0.0206
    145  CE        41.3790   58.1960   45.0830 C.3   201  LYS201      0.1093
    146  NZ        40.6750   57.5310   46.2300 N.3   201  LYS201     -0.1314
    147  N         44.3400   63.4920   48.6610 N.am  202  PHE202     -0.1974
    148  CA        44.8280   64.8580   48.8320 C.3   202  PHE202      0.1639
    149  C         46.1700   64.8760   49.5590 C.2   202  PHE202      0.2290
    150  O         47.0500   65.6550   49.2130 O.2   202  PHE202     -0.2864
    151  CB        43.8060   65.7030   49.5950 C.3   202  PHE202      0.0560
    152  CG        44.2360   67.1310   49.8170 C.ar  202  PHE202     -0.0200
    153  CD1       44.4130   67.9910   48.7380 C.ar  202  PHE202     -0.0042
    154  CD2       44.4480   67.6210   51.1050 C.ar  202  PHE202     -0.0042
    155  CE1       44.7900   69.3100   48.9370 C.ar  202  PHE202     -0.0003
    156  CE2       44.8340   68.9420   51.3180 C.ar  202  PHE202     -0.0003
    157  CZ        44.9940   69.7910   50.2280 C.ar  202  PHE202     -0.0000
@<TRIPOS>BOND
     1    28    29    1
     2    31    30    2
     3   105   104    2
     4    30    29    1
     5    29    32    1
     6   102   103    1
     7   104   103    1
     8   103   106    1
     9    32    33    1
    10    93    94    2
    11    93    92    1
    12    33    34    1
    13   106   107    1
    14    92    91    1
    15    92    95    1
    16    37    38    1
    17    58    59    2
    18    58    57    1
    19    34    35    2
    20    34    36   am
    21    95    96    1
    22   107   108    1
    23    61    62    1
    24    61    60    1
    25    40    39    2
    26    38    39    1
    27    38    41    1
    28    57    60    1
    29    57    56    1
    30    96    98   ar
    31    96    97   ar
    32   108   109    1
    33    98   100   ar
    34    62    63    1
    35    44    42   am
    36    42    41    1
    37    42    43    2
    38    63    64    2
    39   109   110    2
    40    97    99   ar
    41   100   101   ar
    42   115   114    1
    43   115   116    2
    44   114   117    1
    45   114   113    1
    46    64    65    1
    47    64    66    1
    48   110   111    1
    49   110   112    1
    50   117   118    1
    51    99   101   ar
    52   118   119    1
    53   145   144    1
    54   145   146    1
    55   144   143    1
    56   119   121   ar
    57   119   120   ar
    58    50    51    1
    59    50    49    1
    60    51    52    1
    61    47    48    2
    62    47    46    1
    63   143   142    1
    64    52    53    2
    65   142   139    1
    66    53    55    1
    67    53    54    1
    68   122   123    1
    69   125   124    2
    70   141   140    2
    71    46    49    1
    72    46    45    1
    73   129   128   ar
    74   139   140    1
    75   139   138    1
    76   140   147   am
    77   127   128    1
    78   127   126    1
    79   128   130   ar
    80   126   123    1
    81   123   124    1
    82   147   148    1
    83   153   155   ar
    84   153   152   ar
    85   148   149    1
    86   148   151    1
    87   155   157   ar
    88   138   133   am
    89   150   149    2
    90   151   152    1
    91   152   154   ar
    92    27    26    1
    93   134   133    2
    94   133   132    1
    95   157   156   ar
    96    17    16   ar
    97    90    88   ar
    98    75    74    1
    99    18    16   ar
   100   154   156   ar
   101    16    15    1
   102    74    73    1
   103    26    25    1
   104   132   135    1
   105   132   131    1
   106    24    25    1
   107    24    23    1
   108    21    20    1
   109    21    22    2
   110    20    23    1
   111    20    19    1
   112    88    89   ar
   113    88    87    1
   114   135   136    1
   115   135   137    1
   116    73    72    1
   117     8     7   ar
   118    15    14    1
   119    14    11    1
   120    87    86    1
   121     7     9   ar
   122     7     6    1
   123    72    71    1
   124     6     5    1
   125    11    12    1
   126    11    10    1
   127    12    13    2
   128    67    68    1
   129    71    68    1
   130    86    83    1
   131     5     2    1
   132    68    69    1
   133    84    83    1
   134    84    85    2
   135    83    82    1
   136    80    81    1
   137    80    77    1
   138     2     3    1
   139     2     1    1
   140    70    69    2
   141     3     4    2
   142    76    77    1
   143    77    78    1
   144    79    78    2
