@<TRIPOS>MOLECULE
tmp/5a69A00.pdb
 149 151 0 0 0
SMALL
GASTEIGER

@<TRIPOS>ATOM
      1  N          2.8240  -23.0300  -18.0440 N.3    88  ARG88      -0.1245
      2  CA         1.9400  -22.5570  -19.1180 C.3    88  ARG88       0.1563
      3  C          2.1690  -21.1270  -19.5270 C.2    88  ARG88       0.2260
      4  O          1.2710  -20.4900  -20.1620 O.2    88  ARG88      -0.2867
      5  CB         0.4800  -22.7340  -18.6750 C.3    88  ARG88       0.0307
      6  CG        -0.1680  -24.0440  -19.1270 C.3    88  ARG88       0.0489
      7  CD         0.7140  -25.2910  -18.9390 C.3    88  ARG88       0.2205
      8  NE         0.0250  -26.4510  -19.5080 N.pl3  88  ARG88      -0.0865
      9  CZ        -0.7900  -27.2790  -18.8560 C.cat  88  ARG88       0.5346
     10  NH1       -1.0080  -27.1340  -17.5620 N.pl3  88  ARG88       0.1354
     11  NH2       -1.3760  -28.2960  -19.5160 N.pl3  88  ARG88       0.1354
     12  N          4.0020  -27.1310  -10.3610 N.3   115  TYR115     -0.1241
     13  CA         3.9850  -27.9110  -11.5620 C.3   115  TYR115      0.1605
     14  C          4.9010  -27.3090  -12.6130 C.2   115  TYR115      0.2264
     15  O          4.5670  -26.3310  -13.2600 O.2   115  TYR115     -0.2867
     16  CB         2.5600  -28.0170  -12.1010 C.3   115  TYR115      0.0534
     17  CG         2.4130  -28.8020  -13.3820 C.ar  115  TYR115     -0.0201
     18  CD1        2.2670  -30.1910  -13.3860 C.ar  115  TYR115     -0.0009
     19  CD2        2.3430  -28.1550  -14.5850 C.ar  115  TYR115     -0.0009
     20  CE1        2.0930  -30.8920  -14.5660 C.ar  115  TYR115      0.0417
     21  CE2        2.2020  -28.8410  -15.7510 C.ar  115  TYR115      0.0417
     22  CZ         2.0780  -30.2130  -15.7610 C.ar  115  TYR115      0.1957
     23  OH         1.9330  -30.8410  -17.0240 O.3   115  TYR115     -0.2866
     24  N          3.4880  -34.2080  -21.7890 N.3   163  HIS163     -0.1241
     25  CA         3.4480  -32.7510  -21.4320 C.3   163  HIS163      0.1621
     26  C          4.8470  -32.0970  -21.3840 C.2   163  HIS163      0.2264
     27  O          5.2150  -31.5020  -20.4050 O.2   163  HIS163     -0.2867
     28  CB         2.7750  -32.4800  -20.0810 C.3   163  HIS163      0.0745
     29  CG         1.2880  -32.6210  -20.0820 C.ar  163  HIS163      0.0817
     30  ND1        0.4650  -31.9240  -20.9350 N.ar  163  HIS163     -0.2268
     31  CD2        0.4700  -33.3340  -19.2780 C.ar  163  HIS163      0.1154
     32  CE1       -0.7970  -32.2210  -20.6770 C.ar  163  HIS163      0.1986
     33  NE2       -0.8210  -33.0860  -19.6830 N.ar  163  HIS163     -0.2212
     34  N          0.4110  -38.1140  -16.7980 N.3   216  ASP216     -0.1225
     35  CA        -0.9590  -37.9550  -17.3340 C.3   216  ASP216      0.1805
     36  C         -0.9860  -37.8000  -18.8470 C.2   216  ASP216      0.2597
     37  O         -0.0390  -37.2580  -19.4320 O.2   216  ASP216     -0.2718
     38  CB        -1.6460  -36.7240  -16.7140 C.3   216  ASP216      0.1424
     39  CG        -0.9320  -35.4180  -17.0290 C.2   216  ASP216      0.3668
     40  OD1        0.2760  -35.2930  -16.7600 O.co2 216  ASP216     -0.2456
     41  OD2       -1.6010  -34.5240  -17.5610 O.co2 216  ASP216     -0.2456
     42  N         -2.0910  -38.2210  -19.4610 N.am  217  GLU217     -0.1979
     43  CA        -2.4580  -37.8180  -20.8420 C.3   217  GLU217      0.1602
     44  C         -1.3920  -38.0040  -21.9290 C.2   217  GLU217      0.2287
     45  O         -0.9620  -37.0460  -22.5560 O.2   217  GLU217     -0.2864
     46  CB        -2.8900  -36.3350  -20.8730 C.3   217  GLU217      0.0415
     47  CG        -3.9630  -35.9340  -19.8650 C.3   217  GLU217      0.1163
     48  CD        -4.4710  -34.5210  -20.0740 C.2   217  GLU217      0.3649
     49  OE1       -3.6710  -33.5620  -20.0820 O.co2 217  GLU217     -0.2457
     50  OE2       -5.6900  -34.3700  -20.1930 O.co2 217  GLU217     -0.2457
     51  N         -0.4100  -38.8600  -11.6980 N.3   255  TRP255     -0.1241
     52  CA        -1.7990  -38.6560  -12.0820 C.3   255  TRP255      0.1605
     53  C         -2.3060  -40.0150  -12.5260 C.2   255  TRP255      0.2264
     54  O         -1.5760  -40.7490  -13.1970 O.2   255  TRP255     -0.2867
     55  CB        -1.9180  -37.6080  -13.2200 C.3   255  TRP255      0.0550
     56  CG        -1.3010  -36.2200  -12.8990 C.ar  255  TRP255      0.0003
     57  CD1       -0.2060  -35.6400  -13.4880 C.ar  255  TRP255      0.0946
     58  CD2       -1.7560  -35.2810  -11.9230 C.ar  255  TRP255      0.0152
     59  NE1        0.0350  -34.3970  -12.9370 N.ar  255  TRP255     -0.2442
     60  CE2       -0.8930  -34.1660  -11.9680 C.ar  255  TRP255      0.0810
     61  CE3       -2.8090  -35.2670  -11.0360 C.ar  255  TRP255      0.0012
     62  CZ2       -1.0510  -33.0860  -11.1600 C.ar  255  TRP255      0.0191
     63  CZ3       -2.9730  -34.1670  -10.2360 C.ar  255  TRP255      0.0001
     64  CH2       -2.0950  -33.0970  -10.2960 C.ar  255  TRP255      0.0015
     65  N         -7.7940  -37.2790  -10.5640 N.3   267  TRP267     -0.1241
     66  CA        -8.0270  -35.8210  -10.7270 C.3   267  TRP267      0.1605
     67  C         -9.3530  -35.5890  -11.4000 C.2   267  TRP267      0.2264
     68  O         -9.6870  -36.2320  -12.3850 O.2   267  TRP267     -0.2867
     69  CB        -6.9140  -35.1420  -11.5190 C.3   267  TRP267      0.0550
     70  CG        -6.5810  -35.7890  -12.8300 C.ar  267  TRP267      0.0003
     71  CD1       -5.7140  -36.8090  -13.0240 C.ar  267  TRP267      0.0946
     72  CD2       -7.1060  -35.4520  -14.1250 C.ar  267  TRP267      0.0152
     73  NE1       -5.6720  -37.1480  -14.3650 N.ar  267  TRP267     -0.2442
     74  CE2       -6.5060  -36.3190  -15.0580 C.ar  267  TRP267      0.0810
     75  CE3       -8.0150  -34.4860  -14.5860 C.ar  267  TRP267      0.0012
     76  CZ2       -6.7970  -36.2670  -16.4230 C.ar  267  TRP267      0.0191
     77  CZ3       -8.2840  -34.4120  -15.9320 C.ar  267  TRP267      0.0001
     78  CH2       -7.6970  -35.3070  -16.8380 C.ar  267  TRP267      0.0015
     79  N        -12.1090  -32.1910  -11.9610 N.3   269  TYR269     -0.1227
     80  CA       -12.4310  -30.7920  -11.6980 C.3   269  TYR269      0.1736
     81  C        -13.8480  -30.4490  -12.0670 C.2   269  TYR269      0.2595
     82  O        -14.2120  -29.2800  -12.0280 O.2   269  TYR269     -0.2718
     83  CB       -11.4900  -29.8890  -12.5160 C.3   269  TYR269      0.0548
     84  CG       -10.0940  -30.4320  -12.5370 C.ar  269  TYR269     -0.0200
     85  CD1       -9.3860  -30.6230  -11.3540 C.ar  269  TYR269     -0.0009
     86  CD2       -9.4760  -30.7670  -13.7450 C.ar  269  TYR269     -0.0009
     87  CE1       -8.1000  -31.1520  -11.3700 C.ar  269  TYR269      0.0417
     88  CE2       -8.1910  -31.3120  -13.7750 C.ar  269  TYR269      0.0417
     89  CZ        -7.5050  -31.4890  -12.5870 C.ar  269  TYR269      0.1957
     90  OH        -6.2050  -31.9700  -12.6420 O.3   269  TYR269     -0.2866
     91  N        -14.6500  -31.4510  -12.4200 N.am  270  TYR270     -0.1976
     92  CA       -15.8460  -31.2410  -13.2320 C.3   270  TYR270      0.1639
     93  C        -17.1900  -31.6680  -12.6380 C.2   270  TYR270      0.2290
     94  O        -18.2170  -31.0970  -13.0010 O.2   270  TYR270     -0.2864
     95  CB       -15.6700  -31.9550  -14.5890 C.3   270  TYR270      0.0560
     96  CG       -14.3380  -31.7170  -15.2640 C.ar  270  TYR270     -0.0198
     97  CD1      -14.0690  -30.5240  -15.9370 C.ar  270  TYR270     -0.0009
     98  CD2      -13.3070  -32.6860  -15.1980 C.ar  270  TYR270     -0.0009
     99  CE1      -12.8260  -30.2990  -16.5540 C.ar  270  TYR270      0.0417
    100  CE2      -12.0780  -32.4730  -15.8220 C.ar  270  TYR270      0.0417
    101  CZ       -11.8420  -31.2740  -16.4990 C.ar  270  TYR270      0.1957
    102  OH       -10.6120  -31.0620  -17.1000 O.3   270  TYR270     -0.2866
    103  N         -7.8140  -21.5520  -15.3510 N.3   298  TRP298     -0.1241
    104  CA        -7.1680  -21.9700  -16.5900 C.3   298  TRP298      0.1605
    105  C         -8.0520  -21.7510  -17.7860 C.2   298  TRP298      0.2264
    106  O         -7.9350  -22.5060  -18.7590 O.2   298  TRP298     -0.2867
    107  CB        -6.7900  -23.4580  -16.5210 C.3   298  TRP298      0.0550
    108  CG        -7.8570  -24.4010  -16.2230 C.ar  298  TRP298      0.0003
    109  CD1       -8.7210  -24.9620  -17.1180 C.ar  298  TRP298      0.0946
    110  CD2       -8.1390  -24.9900  -14.9670 C.ar  298  TRP298      0.0152
    111  NE1       -9.5640  -25.8270  -16.4930 N.ar  298  TRP298     -0.2442
    112  CE2       -9.2360  -25.8660  -15.1590 C.ar  298  TRP298      0.0810
    113  CE3       -7.5920  -24.8530  -13.6900 C.ar  298  TRP298      0.0012
    114  CZ2       -9.7740  -26.6250  -14.1230 C.ar  298  TRP298      0.0191
    115  CZ3       -8.1290  -25.5820  -12.6500 C.ar  298  TRP298      0.0001
    116  CH2       -9.1880  -26.4750  -12.8610 C.ar  298  TRP298      0.0015
    117  N         -4.3480  -24.8530  -12.6220 N.3   332  TRP332     -0.1241
    118  CA        -3.7400  -24.9050  -13.9440 C.3   332  TRP332      0.1605
    119  C         -3.8500  -23.5390  -14.6750 C.2   332  TRP332      0.2264
    120  O         -4.6680  -22.6620  -14.3180 O.2   332  TRP332     -0.2867
    121  CB        -4.3550  -26.0130  -14.7830 C.3   332  TRP332      0.0550
    122  CG        -4.3790  -27.4260  -14.1180 C.ar  332  TRP332      0.0003
    123  CD1       -5.4620  -28.0150  -13.4880 C.ar  332  TRP332      0.0946
    124  CD2       -3.3030  -28.3890  -14.0250 C.ar  332  TRP332      0.0152
    125  NE1       -5.1220  -29.2610  -13.0160 N.ar  332  TRP332     -0.2442
    126  CE2       -3.8170  -29.5330  -13.3440 C.ar  332  TRP332      0.0810
    127  CE3       -1.9640  -28.4000  -14.4390 C.ar  332  TRP332      0.0012
    128  CZ2       -3.0200  -30.6730  -13.0510 C.ar  332  TRP332      0.0191
    129  CZ3       -1.1810  -29.5450  -14.1650 C.ar  332  TRP332      0.0001
    130  CH2       -1.7220  -30.6680  -13.4870 C.ar  332  TRP332      0.0015
    131  N         -3.8690  -23.3700  -18.4150 N.3   334  ASP334     -0.1239
    132  CA        -4.0390  -23.6970  -19.8100 C.3   334  ASP334      0.1674
    133  C         -3.8450  -22.5620  -20.7940 C.2   334  ASP334      0.2266
    134  O         -4.5120  -21.5330  -20.6740 O.2   334  ASP334     -0.2867
    135  CB        -5.4220  -24.2590  -20.0310 C.3   334  ASP334      0.1410
    136  CG        -5.6070  -25.5970  -19.3610 C.2   334  ASP334      0.3668
    137  OD1       -4.7870  -25.8960  -18.4880 O.co2 334  ASP334     -0.2456
    138  OD2       -6.5480  -26.3480  -19.6960 O.co2 334  ASP334     -0.2456
    139  N        -20.6260  -28.2190  -28.2740 N.3   559  PHE559     -0.1241
    140  CA       -20.3930  -28.8190  -26.9710 C.3   559  PHE559      0.1605
    141  C        -21.5540  -28.5980  -25.9830 C.2   559  PHE559      0.2264
    142  O        -21.8160  -29.4510  -25.1300 O.2   559  PHE559     -0.2867
    143  CB       -19.1140  -28.2850  -26.3580 C.3   559  PHE559      0.0534
    144  CG       -18.6610  -29.0870  -25.2140 C.ar  559  PHE559     -0.0203
    145  CD1      -17.9060  -30.2160  -25.4280 C.ar  559  PHE559     -0.0042
    146  CD2      -19.0490  -28.7530  -23.9190 C.ar  559  PHE559     -0.0042
    147  CE1      -17.4930  -30.9910  -24.3610 C.ar  559  PHE559     -0.0003
    148  CE2      -18.6470  -29.5180  -22.8480 C.ar  559  PHE559     -0.0003
    149  CZ       -17.8680  -30.6470  -23.0670 C.ar  559  PHE559     -0.0000
@<TRIPOS>BOND
     1   139   140    1
     2   140   143    1
     3   140   141    1
     4   143   144    1
     5   141   142    2
     6   145   144   ar
     7   145   147   ar
     8   144   146   ar
     9   147   149   ar
    10   146   148   ar
    11   149   148   ar
    12    45    44    2
    13    44    43    1
    14    24    25    1
    15    25    26    1
    16    25    28    1
    17    26    27    2
    18    30    32   ar
    19    30    29   ar
    20    46    43    1
    21    46    47    1
    22    43    42    1
    23   133   134    2
    24   133   132    1
    25    32    33   ar
    26    50    48   ar
    27     4     3    2
    28    49    48   ar
    29    29    28    1
    30    29    31   ar
    31    48    47    1
    32   135   132    1
    33   135   136    1
    34   132   131    1
    35   138   136   ar
    36    33    31   ar
    37     3     2    1
    38    11     9    1
    39     8     7    1
    40     8     9    2
    41    42    36   am
    42    37    36    2
    43   136   137   ar
    44     6     7    1
    45     6     5    1
    46     2     5    1
    47     2     1    1
    48     9    10    1
    49    36    35    1
    50   106   105    2
    51   105   104    1
    52    41    39   ar
    53    35    34    1
    54    35    38    1
    55   109   111   ar
    56   109   108   ar
    57   102   101    1
    58    39    40   ar
    59    39    38    1
    60    23    22    1
    61    78    76   ar
    62    78    77   ar
    63   104   107    1
    64   104   103    1
    65    99   101   ar
    66    99    97   ar
    67   107   108    1
    68   101   100   ar
    69   111   112   ar
    70    76    74   ar
    71   108   110   ar
    72    97    96   ar
    73    77    75   ar
    74   100    98   ar
    75    22    21   ar
    76    22    20   ar
    77    21    19   ar
    78    96    98   ar
    79    96    95    1
    80   112   110   ar
    81   112   114   ar
    82    74    73   ar
    83    74    72   ar
    84   110   113   ar
    85   121   122    1
    86   121   118    1
    87   119   120    2
    88   119   118    1
    89    95    92    1
    90    75    72   ar
    91    19    17   ar
    92    20    18   ar
    93   127   129   ar
    94   127   124   ar
    95    73    71   ar
    96   129   130   ar
    97    72    70   ar
    98   114   116   ar
    99   122   124   ar
   100   122   123   ar
   101   124   126   ar
   102   118   117    1
   103    88    86   ar
   104    88    89   ar
   105    86    84   ar
   106   113   115   ar
   107    57    59   ar
   108    57    56   ar
   109   123   125   ar
   110   130   128   ar
   111    18    17   ar
   112    17    16    1
   113   126   128   ar
   114   126   125   ar
   115    15    14    2
   116    92    93    1
   117    92    91    1
   118    55    56    1
   119    55    52    1
   120    54    53    2
   121    71    70   ar
   122    94    93    2
   123    59    60   ar
   124    56    58   ar
   125   116   115   ar
   126    70    69    1
   127    90    89    1
   128    14    13    1
   129    89    87   ar
   130    84    83    1
   131    84    85   ar
   132    53    52    1
   133    83    80    1
   134    91    81   am
   135    68    67    2
   136    16    13    1
   137    52    51    1
   138    81    82    2
   139    81    80    1
   140    60    58   ar
   141    60    62   ar
   142    79    80    1
   143    58    61   ar
   144    13    12    1
   145    69    66    1
   146    67    66    1
   147    87    85   ar
   148    62    64   ar
   149    61    63   ar
   150    66    65    1
   151    64    63   ar
