@<TRIPOS>MOLECULE
tmp/5a6aB00.pdb
 129 131 0 0 0
SMALL
GASTEIGER

@<TRIPOS>ATOM
      1  N        -18.1890  -23.6620   48.3270 N.3    92  ARG92      -0.1245
      2  CA       -19.0500  -23.0880   47.2980 C.3    92  ARG92       0.1563
      3  C        -18.6180  -21.6920   46.8850 C.2    92  ARG92       0.2260
      4  O        -19.4300  -20.9210   46.3750 O.2    92  ARG92      -0.2867
      5  CB       -20.4870  -23.0770   47.7890 C.3    92  ARG92       0.0307
      6  CG       -20.9820  -24.4630   48.1540 C.3    92  ARG92       0.0489
      7  CD       -21.4580  -25.2020   46.9280 C.3    92  ARG92       0.2205
      8  NE       -21.4200  -26.6680   47.0010 N.pl3  92  ARG92      -0.0865
      9  CZ       -22.0990  -27.4310   47.8540 C.cat  92  ARG92       0.5346
     10  NH1      -22.8570  -26.9210   48.8220 N.pl3  92  ARG92       0.1354
     11  NH2      -22.0010  -28.7400   47.7430 N.pl3  92  ARG92       0.1354
     12  N        -16.9550  -27.7080   55.7090 N.3   119  TYR119     -0.1241
     13  CA       -17.1480  -28.5980   54.5720 C.3   119  TYR119      0.1605
     14  C        -16.2140  -28.1310   53.4840 C.2   119  TYR119      0.2264
     15  O        -16.3460  -27.0190   52.9850 O.2   119  TYR119     -0.2867
     16  CB       -18.5990  -28.5710   54.1110 C.3   119  TYR119      0.0534
     17  CG       -18.8500  -29.2060   52.7690 C.ar  119  TYR119     -0.0201
     18  CD1      -18.9660  -30.5930   52.6390 C.ar  119  TYR119     -0.0009
     19  CD2      -18.9880  -28.4280   51.6320 C.ar  119  TYR119     -0.0009
     20  CE1      -19.2020  -31.1860   51.4090 C.ar  119  TYR119      0.0417
     21  CE2      -19.2160  -29.0150   50.4030 C.ar  119  TYR119      0.0417
     22  CZ       -19.3320  -30.3910   50.3020 C.ar  119  TYR119      0.1957
     23  OH       -19.5720  -30.9530   49.0770 O.3   119  TYR119     -0.2866
     24  N        -18.1020  -34.7080   44.0510 N.3   167  HIS167     -0.1241
     25  CA       -18.2530  -33.3180   44.4710 C.3   167  HIS167      0.1621
     26  C        -16.8990  -32.6530   44.6210 C.2   167  HIS167      0.2264
     27  O        -16.6010  -32.0570   45.6500 O.2   167  HIS167     -0.2867
     28  CB       -19.0600  -33.1910   45.7580 C.3   167  HIS167      0.0745
     29  CG       -20.4880  -33.6150   45.6220 C.ar  167  HIS167      0.0817
     30  ND1      -21.4980  -32.7330   45.2920 N.ar  167  HIS167     -0.2268
     31  CD2      -21.0810  -34.8210   45.7940 C.ar  167  HIS167      0.1154
     32  CE1      -22.6500  -33.3770   45.2630 C.ar  167  HIS167      0.1986
     33  NE2      -22.4260  -34.6450   45.5640 N.ar  167  HIS167     -0.2212
     34  N        -21.3580  -38.9020   49.1790 N.3   220  ASP220     -0.1239
     35  CA       -22.7660  -38.6280   48.8550 C.3   220  ASP220      0.1674
     36  C        -23.2610  -39.3740   47.6040 C.2   220  ASP220      0.2266
     37  O        -22.5410  -40.2030   47.0330 O.2   220  ASP220     -0.2867
     38  CB       -22.9590  -37.1180   48.6610 C.3   220  ASP220      0.1410
     39  CG       -24.3470  -36.6030   48.9870 C.2   220  ASP220      0.3668
     40  OD1      -25.2710  -37.3700   49.2330 O.co2 220  ASP220     -0.2456
     41  OD2      -24.4810  -35.3660   48.9080 O.co2 220  ASP220     -0.2456
     42  N        -22.2880  -39.4780   54.4940 N.3   264  TRP264     -0.1241
     43  CA       -23.6920  -39.1970   54.1890 C.3   264  TRP264      0.1605
     44  C        -24.3910  -40.4890   53.8760 C.2   264  TRP264      0.2264
     45  O        -23.8010  -41.3670   53.2540 O.2   264  TRP264     -0.2867
     46  CB       -23.8120  -38.2340   52.9950 C.3   264  TRP264      0.0550
     47  CG       -23.1270  -36.9170   53.2320 C.ar  264  TRP264      0.0003
     48  CD1      -22.0450  -36.4370   52.5820 C.ar  264  TRP264      0.0946
     49  CD2      -23.4740  -35.9360   54.2190 C.ar  264  TRP264      0.0152
     50  NE1      -21.6910  -35.2040   53.0820 N.ar  264  TRP264     -0.2442
     51  CE2      -22.5500  -34.8770   54.0940 C.ar  264  TRP264      0.0810
     52  CE3      -24.4850  -35.8460   55.1910 C.ar  264  TRP264      0.0012
     53  CZ2      -22.5980  -33.7540   54.8980 C.ar  264  TRP264      0.0191
     54  CZ3      -24.5380  -34.7390   55.9800 C.ar  264  TRP264      0.0001
     55  CH2      -23.5960  -33.6990   55.8350 C.ar  264  TRP264      0.0015
     56  N        -29.4730  -36.7470   56.3230 N.3   285  TRP285     -0.1241
     57  CA       -29.6900  -35.3160   56.1890 C.3   285  TRP285      0.1605
     58  C        -31.0550  -35.0400   55.5610 C.2   285  TRP285      0.2264
     59  O        -31.4440  -35.6730   54.5670 O.2   285  TRP285     -0.2867
     60  CB       -28.5880  -34.6510   55.3480 C.3   285  TRP285      0.0550
     61  CG       -28.3910  -35.2240   53.9550 C.ar  285  TRP285      0.0003
     62  CD1      -27.5270  -36.2180   53.6010 C.ar  285  TRP285      0.0946
     63  CD2      -29.0440  -34.8150   52.7490 C.ar  285  TRP285      0.0152
     64  NE1      -27.6080  -36.4650   52.2510 N.ar  285  TRP285     -0.2442
     65  CE2      -28.5320  -35.6200   51.7020 C.ar  285  TRP285      0.0810
     66  CE3      -30.0120  -33.8480   52.4470 C.ar  285  TRP285      0.0012
     67  CZ2      -28.9510  -35.4920   50.3810 C.ar  285  TRP285      0.0191
     68  CZ3      -30.4360  -33.7240   51.1250 C.ar  285  TRP285      0.0001
     69  CH2      -29.9030  -34.5430   50.1110 C.ar  285  TRP285      0.0015
     70  N        -33.5910  -31.3890   55.0810 N.3   287  TYR287     -0.1227
     71  CA       -33.8730  -29.9850   55.3430 C.3   287  TYR287      0.1736
     72  C        -35.2740  -29.5580   54.9130 C.2   287  TYR287      0.2595
     73  O        -35.5930  -28.3660   54.9730 O.2   287  TYR287     -0.2718
     74  CB       -32.8750  -29.1240   54.5920 C.3   287  TYR287      0.0548
     75  CG       -31.4980  -29.7010   54.5510 C.ar  287  TYR287     -0.0200
     76  CD1      -30.8170  -29.9880   55.7280 C.ar  287  TYR287     -0.0009
     77  CD2      -30.8680  -29.9580   53.3320 C.ar  287  TYR287     -0.0009
     78  CE1      -29.5430  -30.5220   55.6960 C.ar  287  TYR287      0.0417
     79  CE2      -29.6020  -30.4880   53.2890 C.ar  287  TYR287      0.0417
     80  CZ       -28.9420  -30.7640   54.4740 C.ar  287  TYR287      0.1957
     81  OH       -27.6690  -31.2730   54.4470 O.3   287  TYR287     -0.2866
     82  N        -36.1060  -30.5150   54.5010 N.am  288  TYR288     -0.1976
     83  CA       -37.3160  -30.2030   53.7260 C.3   288  TYR288      0.1639
     84  C        -38.6120  -30.6400   54.4280 C.2   288  TYR288      0.2290
     85  O        -39.5440  -29.8480   54.5340 O.2   288  TYR288     -0.2864
     86  CB       -37.2040  -30.7980   52.3030 C.3   288  TYR288      0.0560
     87  CG       -35.8070  -30.6560   51.6860 C.ar  288  TYR288     -0.0198
     88  CD1      -34.8190  -31.6090   51.9310 C.ar  288  TYR288     -0.0009
     89  CD2      -35.4720  -29.5660   50.8720 C.ar  288  TYR288     -0.0009
     90  CE1      -33.5460  -31.4930   51.3930 C.ar  288  TYR288      0.0417
     91  CE2      -34.1920  -29.4400   50.3200 C.ar  288  TYR288      0.0417
     92  CZ       -33.2260  -30.4090   50.5860 C.ar  288  TYR288      0.1957
     93  OH       -31.9420  -30.3100   50.0590 O.3   288  TYR288     -0.2866
     94  N        -28.5790  -21.2950   51.4770 N.3   318  TRP318     -0.1241
     95  CA       -28.0870  -21.7890   50.2070 C.3   318  TRP318      0.1605
     96  C        -29.0090  -21.4570   49.0500 C.2   318  TRP318      0.2264
     97  O        -29.0960  -22.2060   48.0700 O.2   318  TRP318     -0.2867
     98  CB       -27.8090  -23.2880   50.2790 C.3   318  TRP318      0.0550
     99  CG       -28.9370  -24.1650   50.6480 C.ar  318  TRP318      0.0003
    100  CD1      -29.9370  -24.6450   49.8280 C.ar  318  TRP318      0.0946
    101  CD2      -29.1350  -24.7680   51.9130 C.ar  318  TRP318      0.0152
    102  NE1      -30.7720  -25.4740   50.5380 N.ar  318  TRP318     -0.2442
    103  CE2      -30.2930  -25.5700   51.8210 C.ar  318  TRP318      0.0810
    104  CE3      -28.4510  -24.7030   53.1250 C.ar  318  TRP318      0.0012
    105  CZ2      -30.7770  -26.2870   52.9020 C.ar  318  TRP318      0.0191
    106  CZ3      -28.9260  -25.4080   54.1820 C.ar  318  TRP318      0.0001
    107  CH2      -30.0830  -26.1890   54.0750 C.ar  318  TRP318      0.0015
    108  N        -25.0470  -24.9960   54.0670 N.3   352  TRP352     -0.1241
    109  CA       -24.5540  -25.0830   52.6930 C.3   352  TRP352      0.1605
    110  C        -24.6510  -23.7280   51.9930 C.2   352  TRP352      0.2264
    111  O        -25.3190  -22.8030   52.4640 O.2   352  TRP352     -0.2867
    112  CB       -25.3350  -26.1330   51.8890 C.3   352  TRP352      0.0550
    113  CG       -25.3890  -27.5120   52.5170 C.ar  352  TRP352      0.0003
    114  CD1      -26.4260  -28.0500   53.2090 C.ar  352  TRP352      0.0946
    115  CD2      -24.3700  -28.5030   52.4890 C.ar  352  TRP352      0.0152
    116  NE1      -26.1200  -29.3190   53.6190 N.ar  352  TRP352     -0.2442
    117  CE2      -24.8540  -29.6180   53.2020 C.ar  352  TRP352      0.0810
    118  CE3      -23.0900  -28.5620   51.9380 C.ar  352  TRP352      0.0012
    119  CZ2      -24.1000  -30.7790   53.3720 C.ar  352  TRP352      0.0191
    120  CZ3      -22.3440  -29.7090   52.1130 C.ar  352  TRP352      0.0001
    121  CH2      -22.8440  -30.7980   52.8200 C.ar  352  TRP352      0.0015
    122  N        -24.9200  -23.3500   48.2630 N.3   354  ASP354     -0.1239
    123  CA       -25.1340  -23.7000   46.8620 C.3   354  ASP354      0.1674
    124  C        -25.0290  -22.5470   45.8780 C.2   354  ASP354      0.2266
    125  O        -25.6630  -21.5210   46.0710 O.2   354  ASP354     -0.2867
    126  CB       -26.5310  -24.3070   46.7130 C.3   354  ASP354      0.1410
    127  CG       -26.6650  -25.6570   47.3910 C.2   354  ASP354      0.3668
    128  OD1      -25.7310  -26.0960   48.1150 O.co2 354  ASP354     -0.2456
    129  OD2      -27.7320  -26.2770   47.1840 O.co2 354  ASP354     -0.2456
@<TRIPOS>BOND
     1    24    25    1
     2    25    26    1
     3    25    28    1
     4    26    27    2
     5    32    30   ar
     6    32    33   ar
     7    30    29   ar
     8    33    31   ar
     9    29    28    1
    10    29    31   ar
    11   124   125    2
    12   124   123    1
    13     4     3    2
    14   126   123    1
    15   126   127    1
    16   123   122    1
    17     3     2    1
    18     7     8    1
    19     7     6    1
    20     8     9    2
    21    37    36    2
    22   129   127   ar
    23     2     5    1
    24     2     1    1
    25   127   128   ar
    26    36    35    1
    27    11     9    1
    28     5     6    1
    29     9    10    1
    30    97    96    2
    31    38    35    1
    32    38    39    1
    33    35    34    1
    34    41    39   ar
    35    39    40   ar
    36    96    95    1
    37    23    22    1
    38   100   102   ar
    39   100    99   ar
    40    93    92    1
    41    69    67   ar
    42    69    68   ar
    43    95    98    1
    44    95    94    1
    45    98    99    1
    46    22    21   ar
    47    22    20   ar
    48    91    92   ar
    49    91    89   ar
    50    67    65   ar
    51    21    19   ar
    52   102   103   ar
    53    92    90   ar
    54    99   101   ar
    55    89    87   ar
    56    68    66   ar
    57    90    88   ar
    58    20    18   ar
    59    19    17   ar
    60    87    88   ar
    61    87    86    1
    62    65    64   ar
    63    65    63   ar
    64   103   101   ar
    65   103   105   ar
    66   112   113    1
    67   112   109    1
    68   101   104   ar
    69   118   120   ar
    70   118   115   ar
    71   110   111    2
    72   110   109    1
    73   120   121   ar
    74    64    62   ar
    75    86    83    1
    76    66    63   ar
    77   115   113   ar
    78   115   117   ar
    79   113   114   ar
    80    48    50   ar
    81    48    47   ar
    82    18    17   ar
    83   109   108    1
    84    63    61   ar
    85    17    16    1
    86   121   119   ar
    87   105   107   ar
    88    15    14    2
    89    46    47    1
    90    46    43    1
    91    50    51   ar
    92   104   106   ar
    93   117   119   ar
    94   117   116   ar
    95   114   116   ar
    96    47    49   ar
    97    45    44    2
    98    79    77   ar
    99    79    80   ar
   100    77    75   ar
   101    14    13    1
   102    62    61   ar
   103    83    84    1
   104    83    82    1
   105    44    43    1
   106    61    60    1
   107   107   106   ar
   108    51    49   ar
   109    51    53   ar
   110    16    13    1
   111    43    42    1
   112    49    52   ar
   113    84    85    2
   114    81    80    1
   115    80    78   ar
   116    82    72   am
   117    75    74    1
   118    75    76   ar
   119    59    58    2
   120    13    12    1
   121    74    71    1
   122    53    55   ar
   123    72    73    2
   124    72    71    1
   125    70    71    1
   126    52    54   ar
   127    60    57    1
   128    58    57    1
   129    78    76   ar
   130    55    54   ar
   131    57    56    1
