@<TRIPOS>MOLECULE
tmp/5a6bA00.pdb
 140 142 0 0 0
SMALL
GASTEIGER

@<TRIPOS>ATOM
      1  N         21.3700  -14.2530    0.0110 N.3    95  ARG95      -0.1245
      2  CA        22.3900  -13.3310   -0.4980 C.3    95  ARG95       0.1563
      3  C         22.0480  -12.8620   -1.8950 C.2    95  ARG95       0.2260
      4  O         22.8810  -12.3280   -2.5790 O.2    95  ARG95      -0.2867
      5  CB        23.7670  -13.9690   -0.4060 C.3    95  ARG95       0.0307
      6  CG        24.5160  -13.5530    0.8070 C.3    95  ARG95       0.0489
      7  CD        23.7380  -13.7940    2.0860 C.3    95  ARG95       0.2205
      8  NE        24.4810  -13.2640    3.2220 N.pl3  95  ARG95      -0.0865
      9  CZ        25.2730  -13.9720    4.0170 C.cat  95  ARG95       0.5346
     10  NH1       25.4390  -15.2590    3.8210 N.pl3  95  ARG95       0.1354
     11  NH2       25.9150  -13.3830    4.9960 N.pl3  95  ARG95       0.1354
     12  N         19.4010  -21.7010    3.9710 N.3   122  TYR122     -0.1298
     13  CA        19.6580  -20.5830    4.8460 C.3   122  TYR122      0.1290
     14  C         18.8240  -19.4420    4.3520 C.3   122  TYR122      0.2013
     15  O         19.0580  -18.8670    3.2130 O.3   122  TYR122     -0.2188
     16  CB        21.1430  -20.2370    4.9290 C.3   122  TYR122      0.0480
     17  CG        21.4760  -18.9600    5.6840 C.ar  122  TYR122     -0.0204
     18  CD1       21.3390  -18.8830    7.0700 C.ar  122  TYR122     -0.0009
     19  CD2       21.8980  -17.7900    5.0180 C.ar  122  TYR122     -0.0009
     20  CE1       21.6580  -17.7360    7.7660 C.ar  122  TYR122      0.0417
     21  CE2       22.1830  -16.6380    5.6880 C.ar  122  TYR122      0.0417
     22  CZ        22.0680  -16.5860    7.1030 C.ar  122  TYR122      0.1957
     23  OH        22.3990  -15.4370    7.8220 O.3   122  TYR122     -0.2866
     24  N         21.2280  -10.3300   11.2310 N.3   170  HIS170     -0.1241
     25  CA        21.2690  -10.7330    9.8500 C.3   170  HIS170      0.1621
     26  C         19.9420  -10.7610    9.1580 C.2   170  HIS170      0.2264
     27  O         19.6670  -11.6890    8.4260 O.2   170  HIS170     -0.2867
     28  CB        21.9060  -12.1070    9.7420 C.3   170  HIS170      0.0745
     29  CG        23.3900  -12.1020    9.9040 C.ar  170  HIS170      0.0817
     30  ND1       24.2550  -12.0470    8.8220 N.ar  170  HIS170     -0.2268
     31  CD2       24.1650  -12.1240   11.0140 C.ar  170  HIS170      0.1154
     32  CE1       25.5010  -12.0470    9.2620 C.ar  170  HIS170      0.1986
     33  NE2       25.4730  -12.0920   10.5880 N.ar  170  HIS170     -0.2212
     34  N         24.3310  -15.8950   15.0910 N.3   223  ASP223     -0.1239
     35  CA        25.7680  -15.7240   14.8950 C.3   223  ASP223      0.1674
     36  C         26.1700  -14.2590   15.1120 C.2   223  ASP223      0.2266
     37  O         25.3790  -13.3960   14.8450 O.2   223  ASP223     -0.2867
     38  CB        26.2130  -16.2220   13.5280 C.3   223  ASP223      0.1410
     39  CG        25.2970  -15.7630   12.3810 C.2   223  ASP223      0.3668
     40  OD1       24.0260  -15.8180   12.4380 O.co2 223  ASP223     -0.2456
     41  OD2       25.8790  -15.3940   11.3460 O.co2 223  ASP223     -0.2456
     42  N         24.3830  -21.2580   15.9460 N.3   267  TRP267     -0.1241
     43  CA        25.7920  -21.0280   15.8710 C.3   267  TRP267      0.1605
     44  C         26.2110  -20.7340   17.3180 C.2   267  TRP267      0.2264
     45  O         25.4150  -20.1680   18.1090 O.2   267  TRP267     -0.2867
     46  CB        26.1310  -19.8890   14.8870 C.3   267  TRP267      0.0550
     47  CG        25.4470  -20.0050   13.5510 C.ar  267  TRP267      0.0003
     48  CD1       24.4740  -19.1840   13.0520 C.ar  267  TRP267      0.0946
     49  CD2       25.6770  -20.9950   12.5300 C.ar  267  TRP267      0.0152
     50  NE1       24.0770  -19.5980   11.8230 N.ar  267  TRP267     -0.2442
     51  CE2       24.7900  -20.7170   11.4750 C.ar  267  TRP267      0.0810
     52  CE3       26.5640  -22.0700   12.3970 C.ar  267  TRP267      0.0012
     53  CZ2       24.7800  -21.4580   10.2990 C.ar  267  TRP267      0.0191
     54  CZ3       26.5050  -22.8320   11.2720 C.ar  267  TRP267      0.0001
     55  CH2       25.6130  -22.5280   10.2220 C.ar  267  TRP267      0.0015
     56  N         31.2430  -23.3100   13.8390 N.3   292  TRP292     -0.1241
     57  CA        31.5470  -23.0590   12.3890 C.3   292  TRP292      0.1605
     58  C         32.9630  -22.5470   12.1740 C.2   292  TRP292      0.2264
     59  O         33.4160  -21.6500   12.8690 O.2   292  TRP292     -0.2867
     60  CB        30.5260  -22.1010   11.7890 C.3   292  TRP292      0.0550
     61  CG        30.4590  -20.7920   12.4570 C.ar  292  TRP292      0.0003
     62  CD1       29.6530  -20.4450   13.4900 C.ar  292  TRP292      0.0946
     63  CD2       31.1870  -19.6250   12.1000 C.ar  292  TRP292      0.0152
     64  NE1       29.8190  -19.1040   13.8140 N.ar  292  TRP292     -0.2442
     65  CE2       30.7870  -18.5890   12.9920 C.ar  292  TRP292      0.0810
     66  CE3       32.1220  -19.3410   11.1140 C.ar  292  TRP292      0.0012
     67  CZ2       31.2970  -17.3040   12.9020 C.ar  292  TRP292      0.0191
     68  CZ3       32.6330  -18.0830   11.0370 C.ar  292  TRP292      0.0001
     69  CH2       32.2420  -17.0820   11.9270 C.ar  292  TRP292      0.0015
     70  N         35.6340  -22.2770    8.5480 N.3   294  TYR294     -0.1227
     71  CA        35.8140  -22.5360    7.1230 C.3   294  TYR294      0.1736
     72  C         37.2850  -22.3520    6.6960 C.2   294  TYR294      0.2595
     73  O         37.6320  -22.4610    5.5290 O.2   294  TYR294     -0.2718
     74  CB        34.8990  -21.5800    6.3220 C.3   294  TYR294      0.0548
     75  CG        33.5530  -21.4080    6.8810 C.ar  294  TYR294     -0.0200
     76  CD1       32.8340  -22.4740    7.3380 C.ar  294  TYR294     -0.0009
     77  CD2       33.0130  -20.1520    7.0460 C.ar  294  TYR294     -0.0009
     78  CE1       31.5930  -22.2930    7.9030 C.ar  294  TYR294      0.0417
     79  CE2       31.7770  -19.9790    7.5850 C.ar  294  TYR294      0.0417
     80  CZ        31.0880  -21.0360    8.0490 C.ar  294  TYR294      0.1957
     81  OH        29.8350  -20.8680    8.5980 O.3   294  TYR294     -0.2866
     82  N         38.1520  -22.0620    7.6600 N.am  295  TYR295     -0.1976
     83  CA        39.4830  -21.4950    7.3730 C.3   295  TYR295      0.1639
     84  C         40.7460  -22.2310    7.7930 C.2   295  TYR295      0.2290
     85  O         41.7550  -21.9640    7.2360 O.2   295  TYR295     -0.2864
     86  CB        39.6020  -20.1070    8.0270 C.3   295  TYR295      0.0560
     87  CG        38.3650  -19.2610    7.9080 C.ar  295  TYR295     -0.0198
     88  CD1       38.1240  -18.4970    6.7570 C.ar  295  TYR295     -0.0009
     89  CD2       37.3930  -19.2790    8.9070 C.ar  295  TYR295     -0.0009
     90  CE1       36.9480  -17.7730    6.6190 C.ar  295  TYR295      0.0417
     91  CE2       36.2230  -18.5360    8.7890 C.ar  295  TYR295      0.0417
     92  CZ        36.0240  -17.7570    7.6160 C.ar  295  TYR295      0.1957
     93  OH        34.8600  -17.0120    7.5130 O.3   295  TYR295     -0.2866
     94  N         31.4220  -18.2150   -1.8880 N.3   325  TRP325     -0.1241
     95  CA        31.0280  -16.8590   -1.4920 C.3   325  TRP325      0.1605
     96  C         31.9920  -15.7300   -1.7860 C.2   325  TRP325      0.2264
     97  O         31.8600  -14.6270   -1.2040 O.2   325  TRP325     -0.2867
     98  CB        30.6940  -16.8360    0.0070 C.3   325  TRP325      0.0550
     99  CG        31.8000  -17.2880    0.9200 C.ar  325  TRP325      0.0003
    100  CD1       32.7780  -16.5180    1.5260 C.ar  325  TRP325      0.0946
    101  CD2       31.9140  -18.6020    1.5070 C.ar  325  TRP325      0.0152
    102  NE1       33.5430  -17.2880    2.3590 N.ar  325  TRP325     -0.2442
    103  CE2       33.0120  -18.5570    2.4160 C.ar  325  TRP325      0.0810
    104  CE3       31.2300  -19.8000    1.3050 C.ar  325  TRP325      0.0012
    105  CZ2       33.4510  -19.6970    3.0960 C.ar  325  TRP325      0.0191
    106  CZ3       31.6450  -20.9390    1.9910 C.ar  325  TRP325      0.0001
    107  CH2       32.7260  -20.8720    2.8940 C.ar  325  TRP325      0.0015
    108  N         27.6880  -20.5890    1.5330 N.3   359  TRP359     -0.1241
    109  CA        27.3420  -19.1880    1.6110 C.3   359  TRP359      0.1605
    110  C         27.4730  -18.4890    0.2790 C.2   359  TRP359      0.2264
    111  O         28.1970  -18.9420   -0.5310 O.2   359  TRP359     -0.2867
    112  CB        28.1980  -18.4780    2.6480 C.3   359  TRP359      0.0550
    113  CG        28.1440  -19.1120    4.0780 C.ar  359  TRP359      0.0003
    114  CD1       29.1110  -19.8750    4.6310 C.ar  359  TRP359      0.0946
    115  CD2       27.1140  -19.0020    5.0380 C.ar  359  TRP359      0.0152
    116  NE1       28.7790  -20.2130    5.9170 N.ar  359  TRP359     -0.2442
    117  CE2       27.5200  -19.7580    6.1710 C.ar  359  TRP359      0.0810
    118  CE3       25.8820  -18.3710    5.0710 C.ar  359  TRP359      0.0012
    119  CZ2       26.7780  -19.8130    7.3310 C.ar  359  TRP359      0.0191
    120  CZ3       25.0940  -18.4660    6.2440 C.ar  359  TRP359      0.0001
    121  CH2       25.5420  -19.2010    7.3620 C.ar  359  TRP359      0.0015
    122  N         27.9180  -14.7810   -0.1060 N.3   361  ASP361     -0.1239
    123  CA        28.1940  -13.3970    0.3080 C.3   361  ASP361      0.1674
    124  C         28.1230  -12.3330   -0.7900 C.2   361  ASP361      0.2266
    125  O         28.8260  -12.4430   -1.8230 O.2   361  ASP361     -0.2867
    126  CB        29.6370  -13.2910    0.9140 C.3   361  ASP361      0.1410
    127  CG        29.8200  -14.0520    2.2270 C.2   361  ASP361      0.3668
    128  OD1       28.9940  -14.8990    2.5730 O.co2 361  ASP361     -0.2456
    129  OD2       30.8490  -13.7800    2.8710 O.co2 361  ASP361     -0.2456
    130  N         45.9390   -6.5990    3.9270 N.3   586  PHE586     -0.1241
    131  CA        45.5850   -7.8860    4.6400 C.3   586  PHE586      0.1605
    132  C         46.6840   -8.9470    4.3920 C.2   586  PHE586      0.2264
    133  O         47.0510   -9.6630    5.3040 O.2   586  PHE586     -0.2867
    134  CB        44.2540   -8.4120    4.1000 C.3   586  PHE586      0.0534
    135  CG        43.5820   -9.4560    4.9520 C.ar  586  PHE586     -0.0203
    136  CD1       42.7040   -9.0900    5.9770 C.ar  586  PHE586     -0.0042
    137  CD2       43.7530  -10.8290    4.6760 C.ar  586  PHE586     -0.0042
    138  CE1       42.0410  -10.0620    6.7330 C.ar  586  PHE586     -0.0003
    139  CE2       43.1020  -11.7970    5.4360 C.ar  586  PHE586     -0.0003
    140  CZ        42.2480  -11.4150    6.4620 C.ar  586  PHE586     -0.0000
@<TRIPOS>BOND
     1     4     3    2
     2     3     2    1
     3    94    95    1
     4   125   124    2
     5    96    95    1
     6    96    97    2
     7    95    98    1
     8   124   123    1
     9   111   110    2
    10     2     5    1
    11     2     1    1
    12     5     6    1
    13   122   123    1
    14    98    99    1
    15   110   109    1
    16   123   126    1
    17     6     7    1
    18   126   127    1
    19    99   101   ar
    20    99   100   ar
    21   104   101   ar
    22   104   106   ar
    23   101   103   ar
    24   100   102   ar
    25   108   109    1
    26   109   112    1
    27   106   107   ar
    28     7     8    1
    29   127   128   ar
    30   127   129   ar
    31   102   103   ar
    32   103   105   ar
    33   112   113    1
    34   107   105   ar
    35    15    14    1
    36     8     9    2
    37    10     9    1
    38   130   131    1
    39    12    13    1
    40     9    11    1
    41   113   114   ar
    42   113   115   ar
    43   134   131    1
    44   134   135    1
    45    14    13    1
    46   132   131    1
    47   132   133    2
    48   114   116   ar
    49   137   135   ar
    50   137   139   ar
    51    13    16    1
    52    16    17    1
    53   135   136   ar
    54    19    17   ar
    55    19    21   ar
    56   115   118   ar
    57   115   117   ar
    58   118   120   ar
    59   139   140   ar
    60    73    72    2
    61    17    18   ar
    62    21    22   ar
    63   116   117   ar
    64   136   138   ar
    65   117   119   ar
    66   120   121   ar
    67    74    75    1
    68    74    71    1
    69   140   138   ar
    70    90    88   ar
    71    90    92   ar
    72    72    71    1
    73    72    82   am
    74    88    87   ar
    75    75    77   ar
    76    75    76   ar
    77    77    79   ar
    78    18    20   ar
    79    22    20   ar
    80    22    23    1
    81    71    70    1
    82    85    84    2
    83   119   121   ar
    84    76    78   ar
    85    83    82    1
    86    83    84    1
    87    83    86    1
    88    93    92    1
    89    79    80   ar
    90    92    91   ar
    91    78    80   ar
    92    87    86    1
    93    87    89   ar
    94    80    81    1
    95    27    26    2
    96    91    89   ar
    97    30    32   ar
    98    30    29   ar
    99    26    25    1
   100    32    33   ar
   101    28    25    1
   102    28    29    1
   103    25    24    1
   104    29    31   ar
   105    55    53   ar
   106    55    54   ar
   107    53    51   ar
   108    33    31   ar
   109    68    66   ar
   110    68    69   ar
   111    66    63   ar
   112    54    52   ar
   113    41    39   ar
   114    51    50   ar
   115    51    49   ar
   116    60    57    1
   117    60    61    1
   118    50    48   ar
   119    69    67   ar
   120    63    61   ar
   121    63    65   ar
   122    58    57    1
   123    58    59    2
   124    39    40   ar
   125    39    38    1
   126    57    56    1
   127    52    49   ar
   128    61    62   ar
   129    49    47   ar
   130    67    65   ar
   131    65    64   ar
   132    48    47   ar
   133    62    64   ar
   134    38    35    1
   135    47    46    1
   136    37    36    2
   137    46    43    1
   138    35    34    1
   139    35    36    1
   140    43    42    1
   141    43    44    1
   142    44    45    2
