@<TRIPOS>MOLECULE
tmp/5a6hA01.pdb
 104 109 0 0 0
SMALL
GASTEIGER

@<TRIPOS>ATOM
      1  N          9.0770    5.5530    8.4860 N.3     2  HIS2       -0.1226
      2  CA         8.4080    4.4800    9.1730 C.3     2  HIS2        0.1752
      3  C          8.6600    3.1440    8.5410 C.2     2  HIS2        0.2596
      4  O          8.2460    2.9110    7.3950 O.2     2  HIS2       -0.2718
      5  CB         6.8900    4.7420    9.1310 C.3     2  HIS2        0.0759
      6  CG         6.4940    6.0640    9.7000 C.ar    2  HIS2        0.0818
      7  ND1        7.2440    6.7240   10.6610 N.ar    2  HIS2       -0.2268
      8  CD2        5.4280    6.8590    9.4350 C.ar    2  HIS2        0.1154
      9  CE1        6.6460    7.8680   10.9610 C.ar    2  HIS2        0.1986
     10  NE2        5.5590    7.9840   10.2180 N.ar    2  HIS2       -0.2212
     11  N          9.2870    2.2340    9.2660 N.am    3  HIS3       -0.1961
     12  CA         9.4740    0.9020    8.7440 C.3     3  HIS3        0.1787
     13  C          8.9300   -0.1490    9.6730 C.2     3  HIS3        0.2620
     14  O          9.4780   -1.2470    9.7550 O.2     3  HIS3       -0.2715
     15  CB        10.9580    0.6410    8.5850 C.3     3  HIS3        0.0785
     16  CG        11.5700    1.3980    7.4650 C.ar    3  HIS3        0.0821
     17  ND1       12.9340    1.5980    7.3920 N.ar    3  HIS3       -0.2267
     18  CD2       11.0420    1.9660    6.3570 C.ar    3  HIS3        0.1154
     19  CE1       13.2180    2.2610    6.2860 C.ar    3  HIS3        0.1986
     20  NE2       12.0880    2.5120    5.6500 N.ar    3  HIS3       -0.2212
     21  N          7.8720    0.1580   10.3640 N.am    4  TRP4       -0.1974
     22  CA         7.3410   -0.8350   11.3240 C.3     4  TRP4        0.1640
     23  C          6.3850   -1.7150   10.5560 C.2     4  TRP4        0.2290
     24  O          5.7510   -1.2700    9.6120 O.2     4  TRP4       -0.2864
     25  CB         6.6830   -0.1400   12.4840 C.3     4  TRP4        0.0576
     26  CG         5.4590    0.6300   12.1910 C.ar    4  TRP4        0.0006
     27  CD1        5.4080    1.9960   11.8870 C.ar    4  TRP4        0.0946
     28  CD2        4.1350    0.1570   12.1260 C.ar    4  TRP4        0.0152
     29  NE1        4.1500    2.3570   11.6080 N.ar    4  TRP4       -0.2442
     30  CE2        3.3160    1.2660   11.7770 C.ar    4  TRP4        0.0810
     31  CE3        3.5380   -1.0960   12.3650 C.ar    4  TRP4        0.0012
     32  CZ2        1.9180    1.1620   11.6970 C.ar    4  TRP4        0.0191
     33  CZ3        2.1780   -1.2070   12.2310 C.ar    4  TRP4        0.0001
     34  CH2        1.3650   -0.0940   11.9340 C.ar    4  TRP4        0.0015
     35  N         11.1000   -9.3250   11.3580 N.3     9  HIS9       -0.1226
     36  CA        12.1680   -8.3070   11.4170 C.3     9  HIS9        0.1752
     37  C         11.7460   -6.9180   11.7630 C.2     9  HIS9        0.2596
     38  O         12.6000   -6.1010   12.0620 O.2     9  HIS9       -0.2718
     39  CB        12.9520   -8.3630   10.1100 C.3     9  HIS9        0.0759
     40  CG        13.4610   -9.7600    9.8120 C.ar    9  HIS9        0.0818
     41  ND1       14.3960  -10.4100   10.6140 N.ar    9  HIS9       -0.2268
     42  CD2       13.1020  -10.6470    8.8490 C.ar    9  HIS9        0.1154
     43  CE1       14.5760  -11.6420   10.1500 C.ar    9  HIS9        0.1986
     44  NE2       13.8160  -11.8050    9.0770 N.ar    9  HIS9       -0.2212
     45  N         10.4490   -6.6330   11.7480 N.am   10  ASN10      -0.1974
     46  CA         9.9950   -5.2670   12.0360 C.3    10  ASN10       0.1688
     47  C          8.7070   -5.2510   12.8590 C.2    10  ASN10       0.2292
     48  O          8.0160   -4.2170   12.8970 O.2    10  ASN10      -0.2864
     49  CB         9.7450   -4.4950   10.7760 C.3    10  ASN10       0.1181
     50  CG         8.6600   -5.0660    9.9080 C.2    10  ASN10       0.2629
     51  OD1        8.1510   -6.1350   10.1350 O.2    10  ASN10      -0.2716
     52  ND2        8.3060   -4.2960    8.8200 N.am   10  ASN10      -0.0877
     53  N         10.0500   -5.3480   17.9320 N.3    14  HIS14      -0.1226
     54  CA        11.0490   -4.3850   17.4980 C.3    14  HIS14       0.1752
     55  C         10.5750   -2.9400   17.7340 C.2    14  HIS14       0.2592
     56  O         11.4020   -1.9850   17.6490 O.2    14  HIS14      -0.2718
     57  CB        11.3520   -4.5500   16.0080 C.3    14  HIS14       0.0759
     58  CG        12.1030   -5.8060   15.6870 C.ar   14  HIS14       0.0818
     59  ND1       13.4750   -5.8580   15.7260 N.ar   14  HIS14      -0.2268
     60  CD2       11.6800   -7.0310   15.2970 C.ar   14  HIS14       0.1154
     61  CE1       13.8780   -7.0700   15.4030 C.ar   14  HIS14       0.1986
     62  NE2       12.8110   -7.8040   15.1310 N.ar   14  HIS14      -0.2212
     63  N          9.2440   -2.7390   17.8730 N.am   15  TRP15      -0.2029
     64  CA         8.6730   -1.4140   17.8930 C.3    15  TRP15       0.1326
     65  C          9.3150   -0.4850   18.8970 C.3    15  TRP15       0.2039
     66  O          9.4660    0.7570   18.5930 O.3    15  TRP15      -0.2185
     67  CB         7.1620   -1.4190   18.0250 C.3    15  TRP15       0.0523
     68  CG         6.4330   -2.0490   16.9160 C.ar   15  TRP15       0.0002
     69  CD1        6.9190   -2.4140   15.7070 C.ar   15  TRP15       0.0946
     70  CD2        5.0440   -2.3900   16.9050 C.ar   15  TRP15       0.0152
     71  NE1        5.9210   -3.0150   14.9420 N.ar   15  TRP15      -0.2442
     72  CE2        4.7500   -2.9590   15.6480 C.ar   15  TRP15       0.0810
     73  CE3        4.0440   -2.2670   17.8330 C.ar   15  TRP15       0.0012
     74  CZ2        3.4600   -3.4170   15.3140 C.ar   15  TRP15       0.0191
     75  CZ3        2.7800   -2.7220   17.5060 C.ar   15  TRP15       0.0001
     76  CH2        2.5020   -3.2030   16.2550 C.ar   15  TRP15       0.0015
     77  N         12.1660    0.1330   19.8330 N.3    17  LYS17      -0.1231
     78  CA        13.4350    0.8270   19.4580 C.3    17  LYS17       0.1693
     79  C         13.1920    2.1680   18.8110 C.2    17  LYS17       0.2592
     80  O         13.9270    3.1170   19.0560 O.2    17  LYS17      -0.2718
     81  CB        14.2810   -0.0530   18.5810 C.3    17  LYS17       0.0285
     82  CG        14.8360   -1.2690   19.2820 C.3    17  LYS17       0.0035
     83  CD        15.5910   -2.2400   18.4320 C.3    17  LYS17       0.0206
     84  CE        14.6900   -2.9980   17.5160 C.3    17  LYS17       0.1093
     85  NZ        15.4320   -3.8170   16.5040 N.3    17  LYS17      -0.1314
     86  N         12.1410    2.3000   18.0250 N.am   18  ASP18      -0.1960
     87  CA        11.7590    3.6020   17.4850 C.3    18  ASP18       0.1840
     88  C         10.6530    4.3180   18.2330 C.2    18  ASP18       0.2622
     89  O         10.5210    5.5320   18.0750 O.2    18  ASP18      -0.2715
     90  CB        11.4420    3.5300   15.9960 C.3    18  ASP18       0.1450
     91  CG        12.7040    3.2260   15.1920 C.2    18  ASP18       0.3671
     92  OD1       13.3970    4.1780   14.9870 O.co2  18  ASP18      -0.2456
     93  OD2       13.0960    2.0320   15.0770 O.co2  18  ASP18      -0.2456
     94  N          9.8870    3.5690   19.0210 N.am   19  PHE19      -0.1974
     95  CA         8.7580    4.0850   19.7510 C.3    19  PHE19       0.1639
     96  C          8.8620    3.5590   21.1650 C.2    19  PHE19       0.2290
     97  O          8.1970    2.5890   21.5680 O.2    19  PHE19      -0.2864
     98  CB         7.4330    3.5870   19.0910 C.3    19  PHE19       0.0560
     99  CG         7.3510    3.9580   17.6680 C.ar   19  PHE19      -0.0200
    100  CD1        6.9770    5.2360   17.2910 C.ar   19  PHE19      -0.0042
    101  CD2        7.7510    3.0690   16.6710 C.ar   19  PHE19      -0.0042
    102  CE1        6.9900    5.5780   15.9360 C.ar   19  PHE19      -0.0003
    103  CE2        7.7620    3.4230   15.3130 C.ar   19  PHE19      -0.0003
    104  CZ         7.4060    4.6580   14.9550 C.ar   19  PHE19      -0.0000
@<TRIPOS>BOND
     1    20    19   ar
     2    20    18   ar
     3    19    17   ar
     4    18    16   ar
     5    17    16   ar
     6     4     3    2
     7    16    15    1
     8     1     2    1
     9     3     2    1
    10     3    11   am
    11    15    12    1
    12    12    11    1
    13    12    13    1
    14    52    50   am
    15    42    44   ar
    16    42    40   ar
    17    44    43   ar
    18     5     2    1
    19     5     6    1
    20     8     6   ar
    21     8    10   ar
    22    24    23    2
    23    13    14    2
    24    13    21   am
    25     6     7   ar
    26    40    39    1
    27    40    41   ar
    28    50    51    2
    29    50    49    1
    30    39    36    1
    31    43    41   ar
    32    10     9   ar
    33    21    22    1
    34    23    22    1
    35     7     9   ar
    36    49    46    1
    37    22    25    1
    38    35    36    1
    39    36    37    1
    40    29    30   ar
    41    29    27   ar
    42    32    30   ar
    43    32    34   ar
    44    45    37   am
    45    45    46    1
    46    37    38    2
    47    30    28   ar
    48    27    26   ar
    49    34    33   ar
    50    46    47    1
    51    28    26   ar
    52    28    31   ar
    53    26    25    1
    54    33    31   ar
    55    47    48    2
    56    71    72   ar
    57    71    69   ar
    58   104   103   ar
    59   104   102   ar
    60    92    91   ar
    61    93    91   ar
    62    62    60   ar
    63    62    61   ar
    64    91    90    1
    65    60    58   ar
    66   103   101   ar
    67    74    72   ar
    68    74    76   ar
    69    61    59   ar
    70    72    70   ar
    71    58    59   ar
    72    58    57    1
    73    69    68   ar
    74   102   100   ar
    75    90    87    1
    76    57    54    1
    77    76    75   ar
    78    85    84    1
    79   101    99   ar
    80    70    68   ar
    81    70    73   ar
    82    68    67    1
    83   100    99   ar
    84    87    86    1
    85    87    88    1
    86    54    55    1
    87    54    53    1
    88    75    73   ar
    89    84    83    1
    90    56    55    2
    91    99    98    1
    92    55    63   am
    93    63    64    1
    94    64    67    1
    95    64    65    1
    96    86    79   am
    97    89    88    2
    98    88    94   am
    99    83    82    1
   100    81    82    1
   101    81    78    1
   102    66    65    1
   103    79    80    2
   104    79    78    1
   105    94    95    1
   106    98    95    1
   107    78    77    1
   108    95    96    1
   109    96    97    2
