@<TRIPOS>MOLECULE
tmp/5a6hA02.pdb
 97 98 0 0 0
SMALL
GASTEIGER

@<TRIPOS>ATOM
      1  N          9.0770    5.5530    8.4860 N.3     2  HIS2       -0.1241
      2  CA         8.4080    4.4800    9.1730 C.3     2  HIS2        0.1621
      3  C          8.6600    3.1440    8.5410 C.2     2  HIS2        0.2264
      4  O          8.2460    2.9110    7.3950 O.2     2  HIS2       -0.2867
      5  CB         6.8900    4.7420    9.1310 C.3     2  HIS2        0.0745
      6  CG         6.4940    6.0640    9.7000 C.ar    2  HIS2        0.0817
      7  ND1        7.2440    6.7240   10.6610 N.ar    2  HIS2       -0.2268
      8  CD2        5.4280    6.8590    9.4350 C.ar    2  HIS2        0.1154
      9  CE1        6.6460    7.8680   10.9610 C.ar    2  HIS2        0.1986
     10  NE2        5.5590    7.9840   10.2180 N.ar    2  HIS2       -0.2212
     11  N          7.8720    0.1580   10.3640 N.3     4  TRP4       -0.1241
     12  CA         7.3410   -0.8350   11.3240 C.3     4  TRP4        0.1605
     13  C          6.3850   -1.7150   10.5560 C.2     4  TRP4        0.2264
     14  O          5.7510   -1.2700    9.6120 O.2     4  TRP4       -0.2867
     15  CB         6.6830   -0.1400   12.4840 C.3     4  TRP4        0.0550
     16  CG         5.4590    0.6300   12.1910 C.ar    4  TRP4        0.0003
     17  CD1        5.4080    1.9960   11.8870 C.ar    4  TRP4        0.0946
     18  CD2        4.1350    0.1570   12.1260 C.ar    4  TRP4        0.0152
     19  NE1        4.1500    2.3570   11.6080 N.ar    4  TRP4       -0.2442
     20  CE2        3.3160    1.2660   11.7770 C.ar    4  TRP4        0.0810
     21  CE3        3.5380   -1.0960   12.3650 C.ar    4  TRP4        0.0012
     22  CZ2        1.9180    1.1620   11.6970 C.ar    4  TRP4        0.0191
     23  CZ3        2.1780   -1.2070   12.2310 C.ar    4  TRP4        0.0001
     24  CH2        1.3650   -0.0940   11.9340 C.ar    4  TRP4        0.0015
     25  N         12.1410    2.3000   18.0250 N.3    18  ASP18      -0.1225
     26  CA        11.7590    3.6020   17.4850 C.3    18  ASP18       0.1805
     27  C         10.6530    4.3180   18.2330 C.2    18  ASP18       0.2598
     28  O         10.5210    5.5320   18.0750 O.2    18  ASP18      -0.2718
     29  CB        11.4420    3.5300   15.9960 C.3    18  ASP18       0.1424
     30  CG        12.7040    3.2260   15.1920 C.2    18  ASP18       0.3668
     31  OD1       13.3970    4.1780   14.9870 O.co2  18  ASP18      -0.2456
     32  OD2       13.0960    2.0320   15.0770 O.co2  18  ASP18      -0.2456
     33  N          9.8870    3.5690   19.0210 N.am   19  PHE19      -0.1963
     34  CA         8.7580    4.0850   19.7510 C.3    19  PHE19       0.1756
     35  C          8.8620    3.5590   21.1650 C.2    19  PHE19       0.2461
     36  O          8.1970    2.5890   21.5680 O.2    19  PHE19      -0.2730
     37  CB         7.4330    3.5870   19.0910 C.3    19  PHE19       0.0574
     38  CG         7.3510    3.9580   17.6680 C.ar   19  PHE19      -0.0200
     39  CD1        6.9770    5.2360   17.2910 C.ar   19  PHE19      -0.0042
     40  CD2        7.7510    3.0690   16.6710 C.ar   19  PHE19      -0.0042
     41  CE1        6.9900    5.5780   15.9360 C.ar   19  PHE19      -0.0003
     42  CE2        7.7620    3.4230   15.3130 C.ar   19  PHE19      -0.0003
     43  CZ         7.4060    4.6580   14.9550 C.ar   19  PHE19      -0.0000
     44  N          9.6860    4.1930   22.0030 N.am   20  PRO20      -0.2716
     45  CA         9.9240    3.6540   23.3120 C.3    20  PRO20       0.1536
     46  C          8.6970    3.5810   24.2540 C.2    20  PRO20       0.2598
     47  O          8.7140    2.8090   25.1820 O.2    20  PRO20      -0.2715
     48  CB        10.9970    4.5790   23.8930 C.3    20  PRO20       0.0310
     49  CG        10.9890    5.7760   23.0000 C.3    20  PRO20       0.0237
     50  CD        10.6630    5.2490   21.6510 C.3    20  PRO20       0.0939
     51  N          7.6320    4.3270   23.9310 N.am   21  ILE21      -0.1978
     52  CA         6.4180    4.2430   24.7220 C.3    21  ILE21       0.1596
     53  C          5.7860    2.8620   24.5510 C.2    21  ILE21       0.2287
     54  O          4.8830    2.5140   25.3010 O.2    21  ILE21      -0.2864
     55  CB         5.4300    5.3210   24.3190 C.3    21  ILE21       0.0276
     56  CG1        4.4550    5.5860   25.4350 C.3    21  ILE21       0.0022
     57  CG2        4.7170    4.8990   23.0440 C.3    21  ILE21       0.0022
     58  CD1        3.5520    6.7360   25.1520 C.3    21  ILE21       0.0001
     59  N         -0.5970   -1.8760    6.3100 N.3    63  HIS63      -0.1241
     60  CA        -0.7010   -2.5070    7.6490 C.3    63  HIS63       0.1621
     61  C         -2.0860   -3.1590    7.7660 C.2    63  HIS63       0.2264
     62  O         -2.1650   -4.3220    8.1910 O.2    63  HIS63      -0.2867
     63  CB        -0.5360   -1.4780    8.7460 C.3    63  HIS63       0.0745
     64  CG         0.7020   -0.6440    8.6060 C.ar   63  HIS63       0.0817
     65  ND1        1.9680   -1.1630    8.6980 N.ar   63  HIS63      -0.2268
     66  CD2        0.8610    0.6660    8.3850 C.ar   63  HIS63       0.1154
     67  CE1        2.8650   -0.2140    8.5620 C.ar   63  HIS63       0.1986
     68  NE2        2.2350    0.9120    8.3670 N.ar   63  HIS63      -0.2212
     69  N         -4.7160   13.0820   19.6380 N.3   133  VAL133     -0.1245
     70  CA        -3.7850   11.9640   19.9910 C.3   133  VAL133      0.1561
     71  C         -2.7020   12.3650   20.9750 C.2   133  VAL133      0.2260
     72  O         -2.0510   11.4760   21.5480 O.2   133  VAL133     -0.2867
     73  CB        -3.1320   11.2520   18.7330 C.3   133  VAL133      0.0252
     74  CG1       -4.1540   10.6200   17.7900 C.3   133  VAL133      0.0019
     75  CG2       -2.2470   12.1780   17.9320 C.3   133  VAL133      0.0019
     76  N          2.2810    1.6180   16.1610 N.3   199  PRO199     -0.2103
     77  CA         3.0830    2.8800   16.1600 C.3   199  PRO199      0.1489
     78  C          2.1610    4.0430   15.6990 C.2   199  PRO199      0.2417
     79  O          1.4630    3.9150   14.6570 O.2   199  PRO199     -0.2734
     80  CB         4.2350    2.4930   15.2450 C.3   199  PRO199      0.0282
     81  CG         4.4440    1.0490   15.5490 C.3   199  PRO199      0.0208
     82  CD         3.0330    0.5330   15.5180 C.3   199  PRO199      0.0893
     83  N          2.3020    5.2040   16.3280 N.am  200  PRO200     -0.2729
     84  CA         3.2660    5.5660   17.3440 C.3   200  PRO200      0.1401
     85  C          2.9050    5.2170   18.8120 C.2   200  PRO200      0.2269
     86  O          3.5680    5.7050   19.7610 O.2   200  PRO200     -0.2865
     87  CB         3.3940    7.0690   17.1560 C.3   200  PRO200      0.0296
     88  CG         2.0810    7.4920   16.7770 C.3   200  PRO200      0.0237
     89  CD         1.6020    6.4110   15.8190 C.3   200  PRO200      0.0939
     90  N          0.6870    5.9040   20.9650 N.3   202  LEU202     -0.1245
     91  CA         0.3810    6.9340   21.9150 C.3   202  LEU202      0.1561
     92  C         -0.6590    6.5730   22.9070 C.2   202  LEU202      0.2260
     93  O         -1.6510    5.8910   22.5750 O.2   202  LEU202     -0.2867
     94  CB        -0.0530    8.1920   21.1490 C.3   202  LEU202      0.0270
     95  CG         1.0430    8.7610   20.2310 C.3   202  LEU202      0.0019
     96  CD1        0.4050    9.8130   19.3070 C.3   202  LEU202      0.0001
     97  CD2        2.2310    9.3020   21.0000 C.3   202  LEU202      0.0001
@<TRIPOS>BOND
     1    59    60    1
     2     4     3    2
     3    60    61    1
     4    60    63    1
     5    61    62    2
     6    68    66   ar
     7    68    67   ar
     8    66    64   ar
     9     1     2    1
    10     3     2    1
    11    67    65   ar
    12    64    65   ar
    13    64    63    1
    14     5     2    1
    15     5     6    1
    16     8     6   ar
    17     8    10   ar
    18    14    13    2
    19     6     7   ar
    20    10     9   ar
    21    11    12    1
    22    13    12    1
    23     7     9   ar
    24    12    15    1
    25    19    20   ar
    26    19    17   ar
    27    22    20   ar
    28    22    24   ar
    29    20    18   ar
    30    17    16   ar
    31    24    23   ar
    32    18    16   ar
    33    18    21   ar
    34    16    15    1
    35    23    21   ar
    36    79    78    2
    37    43    42   ar
    38    43    41   ar
    39    31    30   ar
    40    32    30   ar
    41    30    29    1
    42    80    81    1
    43    80    77    1
    44    42    40   ar
    45    82    81    1
    46    82    76    1
    47    78    77    1
    48    78    83   am
    49    89    83    1
    50    89    88    1
    51    41    39   ar
    52    29    26    1
    53    77    76    1
    54    83    84    1
    55    40    38   ar
    56    88    87    1
    57    87    84    1
    58    39    38   ar
    59    84    85    1
    60    26    25    1
    61    26    27    1
    62    38    37    1
    63    74    73    1
    64    75    73    1
    65    28    27    2
    66    27    33   am
    67    73    70    1
    68    85    86    2
    69    33    34    1
    70    37    34    1
    71    96    95    1
    72    69    70    1
    73    34    35    1
    74    70    71    1
    75    95    97    1
    76    95    94    1
    77    90    91    1
    78    71    72    2
    79    94    91    1
    80    35    36    2
    81    35    44   am
    82    50    44    1
    83    50    49    1
    84    91    92    1
    85    44    45    1
    86    93    92    2
    87    49    48    1
    88    57    55    1
    89    45    48    1
    90    45    46    1
    91    51    46   am
    92    51    52    1
    93    46    47    2
    94    55    52    1
    95    55    56    1
    96    53    52    1
    97    53    54    2
    98    58    56    1
