@<TRIPOS>MOLECULE
tmp/5a6kA00.pdb
 138 140 0 0 0
SMALL
GASTEIGER

@<TRIPOS>ATOM
      1  N        -28.7970  -23.0880   15.2150 N.3    94  ARG94      -0.1245
      2  CA       -27.7850  -22.7000   16.2110 C.3    94  ARG94       0.1563
      3  C        -28.0060  -21.2640   16.7410 C.2    94  ARG94       0.2260
      4  O        -27.1450  -20.6900   17.4400 O.2    94  ARG94      -0.2867
      5  CB       -26.3990  -22.8660   15.5970 C.3    94  ARG94       0.0307
      6  CG       -25.7070  -24.1770   15.9270 C.3    94  ARG94       0.0489
      7  CD       -26.5900  -25.4290   15.8310 C.3    94  ARG94       0.2205
      8  NE       -25.8940  -26.5840   16.4140 N.pl3  94  ARG94      -0.0865
      9  CZ       -25.3900  -27.6160   15.7360 C.cat  94  ARG94       0.5346
     10  NH1      -25.5080  -27.6950   14.4080 N.pl3  94  ARG94       0.1354
     11  NH2      -24.7750  -28.5930   16.4060 N.pl3  94  ARG94       0.1354
     12  N        -30.7950  -26.5110    7.5630 N.3   121  TYR121     -0.1241
     13  CA       -30.7670  -27.4460    8.6750 C.3   121  TYR121      0.1605
     14  C        -31.5910  -26.9010    9.8520 C.2   121  TYR121      0.2264
     15  O        -31.2490  -25.9060   10.4840 O.2   121  TYR121     -0.2867
     16  CB       -29.3110  -27.7220    9.1030 C.3   121  TYR121      0.0534
     17  CG       -29.1610  -28.5280   10.3730 C.ar  121  TYR121     -0.0201
     18  CD1      -29.4110  -29.9160   10.3940 C.ar  121  TYR121     -0.0009
     19  CD2      -28.7640  -27.9180   11.5510 C.ar  121  TYR121     -0.0009
     20  CE1      -29.2750  -30.6460   11.5640 C.ar  121  TYR121      0.0417
     21  CE2      -28.6180  -28.6310   12.7320 C.ar  121  TYR121      0.0417
     22  CZ       -28.8710  -29.9970   12.7430 C.ar  121  TYR121      0.1957
     23  OH       -28.7080  -30.7020   13.9290 O.3   121  TYR121     -0.2866
     24  N        -30.1550  -34.0710   18.6130 N.3   169  HIS169     -0.1241
     25  CA       -30.0030  -32.6620   18.2500 C.3   169  HIS169      0.1621
     26  C        -31.3530  -31.9000   18.2760 C.2   169  HIS169      0.2264
     27  O        -31.6410  -31.0750   17.4010 O.2   169  HIS169     -0.2867
     28  CB       -29.3270  -32.5170   16.8890 C.3   169  HIS169      0.0745
     29  CG       -27.8440  -32.6760   16.9350 C.ar  169  HIS169      0.0817
     30  ND1      -27.0180  -31.7580   17.5360 N.ar  169  HIS169     -0.2268
     31  CD2      -27.0400  -33.6590   16.4730 C.ar  169  HIS169      0.1154
     32  CE1      -25.7620  -32.1550   17.4240 C.ar  169  HIS169      0.1986
     33  NE2      -25.7500  -33.3130   16.7900 N.ar  169  HIS169     -0.2212
     34  N        -27.6100  -38.2230   13.4500 N.3   222  ASP222     -0.1225
     35  CA       -26.2390  -38.0900   13.9110 C.3   222  ASP222      0.1805
     36  C        -26.2050  -37.9210   15.4300 C.2   222  ASP222      0.2597
     37  O        -27.1600  -37.4310   16.0380 O.2   222  ASP222     -0.2718
     38  CB       -25.5340  -36.8940   13.2450 C.3   222  ASP222      0.1424
     39  CG       -26.1770  -35.5770   13.5940 C.2   222  ASP222      0.3668
     40  OD1      -27.4150  -35.4690   13.4120 O.co2 222  ASP222     -0.2456
     41  OD2      -25.4480  -34.6690   14.0880 O.co2 222  ASP222     -0.2456
     42  N        -25.0910  -38.3370   16.0130 N.am  223  GLU223     -0.1979
     43  CA       -24.6570  -37.9130   17.3620 C.3   223  GLU223      0.1602
     44  C        -25.7130  -38.1090   18.4530 C.2   223  GLU223      0.2287
     45  O        -25.9770  -37.2230   19.2540 O.2   223  GLU223     -0.2864
     46  CB       -24.1430  -36.4650   17.3220 C.3   223  GLU223      0.0415
     47  CG       -22.8180  -36.3050   16.5900 C.3   223  GLU223      0.1163
     48  CD       -22.3520  -34.8680   16.4400 C.2   223  GLU223      0.3649
     49  OE1      -23.1620  -33.9330   16.6580 O.co2 223  GLU223     -0.2457
     50  OE2      -21.1670  -34.6620   16.0780 O.co2 223  GLU223     -0.2457
     51  N        -27.3530  -38.8790    8.1900 N.3   266  TRP266     -0.1241
     52  CA       -25.9680  -38.8890    8.5860 C.3   266  TRP266      0.1605
     53  C        -25.6530  -40.3110    9.0130 C.2   266  TRP266      0.2264
     54  O        -26.5110  -40.9810    9.6020 O.2   266  TRP266     -0.2867
     55  CB       -25.6910  -37.9060    9.7350 C.3   266  TRP266      0.0550
     56  CG       -26.2250  -36.5110    9.5160 C.ar  266  TRP266      0.0003
     57  CD1      -27.1960  -35.9080   10.2330 C.ar  266  TRP266      0.0946
     58  CD2      -25.8310  -35.5660    8.5050 C.ar  266  TRP266      0.0152
     59  NE1      -27.4320  -34.6500    9.7560 N.ar  266  TRP266     -0.2442
     60  CE2      -26.6050  -34.4040    8.7030 C.ar  266  TRP266      0.0810
     61  CE3      -24.8970  -35.5830    7.4710 C.ar  266  TRP266      0.0012
     62  CZ2      -26.4950  -33.2690    7.8850 C.ar  266  TRP266      0.0191
     63  CZ3      -24.7600  -34.4460    6.6730 C.ar  266  TRP266      0.0001
     64  CH2      -25.5630  -33.3100    6.8800 C.ar  266  TRP266      0.0015
     65  N        -19.8150  -37.6710    6.6320 N.3   306  TRP306     -0.1241
     66  CA       -19.4370  -36.2880    6.8460 C.3   306  TRP306      0.1605
     67  C        -18.0940  -36.2180    7.5360 C.2   306  TRP306      0.2264
     68  O        -17.8400  -36.9090    8.5130 O.2   306  TRP306     -0.2867
     69  CB       -20.4820  -35.5420    7.6880 C.3   306  TRP306      0.0550
     70  CG       -20.7880  -36.1200    9.0720 C.ar  306  TRP306      0.0003
     71  CD1      -21.7680  -37.0080    9.3740 C.ar  306  TRP306      0.0946
     72  CD2      -20.1360  -35.7960   10.3140 C.ar  306  TRP306      0.0152
     73  NE1      -21.7760  -37.2600   10.7330 N.ar  306  TRP306     -0.2442
     74  CE2      -20.7710  -36.5450   11.3270 C.ar  306  TRP306      0.0810
     75  CE3      -19.0610  -34.9580   10.6670 C.ar  306  TRP306      0.0012
     76  CZ2      -20.3730  -36.4760   12.6910 C.ar  306  TRP306      0.0191
     77  CZ3      -18.6570  -34.9020   12.0150 C.ar  306  TRP306      0.0001
     78  CH2      -19.3190  -35.6520   13.0080 C.ar  306  TRP306      0.0015
     79  N        -14.9770  -33.0900    8.0290 N.3   308  TYR308     -0.1227
     80  CA       -14.4850  -31.7310    7.7730 C.3   308  TYR308      0.1736
     81  C        -13.0360  -31.5290    8.0920 C.2   308  TYR308      0.2595
     82  O        -12.5670  -30.4130    7.9900 O.2   308  TYR308     -0.2718
     83  CB       -15.3090  -30.7070    8.5870 C.3   308  TYR308      0.0548
     84  CG       -16.7600  -31.0140    8.4940 C.ar  308  TYR308     -0.0200
     85  CD1      -17.3740  -31.1050    7.2640 C.ar  308  TYR308     -0.0009
     86  CD2      -17.5070  -31.2880    9.6370 C.ar  308  TYR308     -0.0009
     87  CE1      -18.7070  -31.4460    7.1640 C.ar  308  TYR308      0.0417
     88  CE2      -18.8350  -31.6040    9.5550 C.ar  308  TYR308      0.0417
     89  CZ       -19.4280  -31.6970    8.3120 C.ar  308  TYR308      0.1957
     90  OH       -20.7670  -32.0150    8.2180 O.3   308  TYR308     -0.2866
     91  N        -12.3300  -32.6100    8.4170 N.am  309  TYR309     -0.1976
     92  CA       -11.0730  -32.5420    9.1510 C.3   309  TYR309      0.1639
     93  C         -9.8300  -33.1300    8.4430 C.2   309  TYR309      0.2290
     94  O         -8.7210  -32.7820    8.7990 O.2   309  TYR309     -0.2864
     95  CB       -11.2590  -33.2550   10.5070 C.3   309  TYR309      0.0560
     96  CG       -12.5810  -32.9400   11.1940 C.ar  309  TYR309     -0.0198
     97  CD1      -12.7520  -31.7550   11.9180 C.ar  309  TYR309     -0.0009
     98  CD2      -13.6650  -33.8270   11.1130 C.ar  309  TYR309     -0.0009
     99  CE1      -13.9610  -31.4630   12.5390 C.ar  309  TYR309      0.0417
    100  CE2      -14.8840  -33.5520   11.7370 C.ar  309  TYR309      0.0417
    101  CZ       -15.0230  -32.3780   12.4570 C.ar  309  TYR309      0.1957
    102  OH       -16.2240  -32.0990   13.0530 O.3   309  TYR309     -0.2866
    103  N        -18.2240  -22.2900   11.9340 N.3   339  TRP339     -0.1241
    104  CA       -18.7980  -22.7220   13.2090 C.3   339  TRP339      0.1605
    105  C        -17.8660  -22.5800   14.3980 C.2   339  TRP339      0.2264
    106  O        -18.0770  -23.1910   15.4530 O.2   339  TRP339     -0.2867
    107  CB       -19.3050  -24.1660   13.1080 C.3   339  TRP339      0.0550
    108  CG       -18.3100  -25.2380   12.6890 C.ar  339  TRP339      0.0003
    109  CD1      -17.4350  -25.9190   13.5050 C.ar  339  TRP339      0.0946
    110  CD2      -18.1740  -25.8130   11.3860 C.ar  339  TRP339      0.0152
    111  NE1      -16.7460  -26.8510   12.7770 N.ar  339  TRP339     -0.2442
    112  CE2      -17.1730  -26.8020   11.4700 C.ar  339  TRP339      0.0810
    113  CE3      -18.7830  -25.5650   10.1450 C.ar  339  TRP339      0.0012
    114  CZ2      -16.7820  -27.5690   10.3640 C.ar  339  TRP339      0.0191
    115  CZ3      -18.3820  -26.3110    9.0390 C.ar  339  TRP339      0.0001
    116  CH2      -17.3840  -27.3050    9.1590 C.ar  339  TRP339      0.0015
    117  N        -22.1940  -25.3040    9.2180 N.3   373  TRP373     -0.1241
    118  CA       -22.6790  -25.3550   10.5930 C.3   373  TRP373      0.1605
    119  C        -22.4110  -24.0390   11.3460 C.2   373  TRP373      0.2264
    120  O        -21.5230  -23.2450   10.9720 O.2   373  TRP373     -0.2867
    121  CB       -22.0420  -26.5260   11.3620 C.3   373  TRP373      0.0550
    122  CG       -22.2110  -27.8410   10.6830 C.ar  373  TRP373      0.0003
    123  CD1      -21.2550  -28.5300    9.9780 C.ar  373  TRP373      0.0946
    124  CD2      -23.3970  -28.6330   10.6360 C.ar  373  TRP373      0.0152
    125  NE1      -21.7750  -29.7050    9.5110 N.ar  373  TRP373     -0.2442
    126  CE2      -23.0880  -29.8030    9.9020 C.ar  373  TRP373      0.0810
    127  CE3      -24.6860  -28.4900   11.1690 C.ar  373  TRP373      0.0012
    128  CZ2      -24.0360  -30.8180    9.6630 C.ar  373  TRP373      0.0191
    129  CZ3      -25.6270  -29.4990   10.9280 C.ar  373  TRP373      0.0001
    130  CH2      -25.2900  -30.6460   10.1820 C.ar  373  TRP373      0.0015
    131  N        -22.2970  -23.9500   15.0400 N.3   375  ASP375     -0.1239
    132  CA       -22.1250  -24.4070   16.4390 C.3   375  ASP375      0.1674
    133  C        -22.1180  -23.3290   17.5180 C.2   375  ASP375      0.2266
    134  O        -21.3760  -22.3620   17.4330 O.2   375  ASP375     -0.2867
    135  CB       -20.7840  -25.1180   16.6060 C.3   375  ASP375      0.1410
    136  CG       -20.6920  -26.4180   15.8600 C.2   375  ASP375      0.3668
    137  OD1      -21.5640  -26.7070   15.0260 O.co2 375  ASP375     -0.2456
    138  OD2      -19.7030  -27.1500   16.0930 O.co2 375  ASP375     -0.2456
@<TRIPOS>BOND
     1    65    66    1
     2    63    64   ar
     3    63    61   ar
     4    66    67    1
     5    66    69    1
     6    64    62   ar
     7    87    85   ar
     8    87    89   ar
     9    85    84   ar
    10    61    58   ar
    11    67    68    2
    12    12    13    1
    13    69    70    1
    14    80    79    1
    15    80    81    1
    16    80    83    1
    17    62    60   ar
    18    82    81    2
    19    81    91   am
    20    51    52    1
    21    90    89    1
    22    89    88   ar
    23    91    92    1
    24    93    94    2
    25    93    92    1
    26    84    83    1
    27    84    86   ar
    28    58    60   ar
    29    58    56   ar
    30    52    53    1
    31    52    55    1
    32    13    16    1
    33    13    14    1
    34    60    59   ar
    35    53    54    2
    36   115   116   ar
    37   115   113   ar
    38    70    71   ar
    39    70    72   ar
    40    16    17    1
    41    92    95    1
    42   116   114   ar
    43   117   118    1
    44    71    73   ar
    45   125   126   ar
    46   125   123   ar
    47    56    55    1
    48    56    57   ar
    49    88    86   ar
    50   128   126   ar
    51   128   130   ar
    52    59    57   ar
    53    14    15    2
    54   126   124   ar
    55   123   122   ar
    56   113   110   ar
    57   130   129   ar
    58    72    75   ar
    59    72    74   ar
    60   114   112   ar
    61    17    18   ar
    62    17    19   ar
    63    18    20   ar
    64    95    96    1
    65   118   119    1
    66   118   121    1
    67   124   122   ar
    68   124   127   ar
    69    75    77   ar
    70   122   121    1
    71    73    74   ar
    72   129   127   ar
    73   120   119    2
    74    98    96   ar
    75    98   100   ar
    76    96    97   ar
    77    74    76   ar
    78   110   112   ar
    79   110   108   ar
    80   112   111   ar
    81    19    21   ar
    82    20    22   ar
    83   100   101   ar
    84    97    99   ar
    85   103   104    1
    86    77    78   ar
    87   101    99   ar
    88   101   102    1
    89   108   107    1
    90   108   109   ar
    91    76    78   ar
    92    21    22   ar
    93    22    23    1
    94   111   109   ar
    95   107   104    1
    96   104   105    1
    97    38    39    1
    98    38    35    1
    99    40    39   ar
   100    34    35    1
   101    39    41   ar
   102    35    36    1
   103   105   106    2
   104    10     9    1
   105   137   136   ar
   106   131   132    1
   107     1     2    1
   108    36    42   am
   109    36    37    2
   110     5     6    1
   111     5     2    1
   112     9    11    1
   113     9     8    2
   114     7     6    1
   115     7     8    1
   116   136   138   ar
   117   136   135    1
   118    42    43    1
   119    50    48   ar
   120     2     3    1
   121   132   135    1
   122   132   133    1
   123    48    47    1
   124    48    49   ar
   125    31    33   ar
   126    31    29   ar
   127    47    46    1
   128     3     4    2
   129    33    32   ar
   130    28    29    1
   131    28    25    1
   132    29    30   ar
   133    46    43    1
   134    43    44    1
   135    27    26    2
   136    32    30   ar
   137   134   133    2
   138    25    26    1
   139    25    24    1
   140    44    45    2
