@<TRIPOS>MOLECULE
tmp/5a6lA02.pdb
 123 124 0 0 0
SMALL
GASTEIGER

@<TRIPOS>ATOM
      1  N         37.0210   49.9390   21.0520 N.3    26  TRP26      -0.1241
      2  CA        35.9640   50.5520   20.2320 C.3    26  TRP26       0.1605
      3  C         35.6640   51.9900   20.5470 C.2    26  TRP26       0.2264
      4  O         35.3890   52.7820   19.6280 O.2    26  TRP26      -0.2867
      5  CB        34.6970   49.7310   20.3120 C.3    26  TRP26       0.0550
      6  CG        34.7580   48.4450   19.5560 C.ar   26  TRP26       0.0003
      7  CD1       35.7740   48.0070   18.7600 C.ar   26  TRP26       0.0946
      8  CD2       33.7650   47.4290   19.5580 C.ar   26  TRP26       0.0152
      9  NE1       35.4680   46.7610   18.2730 N.ar   26  TRP26      -0.2442
     10  CE2       34.2300   46.3890   18.7390 C.ar   26  TRP26       0.0810
     11  CE3       32.5030   47.2970   20.1680 C.ar   26  TRP26       0.0012
     12  CZ2       33.4550   45.2470   18.4530 C.ar   26  TRP26       0.0191
     13  CZ3       31.7580   46.1590   19.9110 C.ar   26  TRP26       0.0001
     14  CH2       32.2490   45.1370   19.0520 C.ar   26  TRP26       0.0015
     15  N         31.6400   44.6370   33.1420 N.3    52  ARG52      -0.1245
     16  CA        31.8580   43.7330   32.0160 C.3    52  ARG52       0.1563
     17  C         32.8840   44.3150   31.0210 C.2    52  ARG52       0.2260
     18  O         32.9250   45.5060   30.8000 O.2    52  ARG52      -0.2867
     19  CB        30.5240   43.4240   31.3710 C.3    52  ARG52       0.0307
     20  CG        30.5790   42.3560   30.2990 C.3    52  ARG52       0.0489
     21  CD        29.1870   42.2340   29.7300 C.3    52  ARG52       0.2205
     22  NE        29.1230   41.2420   28.6340 N.pl3  52  ARG52      -0.0865
     23  CZ        28.7560   41.5240   27.3830 C.cat  52  ARG52       0.5346
     24  NH1       28.3930   42.7620   26.9850 N.pl3  52  ARG52       0.1354
     25  NH2       28.7000   40.5170   26.5120 N.pl3  52  ARG52       0.1354
     26  N         34.2110   38.5470   21.3820 N.3    84  TRP84      -0.1241
     27  CA        33.4120   38.7220   20.1700 C.3    84  TRP84       0.1605
     28  C         33.8850   37.8570   18.9970 C.2    84  TRP84       0.2264
     29  O         33.0540   37.3270   18.2500 O.2    84  TRP84      -0.2867
     30  CB        33.3990   40.1770   19.7240 C.3    84  TRP84       0.0550
     31  CG        32.2680   41.0910   20.3550 C.ar   84  TRP84       0.0003
     32  CD1       31.2600   41.7010   19.6510 C.ar   84  TRP84       0.0946
     33  CD2       32.0350   41.4570   21.7340 C.ar   84  TRP84       0.0152
     34  NE1       30.4290   42.4510   20.4890 N.ar   84  TRP84      -0.2442
     35  CE2       30.8830   42.3030   21.7660 C.ar   84  TRP84       0.0810
     36  CE3       32.6640   41.1540   22.9440 C.ar   84  TRP84       0.0012
     37  CZ2       30.3650   42.8140   22.9720 C.ar   84  TRP84       0.0191
     38  CZ3       32.1580   41.6980   24.1370 C.ar   84  TRP84       0.0001
     39  CH2       31.0250   42.5250   24.1220 C.ar   84  TRP84       0.0015
     40  N         29.9260   36.4130   23.0750 N.3   138  ASN138     -0.1225
     41  CA        28.8730   37.4500   23.0910 C.3   138  ASN138      0.1785
     42  C         27.8970   37.2660   21.9890 C.2   138  ASN138      0.2597
     43  O         28.2850   37.3340   20.8180 O.2   138  ASN138     -0.2718
     44  CB        29.5530   38.8370   22.9190 C.3   138  ASN138      0.1169
     45  CG        28.5400   39.9600   22.8250 C.2   138  ASN138      0.2627
     46  OD1       27.9880   40.3660   23.8200 O.2   138  ASN138     -0.2716
     47  ND2       28.2280   40.3870   21.6100 N.am  138  ASN138     -0.0877
     48  N         26.6220   37.0740   22.3030 N.am  139  GLU139     -0.1979
     49  CA        25.5760   37.0580   21.2670 C.3   139  GLU139      0.1602
     50  C         25.9090   36.1620   20.0850 C.2   139  GLU139      0.2287
     51  O         25.9870   36.6510   18.9090 O.2   139  GLU139     -0.2864
     52  CB        25.2770   38.4670   20.7910 C.3   139  GLU139      0.0415
     53  CG        24.7300   39.3090   21.9450 C.3   139  GLU139      0.1163
     54  CD        24.2110   40.6610   21.5750 C.2   139  GLU139      0.3649
     55  OE1       24.2330   41.0780   20.3780 O.co2 139  GLU139     -0.2457
     56  OE2       23.6930   41.3410   22.5460 O.co2 139  GLU139     -0.2457
     57  N         30.3280   39.6190   14.0440 N.3   146  TRP146     -0.1241
     58  CA        31.3080   38.8770   14.8180 C.3   146  TRP146      0.1605
     59  C         31.2030   37.3720   14.5240 C.2   146  TRP146      0.2264
     60  O         31.0520   37.0090   13.3560 O.2   146  TRP146     -0.2867
     61  CB        31.2380   39.2890   16.2900 C.3   146  TRP146      0.0550
     62  CG        29.8900   39.3010   16.9600 C.ar  146  TRP146      0.0003
     63  CD1       29.2120   38.2330   17.5390 C.ar  146  TRP146      0.0946
     64  CD2       29.0910   40.4600   17.2020 C.ar  146  TRP146      0.0152
     65  NE1       27.9850   38.6810   18.0650 N.ar  146  TRP146     -0.2442
     66  CE2       27.9190   40.0410   17.9090 C.ar  146  TRP146      0.0810
     67  CE3       29.2320   41.8080   16.8650 C.ar  146  TRP146      0.0012
     68  CZ2       26.9100   40.9470   18.2980 C.ar  146  TRP146      0.0191
     69  CZ3       28.2460   42.7220   17.2980 C.ar  146  TRP146      0.0001
     70  CH2       27.0980   42.2820   17.9620 C.ar  146  TRP146      0.0015
     71  N         21.1390   38.3630   27.4260 N.3   201  HIS201     -0.1241
     72  CA        20.8610   39.7870   27.1610 C.3   201  HIS201      0.1621
     73  C         19.3480   39.9970   27.0020 C.2   201  HIS201      0.2264
     74  O         18.5890   38.9970   26.7740 O.2   201  HIS201     -0.2867
     75  CB        21.6120   40.3000   25.9360 C.3   201  HIS201      0.0745
     76  CG        23.0950   40.1400   26.0360 C.ar  201  HIS201      0.0817
     77  ND1       23.9550   40.3960   24.9890 N.ar  201  HIS201     -0.2268
     78  CD2       23.8720   39.7270   27.0590 C.ar  201  HIS201      0.1154
     79  CE1       25.1930   40.1340   25.3680 C.ar  201  HIS201      0.1986
     80  NE2       25.1750   39.7520   26.6200 N.ar  201  HIS201     -0.2212
     81  N         17.6710   42.4310   24.8500 N.3   203  TYR203     -0.1241
     82  CA        17.3050   43.3000   23.7140 C.3   203  TYR203      0.1605
     83  C         16.0260   42.7780   23.0720 C.2   203  TYR203      0.2264
     84  O         16.0360   41.7420   22.3980 O.2   203  TYR203     -0.2867
     85  CB        18.4570   43.3680   22.6910 C.3   203  TYR203      0.0534
     86  CG        19.6670   44.0460   23.2230 C.ar  203  TYR203     -0.0201
     87  CD1       19.7290   45.4190   23.2920 C.ar  203  TYR203     -0.0009
     88  CD2       20.7690   43.3360   23.5800 C.ar  203  TYR203     -0.0009
     89  CE1       20.8490   46.0520   23.7560 C.ar  203  TYR203      0.0417
     90  CE2       21.9240   43.9750   24.0840 C.ar  203  TYR203      0.0417
     91  CZ        21.9380   45.3390   24.1580 C.ar  203  TYR203      0.1957
     92  OH        23.0630   45.9880   24.6450 O.3   203  TYR203     -0.2866
     93  N         23.7400   42.2590   29.3310 N.3   228  ALA228     -0.1245
     94  CA        23.7510   43.4340   28.5080 C.3   228  ALA228      0.1562
     95  C         22.3610   43.8410   28.1180 C.2   228  ALA228      0.2260
     96  O         21.5380   43.0070   27.7210 O.2   228  ALA228     -0.2867
     97  CB        24.5860   43.2310   27.2340 C.3   228  ALA228      0.0290
     98  N         20.3490   47.9120   26.7300 N.3   230  TYR230     -0.1241
     99  CA        19.9950   49.3400   26.9770 C.3   230  TYR230      0.1605
    100  C         18.5070   49.4090   26.7210 C.2   230  TYR230      0.2264
    101  O         17.9890   48.7090   25.8480 O.2   230  TYR230     -0.2867
    102  CB        20.8350   50.3250   26.1180 C.3   230  TYR230      0.0534
    103  CG        20.9500   49.9680   24.6450 C.ar  230  TYR230     -0.0201
    104  CD1       19.8840   50.1240   23.7860 C.ar  230  TYR230     -0.0009
    105  CD2       22.1200   49.3900   24.1480 C.ar  230  TYR230     -0.0009
    106  CE1       20.0120   49.7720   22.4530 C.ar  230  TYR230      0.0417
    107  CE2       22.2500   49.0780   22.8120 C.ar  230  TYR230      0.0417
    108  CZ        21.1830   49.2450   21.9980 C.ar  230  TYR230      0.1957
    109  OH        21.3220   48.8860   20.6740 O.3   230  TYR230     -0.2866
    110  N         24.8400   48.0050   28.7720 N.3   267  TRP267     -0.1241
    111  CA        25.8960   48.2070   27.7600 C.3   267  TRP267      0.1605
    112  C         26.8920   49.3300   28.2250 C.2   267  TRP267      0.2264
    113  O         27.1540   49.4620   29.4390 O.2   267  TRP267     -0.2867
    114  CB        25.2690   48.4190   26.3740 C.3   267  TRP267      0.0550
    115  CG        26.1730   48.4850   25.1340 C.ar  267  TRP267      0.0003
    116  CD1       26.0820   49.4190   24.1360 C.ar  267  TRP267      0.0946
    117  CD2       27.2470   47.6090   24.7430 C.ar  267  TRP267      0.0152
    118  NE1       27.0230   49.1760   23.1430 N.ar  267  TRP267     -0.2442
    119  CE2       27.7620   48.0940   23.5110 C.ar  267  TRP267      0.0810
    120  CE3       27.8480   46.5020   25.3250 C.ar  267  TRP267      0.0012
    121  CZ2       28.8710   47.4710   22.8390 C.ar  267  TRP267      0.0191
    122  CZ3       28.9450   45.8990   24.6600 C.ar  267  TRP267      0.0001
    123  CH2       29.4420   46.4070   23.4410 C.ar  267  TRP267      0.0015
@<TRIPOS>BOND
     1    60    59    2
     2    57    58    1
     3    59    58    1
     4    58    61    1
     5    61    62    1
     6    67    64   ar
     7    67    69   ar
     8    62    64   ar
     9    62    63   ar
    10    64    66   ar
    11    69    70   ar
    12    63    65   ar
    13    66    65   ar
    14    66    68   ar
    15    70    68   ar
    16    29    28    2
    17     9    10   ar
    18     9     7   ar
    19    12    10   ar
    20    12    14   ar
    21    10     8   ar
    22     7     6   ar
    23    51    50    2
    24    28    27    1
    25    14    13   ar
    26     6     8   ar
    27     6     5    1
    28     8    11   ar
    29     4     3    2
    30    32    31   ar
    31    32    34   ar
    32    30    27    1
    33    30    31    1
    34    13    11   ar
    35    50    49    1
    36    27    26    1
    37     2     5    1
    38     2     3    1
    39     2     1    1
    40    31    33   ar
    41    55    54   ar
    42    34    35   ar
    43   109   108    1
    44    52    49    1
    45    52    53    1
    46    43    42    2
    47    49    48    1
    48    54    53    1
    49    54    56   ar
    50    47    45   am
    51    33    35   ar
    52    33    36   ar
    53    35    37   ar
    54    42    48   am
    55    42    41    1
    56   108   106   ar
    57   108   107   ar
    58    84    83    2
    59   106   104   ar
    60    85    86    1
    61    85    82    1
    62   107   105   ar
    63    45    44    1
    64    45    46    2
    65   121   123   ar
    66   121   119   ar
    67    44    41    1
    68    36    38   ar
    69    37    39   ar
    70    83    82    1
    71    40    41    1
    72   118   119   ar
    73   118   116   ar
    74    86    87   ar
    75    86    88   ar
    76    87    89   ar
    77   123   122   ar
    78   119   117   ar
    79    88    90   ar
    80    82    81    1
    81    89    91   ar
    82   104   103   ar
    83    90    91   ar
    84    39    38   ar
    85   116   115   ar
    86   105   103   ar
    87    91    92    1
    88   103   102    1
    89   122   120   ar
    90   117   115   ar
    91   117   120   ar
    92    77    79   ar
    93    77    76   ar
    94   115   114    1
    95    79    80   ar
    96   101   100    2
    97    75    76    1
    98    75    72    1
    99    76    78   ar
   100   102    99    1
   101   114   111    1
   102    25    23    1
   103    80    78   ar
   104   100    99    1
   105    98    99    1
   106    74    73    2
   107    24    23    1
   108    73    72    1
   109    72    71    1
   110    97    94    1
   111    23    22    2
   112    96    95    2
   113   111   112    1
   114   111   110    1
   115    95    94    1
   116   112   113    2
   117    94    93    1
   118    22    21    1
   119    21    20    1
   120    20    19    1
   121    18    17    2
   122    17    16    1
   123    19    16    1
   124    16    15    1
