@<TRIPOS>MOLECULE
tmp/5a6mA00.pdb
 156 158 0 0 0
SMALL
GASTEIGER

@<TRIPOS>ATOM
      1  N         37.2230   49.7440   20.8740 N.3    26  TRP26      -0.1241
      2  CA        36.1930   50.3420   20.0340 C.3    26  TRP26       0.1605
      3  C         35.8790   51.7960   20.3250 C.2    26  TRP26       0.2264
      4  O         35.5580   52.5320   19.3910 O.2    26  TRP26      -0.2867
      5  CB        34.8970   49.5290   20.1140 C.3    26  TRP26       0.0550
      6  CG        34.9650   48.2290   19.4070 C.ar   26  TRP26       0.0003
      7  CD1       35.9410   47.7690   18.5910 C.ar   26  TRP26       0.0946
      8  CD2       33.9380   47.2190   19.3780 C.ar   26  TRP26       0.0152
      9  NE1       35.6060   46.5340   18.0950 N.ar   26  TRP26      -0.2442
     10  CE2       34.3720   46.1880   18.5260 C.ar   26  TRP26       0.0810
     11  CE3       32.6980   47.0980   19.9990 C.ar   26  TRP26       0.0012
     12  CZ2       33.6060   45.0540   18.2730 C.ar   26  TRP26       0.0191
     13  CZ3       31.9320   45.9680   19.7480 C.ar   26  TRP26       0.0001
     14  CH2       32.3980   44.9620   18.8860 C.ar   26  TRP26       0.0015
     15  N         34.4320   38.4210   21.2100 N.3    84  TRP84      -0.1241
     16  CA        33.6250   38.6080   20.0150 C.3    84  TRP84       0.1605
     17  C         34.0960   37.7300   18.8540 C.2    84  TRP84       0.2264
     18  O         33.2540   37.2030   18.1130 O.2    84  TRP84      -0.2867
     19  CB        33.6090   40.0830   19.5770 C.3    84  TRP84       0.0550
     20  CG        32.5280   40.9560   20.1510 C.ar   84  TRP84       0.0003
     21  CD1       31.5500   41.5460   19.4460 C.ar   84  TRP84       0.0946
     22  CD2       32.3060   41.3380   21.5470 C.ar   84  TRP84       0.0152
     23  NE1       30.7360   42.2760   20.2680 N.ar   84  TRP84      -0.2442
     24  CE2       31.1690   42.1630   21.5560 C.ar   84  TRP84       0.0810
     25  CE3       32.9320   41.0350   22.7910 C.ar   84  TRP84       0.0012
     26  CZ2       30.6580   42.7370   22.7220 C.ar   84  TRP84       0.0191
     27  CZ3       32.4200   41.6030   23.9320 C.ar   84  TRP84       0.0001
     28  CH2       31.3030   42.4410   23.8950 C.ar   84  TRP84       0.0015
     29  N         30.2800   36.3270   22.8530 N.3   138  ASN138     -0.1225
     30  CA        29.2370   37.3310   22.8900 C.3   138  ASN138      0.1785
     31  C         28.2320   37.1330   21.7700 C.2   138  ASN138      0.2597
     32  O         28.6210   37.1350   20.6040 O.2   138  ASN138     -0.2718
     33  CB        29.8960   38.6990   22.6730 C.3   138  ASN138      0.1169
     34  CG        28.8670   39.8020   22.5580 C.2   138  ASN138      0.2627
     35  OD1       28.3250   40.2330   23.5560 O.2   138  ASN138     -0.2716
     36  ND2       28.5710   40.2320   21.3350 N.am  138  ASN138     -0.0877
     37  N         26.9540   36.9830   22.0730 N.am  139  GLU139     -0.1979
     38  CA        25.9080   36.9610   21.0370 C.3   139  GLU139      0.1602
     39  C         26.2380   36.0310   19.8660 C.2   139  GLU139      0.2287
     40  O         26.2890   36.4590   18.7000 O.2   139  GLU139     -0.2864
     41  CB        25.5700   38.3620   20.5880 C.3   139  GLU139      0.0415
     42  CG        25.0800   39.2050   21.7260 C.3   139  GLU139      0.1163
     43  CD        24.4780   40.5370   21.3560 C.2   139  GLU139      0.3649
     44  OE1       24.4450   40.9040   20.1590 O.co2 139  GLU139     -0.2457
     45  OE2       24.0300   41.2560   22.2920 O.co2 139  GLU139     -0.2457
     46  N         28.3270   40.6930   12.6040 N.3   145  GLU145     -0.1231
     47  CA        29.5700   41.4410   12.6650 C.3   145  GLU145      0.1699
     48  C         30.6620   40.7540   13.4690 C.2   145  GLU145      0.2592
     49  O         31.6850   41.3660   13.7520 O.2   145  GLU145     -0.2718
     50  CB        29.3110   42.8460   13.2030 C.3   145  GLU145      0.0402
     51  CG        28.4510   43.7160   12.2960 C.3   145  GLU145      0.1161
     52  CD        28.3180   45.1040   12.8420 C.2   145  GLU145      0.3649
     53  OE1       29.3420   45.7520   13.1340 O.co2 145  GLU145     -0.2457
     54  OE2       27.1980   45.5830   12.9560 O.co2 145  GLU145     -0.2457
     55  N         30.4550   39.4890   13.8480 N.am  146  TRP146     -0.1976
     56  CA        31.4490   38.7460   14.6320 C.3   146  TRP146      0.1640
     57  C         31.3340   37.2630   14.3510 C.2   146  TRP146      0.2290
     58  O         31.1700   36.8860   13.1970 O.2   146  TRP146     -0.2864
     59  CB        31.4150   39.1910   16.0960 C.3   146  TRP146      0.0576
     60  CG        30.0680   39.1910   16.7740 C.ar  146  TRP146      0.0006
     61  CD1       29.4010   38.1640   17.3550 C.ar  146  TRP146      0.0946
     62  CD2       29.2710   40.3570   16.9940 C.ar  146  TRP146      0.0152
     63  NE1       28.2170   38.5970   17.8930 N.ar  146  TRP146     -0.2442
     64  CE2       28.1190   39.9440   17.7070 C.ar  146  TRP146      0.0810
     65  CE3       29.4140   41.7090   16.6880 C.ar  146  TRP146      0.0012
     66  CZ2       27.1260   40.8480   18.0960 C.ar  146  TRP146      0.0191
     67  CZ3       28.4420   42.6080   17.1060 C.ar  146  TRP146      0.0001
     68  CH2       27.3100   42.1570   17.7750 C.ar  146  TRP146      0.0015
     69  N         21.6440   38.2470   27.1780 N.3   201  HIS201     -0.1241
     70  CA        21.3880   39.6640   26.8990 C.3   201  HIS201      0.1621
     71  C         19.8810   39.8710   26.7320 C.2   201  HIS201      0.2264
     72  O         19.1140   38.9110   26.5300 O.2   201  HIS201     -0.2867
     73  CB        22.1290   40.1700   25.6760 C.3   201  HIS201      0.0745
     74  CG        23.5950   39.9920   25.7780 C.ar  201  HIS201      0.0817
     75  ND1       24.4430   40.2830   24.7430 N.ar  201  HIS201     -0.2268
     76  CD2       24.3730   39.5530   26.7950 C.ar  201  HIS201      0.1154
     77  CE1       25.6830   40.0660   25.1430 C.ar  201  HIS201      0.1986
     78  NE2       25.6700   39.6170   26.3860 N.ar  201  HIS201     -0.2212
     79  N         18.1970   42.3370   24.5920 N.3   203  TYR203     -0.1241
     80  CA        17.7780   43.1810   23.4760 C.3   203  TYR203      0.1605
     81  C         16.4920   42.6630   22.8420 C.2   203  TYR203      0.2264
     82  O         16.5160   41.6390   22.1540 O.2   203  TYR203     -0.2867
     83  CB        18.8870   43.2620   22.4310 C.3   203  TYR203      0.0534
     84  CG        20.1230   43.9330   22.9580 C.ar  203  TYR203     -0.0201
     85  CD1       20.1650   45.3060   23.1040 C.ar  203  TYR203     -0.0009
     86  CD2       21.2430   43.2240   23.2990 C.ar  203  TYR203     -0.0009
     87  CE1       21.2830   45.9330   23.5780 C.ar  203  TYR203      0.0417
     88  CE2       22.3640   43.8560   23.7910 C.ar  203  TYR203      0.0417
     89  CZ        22.3920   45.2120   23.9220 C.ar  203  TYR203      0.1957
     90  OH        23.5480   45.8390   24.3680 O.3   203  TYR203     -0.2866
     91  N         24.2770   42.1510   29.0620 N.3   228  ALA228     -0.1245
     92  CA        24.2740   43.3460   28.2270 C.3   228  ALA228      0.1562
     93  C         22.8590   43.7530   27.8570 C.2   228  ALA228      0.2260
     94  O         22.0520   42.9160   27.4090 O.2   228  ALA228     -0.2867
     95  CB        25.0250   43.1190   26.9150 C.3   228  ALA228      0.0290
     96  N         20.8720   47.8390   26.4680 N.3   230  TYR230     -0.1241
     97  CA        20.4980   49.2510   26.6930 C.3   230  TYR230      0.1605
     98  C         19.0110   49.3120   26.4620 C.2   230  TYR230      0.2264
     99  O         18.4690   48.5760   25.6540 O.2   230  TYR230     -0.2867
    100  CB        21.2720   50.2570   25.8100 C.3   230  TYR230      0.0534
    101  CG        21.2780   49.9040   24.3490 C.ar  230  TYR230     -0.0201
    102  CD1       20.1760   50.0930   23.5500 C.ar  230  TYR230     -0.0009
    103  CD2       22.4080   49.3350   23.7760 C.ar  230  TYR230     -0.0009
    104  CE1       20.2390   49.7250   22.1880 C.ar  230  TYR230      0.0417
    105  CE2       22.4810   48.9840   22.4540 C.ar  230  TYR230      0.0417
    106  CZ        21.3910   49.1660   21.6710 C.ar  230  TYR230      0.1957
    107  OH        21.4580   48.7580   20.3230 O.3   230  TYR230     -0.2866
    108  N         25.3720   47.8970   28.5110 N.3   267  TRP267     -0.1227
    109  CA        26.3810   48.0990   27.4690 C.3   267  TRP267      0.1737
    110  C         27.3390   49.2260   27.9170 C.2   267  TRP267      0.2595
    111  O         27.6070   49.3620   29.1330 O.2   267  TRP267     -0.2718
    112  CB        25.6630   48.3170   26.1260 C.3   267  TRP267      0.0564
    113  CG        26.5160   48.4030   24.8920 C.ar  267  TRP267      0.0003
    114  CD1       26.4300   49.3580   23.9430 C.ar  267  TRP267      0.0946
    115  CD2       27.5920   47.5320   24.4860 C.ar  267  TRP267      0.0152
    116  NE1       27.3440   49.1250   22.9390 N.ar  267  TRP267     -0.2442
    117  CE2       28.0810   48.0250   23.2600 C.ar  267  TRP267      0.0810
    118  CE3       28.1860   46.3800   25.0280 C.ar  267  TRP267      0.0012
    119  CZ2       29.1550   47.4250   22.5940 C.ar  267  TRP267      0.0191
    120  CZ3       29.2620   45.7770   24.3330 C.ar  267  TRP267      0.0001
    121  CH2       29.7170   46.3000   23.1540 C.ar  267  TRP267      0.0015
    122  N         27.8740   50.0300   26.9980 N.am  268  TYR268     -0.1976
    123  CA        28.9220   50.9920   27.3920 C.3   268  TYR268      0.1639
    124  C         28.5080   51.8150   28.5640 C.2   268  TYR268      0.2290
    125  O         27.4660   52.4840   28.5550 O.2   268  TYR268     -0.2864
    126  CB        29.2500   51.9240   26.2410 C.3   268  TYR268      0.0560
    127  CG        29.7610   51.2990   24.9680 C.ar  268  TYR268     -0.0198
    128  CD1       30.7460   50.2860   24.9670 C.ar  268  TYR268     -0.0009
    129  CD2       29.3550   51.8020   23.7430 C.ar  268  TYR268     -0.0009
    130  CE1       31.2720   49.8300   23.7680 C.ar  268  TYR268      0.0417
    131  CE2       29.8970   51.3610   22.5450 C.ar  268  TYR268      0.0417
    132  CZ        30.8730   50.3600   22.5620 C.ar  268  TYR268      0.1957
    133  OH        31.4800   49.8830   21.4110 O.3   268  TYR268     -0.2866
    134  N         28.4100   56.7620   27.5200 N.3   271  ARG271     -0.1245
    135  CA        27.8470   56.9040   26.1820 C.3   271  ARG271      0.1563
    136  C         26.6860   57.8810   26.3050 C.2   271  ARG271      0.2260
    137  O         26.0800   58.0280   27.3640 O.2   271  ARG271     -0.2867
    138  CB        27.3850   55.5580   25.6210 C.3   271  ARG271      0.0307
    139  CG        27.5670   55.3760   24.1360 C.3   271  ARG271      0.0489
    140  CD        29.0330   55.3760   23.7230 C.3   271  ARG271      0.2205
    141  NE        29.1910   55.0300   22.3200 N.pl3 271  ARG271     -0.0865
    142  CZ        30.2210   55.3740   21.5870 C.cat 271  ARG271      0.5346
    143  NH1       31.2200   56.0840   22.0900 N.pl3 271  ARG271      0.1354
    144  NH2       30.2460   55.0240   20.2930 N.pl3 271  ARG271      0.1354
    145  N         23.6760   57.7040   25.5230 N.3   273  TYR273     -0.1241
    146  CA        22.4580   56.9870   25.9110 C.3   273  TYR273      0.1605
    147  C         22.6670   56.0740   27.1130 C.2   273  TYR273      0.2264
    148  O         21.8000   55.2610   27.4180 O.2   273  TYR273     -0.2867
    149  CB        21.8980   56.2050   24.7220 C.3   273  TYR273      0.0534
    150  CG        22.8260   55.1700   24.1650 C.ar  273  TYR273     -0.0201
    151  CD1       23.7160   55.5300   23.1570 C.ar  273  TYR273     -0.0009
    152  CD2       22.8400   53.8640   24.6240 C.ar  273  TYR273     -0.0009
    153  CE1       24.6350   54.6030   22.6630 C.ar  273  TYR273      0.0417
    154  CE2       23.7210   52.9220   24.1360 C.ar  273  TYR273      0.0417
    155  CZ        24.5910   53.3070   23.1340 C.ar  273  TYR273      0.1957
    156  OH        25.4660   52.3500   22.7080 O.3   273  TYR273     -0.2866
@<TRIPOS>BOND
     1    51    52    1
     2    51    50    1
     3    46    47    1
     4    47    50    1
     5    47    48    1
     6    52    54   ar
     7    52    53   ar
     8    58    57    2
     9    48    49    2
    10    48    55   am
    11    55    56    1
    12    57    56    1
    13    56    59    1
    14    59    60    1
    15    65    62   ar
    16    65    67   ar
    17    60    62   ar
    18    60    61   ar
    19    62    64   ar
    20    67    68   ar
    21    61    63   ar
    22    64    63   ar
    23    64    66   ar
    24    68    66   ar
    25     9    10   ar
    26     9     7   ar
    27    18    17    2
    28    12    10   ar
    29    12    14   ar
    30    10     8   ar
    31     7     6   ar
    32    40    39    2
    33    17    16    1
    34    14    13   ar
    35     8     6   ar
    36     8    11   ar
    37     4     3    2
    38     6     5    1
    39    21    20   ar
    40    21    23   ar
    41    19    16    1
    42    19    20    1
    43    13    11   ar
    44    39    38    1
    45    16    15    1
    46     2     5    1
    47     2     3    1
    48     2     1    1
    49    20    22   ar
    50    44    43   ar
    51    23    24   ar
    52   144   142    1
    53   107   106    1
    54    41    38    1
    55    41    42    1
    56    32    31    2
    57    38    37    1
    58    36    34   am
    59    43    42    1
    60    43    45   ar
    61   133   132    1
    62    22    24   ar
    63    22    25   ar
    64    24    26   ar
    65   142   143    1
    66   142   141    2
    67   106   104   ar
    68   106   105   ar
    69    31    37   am
    70    31    30    1
    71    82    81    2
    72   104   102   ar
    73   141   140    1
    74    83    84    1
    75    83    80    1
    76   105   103   ar
    77   131   132   ar
    78   131   129   ar
    79    34    33    1
    80    34    35    2
    81   132   130   ar
    82   119   121   ar
    83   119   117   ar
    84   153   155   ar
    85   153   151   ar
    86    33    30    1
    87   156   155    1
    88    26    28   ar
    89    25    27   ar
    90    81    80    1
    91    29    30    1
    92   116   117   ar
    93   116   114   ar
    94    84    85   ar
    95    84    86   ar
    96    85    87   ar
    97   155   154   ar
    98   121   120   ar
    99   151   150   ar
   100   117   115   ar
   101    86    88   ar
   102    80    79    1
   103   102   101   ar
   104    87    89   ar
   105   140   139    1
   106   129   127   ar
   107   130   128   ar
   108   103   101   ar
   109    88    89   ar
   110    28    27   ar
   111    89    90    1
   112   114   113   ar
   113   154   152   ar
   114   139   138    1
   115   150   152   ar
   116   150   149    1
   117   120   118   ar
   118   101   100    1
   119   115   113   ar
   120   115   118   ar
   121   149   146    1
   122    75    77   ar
   123    75    74   ar
   124   113   112    1
   125   128   127   ar
   126   127   126    1
   127    77    78   ar
   128   145   146    1
   129   138   135    1
   130    99    98    2
   131    73    74    1
   132    73    70    1
   133    74    76   ar
   134   100    97    1
   135   146   147    1
   136   112   109    1
   137   135   136    1
   138   135   134    1
   139   126   123    1
   140   136   137    2
   141    78    76   ar
   142    98    97    1
   143    96    97    1
   144    72    71    2
   145    71    70    1
   146    70    69    1
   147    95    92    1
   148   122   123    1
   149   122   110   am
   150   147   148    2
   151   123   124    1
   152    94    93    2
   153   109   110    1
   154   109   108    1
   155    93    92    1
   156   110   111    2
   157    92    91    1
   158   125   124    2
