@<TRIPOS>MOLECULE
tmp/5a6nA00.pdb
 120 111 0 0 0
SMALL
GASTEIGER

@<TRIPOS>ATOM
      1  N          5.0890  115.4190   94.3850 N.3    12  LEU12      -0.1231
      2  CA         5.8260  114.2440   94.8230 C.3    12  LEU12       0.1693
      3  C          5.2910  113.6240   96.0990 C.2    12  LEU12       0.2593
      4  O          5.4550  112.4270   96.3450 O.2    12  LEU12      -0.2718
      5  CB         7.2950  114.5990   95.0580 C.3    12  LEU12       0.0284
      6  CG         8.0760  115.0270   93.8150 C.3    12  LEU12       0.0019
      7  CD1        9.4330  115.6110   94.1790 C.3    12  LEU12       0.0001
      8  CD2        8.2100  113.8390   92.8670 C.3    12  LEU12       0.0001
      9  N          4.6830  114.4240   96.9600 N.am   13  GLY13      -0.1942
     10  CA         4.2040  113.8730   98.2280 C.3    13  GLY13       0.2014
     11  C          3.6680  114.9780   99.1260 C.2    13  GLY13       0.2640
     12  O          3.7030  116.1460   98.7510 O.2    13  GLY13      -0.2714
     13  N          3.1190  114.5940  100.2740 N.am   14  SER14      -0.1935
     14  CA         2.5940  115.5770  101.2350 C.3    14  SER14       0.2055
     15  C          2.7150  115.0520  102.6460 C.2    14  SER14       0.2644
     16  O          2.7100  113.8340  102.8810 O.2    14  SER14      -0.2714
     17  CB         1.1500  115.9700  100.8990 C.3    14  SER14       0.2130
     18  OG         0.2260  114.9110  101.0950 O.3    14  SER14      -0.2179
     19  N          2.8610  115.9780  103.5910 N.am   15  GLY15      -0.1939
     20  CA         3.0600  115.6340  105.0000 C.3    15  GLY15       0.2014
     21  C          2.3400  116.6620  105.8390 C.2    15  GLY15       0.2638
     22  O          1.2890  117.1470  105.4300 O.2    15  GLY15      -0.2714
     23  N          2.9260  117.0180  106.9730 N.am   16  GLN16      -0.1977
     24  CA         2.2920  117.9350  107.9230 C.3    16  GLN16       0.1601
     25  C          2.2790  119.3660  107.3790 C.2    16  GLN16       0.2287
     26  O          3.3050  120.0540  107.4040 O.2    16  GLN16      -0.2864
     27  CB         3.0160  117.8640  109.2810 C.3    16  GLN16       0.0394
     28  CG         2.2260  118.4750  110.4230 C.3    16  GLN16       0.0908
     29  CD         2.9980  118.5400  111.7150 C.2    16  GLN16       0.2608
     30  OE1        3.5160  119.5950  112.0810 O.2    16  GLN16      -0.2717
     31  NE2        3.0770  117.4170  112.4210 N.am   16  GLN16      -0.0878
     32  N          2.3840  120.4860  104.5190 N.3    18  ALA18      -0.1245
     33  CA         3.4260  120.6970  103.5000 C.3    18  ALA18       0.1562
     34  C          3.0640  119.8730  102.2720 C.2    18  ALA18       0.2260
     35  O          2.4650  118.8120  102.3960 O.2    18  ALA18      -0.2867
     36  CB         4.7570  120.2790  104.0350 C.3    18  ALA18       0.0290
     37  N          5.1070  118.6910   98.6110 N.3    20  VAL20      -0.1245
     38  CA         6.4100  118.6820   97.9600 C.3    20  VAL20       0.1561
     39  C          6.1860  118.5410   96.4560 C.2    20  VAL20       0.2260
     40  O          5.4340  117.6500   96.0210 O.2    20  VAL20      -0.2867
     41  CB         7.2880  117.5380   98.5200 C.3    20  VAL20       0.0252
     42  CG1        8.6720  117.5140   97.8630 C.3    20  VAL20       0.0019
     43  CG2        7.4270  117.6330  100.0370 C.3    20  VAL20       0.0019
     44  N          9.4800  122.1870   98.7910 N.3    35  LYS35      -0.1245
     45  CA         8.5580  121.8620   99.9120 C.3    35  LYS35       0.1561
     46  C          7.8180  123.1650  100.2770 C.2    35  LYS35       0.2260
     47  O          8.4140  124.0620  100.8140 O.2    35  LYS35      -0.2867
     48  CB         9.2940  121.2970  101.1060 C.3    35  LYS35       0.0271
     49  CG         8.4510  120.8720  102.3280 C.3    35  LYS35       0.0035
     50  CD         9.3350  120.3430  103.4500 C.3    35  LYS35       0.0206
     51  CE         8.6230  119.7670  104.6750 C.3    35  LYS35       0.1093
     52  NZ         9.6450  119.5090  105.7350 N.3    35  LYS35      -0.1314
     53  N         13.2560  124.5770  111.8590 N.3    57  GLU57      -0.1245
     54  CA        13.6190  123.5900  110.8470 C.3    57  GLU57       0.1567
     55  C         14.6220  124.1630  109.8320 C.2    57  GLU57       0.2260
     56  O         15.6370  123.5340  109.5200 O.2    57  GLU57      -0.2867
     57  CB        12.3770  123.0920  110.1230 C.3    57  GLU57       0.0388
     58  CG        12.6700  122.0290  109.0350 C.3    57  GLU57       0.1160
     59  CD        11.4210  121.4700  108.3530 C.2    57  GLU57       0.3649
     60  OE1       10.2810  121.7410  108.7720 O.co2  57  GLU57      -0.2457
     61  OE2       11.5480  120.7210  107.3370 O.co2  57  GLU57      -0.2457
     62  N         18.4160  123.0030  108.8260 N.3    61  LEU61      -0.1245
     63  CA        18.7290  122.6410  107.4510 C.3    61  LEU61       0.1561
     64  C         19.8900  123.4670  106.9150 C.2    61  LEU61       0.2260
     65  O         20.7260  122.9680  106.1830 O.2    61  LEU61      -0.2867
     66  CB        17.5400  122.7680  106.5390 C.3    61  LEU61       0.0270
     67  CG        16.4660  121.7150  106.7400 C.3    61  LEU61       0.0019
     68  CD1       15.2080  122.0920  106.0200 C.3    61  LEU61       0.0001
     69  CD2       17.0250  120.3370  106.3420 C.3    61  LEU61       0.0001
     70  N         19.8120  115.1870  103.5150 N.3    70  ILE70      -0.1245
     71  CA        19.2470  116.0770  102.5150 C.3    70  ILE70       0.1561
     72  C         19.7730  117.5110  102.7620 C.2    70  ILE70       0.2260
     73  O         20.0620  117.8940  103.8810 O.2    70  ILE70      -0.2867
     74  CB        17.7070  115.9900  102.5660 C.3    70  ILE70       0.0252
     75  CG1       17.0680  116.5670  101.2950 C.3    70  ILE70       0.0019
     76  CG2       17.2000  116.5970  103.8750 C.3    70  ILE70       0.0019
     77  CD1       15.5660  116.3000  101.2220 C.3    70  ILE70       0.0001
     78  N         14.8990  121.9970   98.2230 N.3    86  LEU86      -0.1245
     79  CA        15.7190  120.9700   98.8200 C.3    86  LEU86       0.1561
     80  C         16.3650  120.0980   97.7480 C.2    86  LEU86       0.2260
     81  O         15.8460  119.9660   96.6500 O.2    86  LEU86      -0.2867
     82  CB        14.8410  120.0600   99.6900 C.3    86  LEU86       0.0270
     83  CG        14.1130  120.7170  100.8600 C.3    86  LEU86       0.0019
     84  CD1       12.9600  119.9080  101.3910 C.3    86  LEU86       0.0001
     85  CD2       15.1110  120.8990  101.9820 C.3    86  LEU86       0.0001
     86  N         15.8430  107.3880  102.9200 N.3   139  MET139     -0.1245
     87  CA        15.6490  107.2760  101.4810 C.3   139  MET139      0.1570
     88  C         16.9680  106.9330  100.7930 C.2   139  MET139      0.2261
     89  O         18.0170  106.8740  101.4370 O.2   139  MET139     -0.2867
     90  CB        15.1060  108.5910  100.9370 C.3   139  MET139      0.0387
     91  CG        13.7750  109.0000  101.5290 C.3   139  MET139      0.0595
     92  SD        12.4210  108.5930  100.4220 S.3   139  MET139     -0.1393
     93  CE        11.0260  108.9620  101.5060 C.3   139  MET139      0.0692
     94  N         16.0370  112.2120  105.6270 N.3   153  ILE153     -0.1231
     95  CA        15.1390  113.3490  105.3270 C.3   153  ILE153      0.1692
     96  C         14.2330  113.7170  106.5100 C.2   153  ILE153      0.2592
     97  O         14.1900  113.0360  107.5100 O.2   153  ILE153     -0.2718
     98  CB        14.2310  113.0500  104.1120 C.3   153  ILE153      0.0266
     99  CG1       13.2310  111.9400  104.4270 C.3   153  ILE153      0.0019
    100  CG2       15.0620  112.7240  102.8770 C.3   153  ILE153      0.0020
    101  CD1       12.0160  111.9950  103.5260 C.3   153  ILE153      0.0001
    102  N         13.5590  114.8590  106.3640 N.am  154  ASP154     -0.1960
    103  CA        12.4560  115.3100  107.2320 C.3   154  ASP154      0.1840
    104  C         12.8970  115.7290  108.6300 C.2   154  ASP154      0.2622
    105  O         12.8350  114.9740  109.6130 O.2   154  ASP154     -0.2715
    106  CB        11.2950  114.3420  107.2870 C.3   154  ASP154      0.1450
    107  CG        10.0330  115.0080  107.7790 C.2   154  ASP154      0.3671
    108  OD1       10.1110  116.1020  108.4240 O.co2 154  ASP154     -0.2456
    109  OD2        8.9540  114.4740  107.4950 O.co2 154  ASP154     -0.2456
    110  N         13.3190  116.9990  108.6810 N.am  155  PHE155     -0.1974
    111  CA        13.7480  117.6380  109.9190 C.3   155  PHE155      0.1639
    112  C         12.6500  118.4590  110.5990 C.2   155  PHE155      0.2290
    113  O         12.9160  119.3500  111.4330 O.2   155  PHE155     -0.2864
    114  CB        15.0130  118.4350  109.5780 C.3   155  PHE155      0.0560
    115  CG        16.1640  117.5350  109.3380 C.ar  155  PHE155     -0.0200
    116  CD1       16.3360  116.9000  108.1150 C.ar  155  PHE155     -0.0042
    117  CD2       17.0280  117.2450  110.3880 C.ar  155  PHE155     -0.0042
    118  CE1       17.3900  116.0200  107.9200 C.ar  155  PHE155     -0.0003
    119  CE2       18.0770  116.3790  110.2040 C.ar  155  PHE155     -0.0003
    120  CZ        18.2630  115.7730  108.9650 C.ar  155  PHE155     -0.0000
@<TRIPOS>BOND
     1     8     6    1
     2     6     7    1
     3     6     5    1
     4     1     2    1
     5     2     5    1
     6     2     3    1
     7    40    39    2
     8     3     4    2
     9     3     9   am
    10    39    38    1
    11    81    80    2
    12     9    10    1
    13    80    79    1
    14    42    41    1
    15    38    41    1
    16    38    37    1
    17    78    79    1
    18    10    11    1
    19    41    43    1
    20    12    11    2
    21    44    45    1
    22    79    82    1
    23    11    13   am
    24    82    83    1
    25    45    46    1
    26    45    48    1
    27    13    14    1
    28    46    47    2
    29    92    93    1
    30    92    91    1
    31    88    89    2
    32    88    87    1
    33    83    84    1
    34    83    85    1
    35    17    18    1
    36    17    14    1
    37    90    87    1
    38    90    91    1
    39    48    49    1
    40    77    75    1
    41    14    15    1
    42    75    74    1
    43    87    86    1
    44    34    35    2
    45    34    33    1
    46    49    50    1
    47    71    74    1
    48    71    72    1
    49    71    70    1
    50    74    76    1
    51    15    16    2
    52    15    19   am
    53    72    73    2
    54   100    98    1
    55    50    51    1
    56    33    36    1
    57    33    32    1
    58   101    99    1
    59    19    20    1
    60    98    99    1
    61    98    95    1
    62    51    52    1
    63    20    21    1
    64    95    94    1
    65    95    96    1
    66    22    21    2
    67    21    23   am
    68    68    67    1
    69    65    64    2
    70    69    67    1
    71   102    96   am
    72   102   103    1
    73    96    97    2
    74    66    67    1
    75    66    63    1
    76    64    63    1
    77    23    24    1
    78   103   106    1
    79   103   104    1
    80   106   107    1
    81    61    59   ar
    82    25    26    2
    83    25    24    1
    84    63    62    1
    85   109   107   ar
    86   107   108   ar
    87   118   116   ar
    88   118   120   ar
    89    24    27    1
    90   116   115   ar
    91    59    60   ar
    92    59    58    1
    93   104   110   am
    94   104   105    2
    95   110   111    1
    96   120   119   ar
    97    58    57    1
    98    27    28    1
    99   115   114    1
   100   115   117   ar
   101    56    55    2
   102   114   111    1
   103    55    54    1
   104   111   112    1
   105    57    54    1
   106   119   117   ar
   107    28    29    1
   108   112   113    2
   109    54    53    1
   110    29    30    2
   111    29    31   am
