@<TRIPOS>MOLECULE
tmp/5a6xC00.pdb
 77 71 0 0 0
SMALL
GASTEIGER

@<TRIPOS>ATOM
      1  N          3.6720  -10.5890  -24.9490 N.3    21  ASN21      -0.1225
      2  CA         3.9460  -11.9860  -24.6020 C.3    21  ASN21       0.1785
      3  C          2.6640  -12.7060  -24.2530 C.2    21  ASN21       0.2598
      4  O          2.4170  -13.0420  -23.0850 O.2    21  ASN21      -0.2718
      5  CB         4.9200  -12.1190  -23.4260 C.3    21  ASN21       0.1169
      6  CG         6.2900  -11.6610  -23.7560 C.2    21  ASN21       0.2627
      7  OD1        7.0760  -12.4000  -24.3590 O.2    21  ASN21      -0.2716
      8  ND2        6.6270  -10.4260  -23.3590 N.am   21  ASN21      -0.0877
      9  N          1.8280  -12.9280  -25.2640 N.am   22  SER22      -0.1938
     10  CA         0.4980  -13.4770  -25.0270 C.3    22  SER22       0.2055
     11  C         -0.1340  -13.9780  -26.3170 C.2    22  SER22       0.2643
     12  O          0.1600  -13.4770  -27.3980 O.2    22  SER22      -0.2714
     13  CB        -0.4230  -12.4340  -24.4470 C.3    22  SER22       0.2130
     14  OG        -1.7370  -12.9630  -24.2810 O.3    22  SER22      -0.2179
     15  N         -0.9990  -14.9890  -26.1880 N.am   23  ALA23      -0.1963
     16  CA        -1.7970  -15.4180  -27.3180 C.3    23  ALA23       0.1728
     17  C         -2.7090  -14.2940  -27.7860 C.2    23  ALA23       0.2616
     18  O         -3.0920  -14.2440  -28.9710 O.2    23  ALA23      -0.2715
     19  CB        -2.6420  -16.6280  -26.9460 C.3    23  ALA23       0.0334
     20  N         -3.1220  -13.4360  -26.8620 N.am   24  GLY24      -0.1955
     21  CA        -4.1080  -12.4190  -27.1550 C.3    24  GLY24       0.1869
     22  C         -3.4930  -11.1670  -27.7690 C.2    24  GLY24       0.2309
     23  O         -2.3880  -10.7750  -27.4300 O.2    24  GLY24      -0.2863
     24  N          3.9070  -13.9760  -28.9030 N.3    45  THR45      -0.1218
     25  CA         4.2420  -14.7890  -27.7240 C.3    45  THR45       0.1862
     26  C          5.7540  -14.8060  -27.4510 C.2    45  THR45       0.2287
     27  O          6.2480  -15.6280  -26.6520 O.2    45  THR45      -0.2866
     28  CB         3.7080  -16.2130  -27.7730 C.3    45  THR45       0.1770
     29  OG1        4.2590  -16.9120  -28.8890 O.3    45  THR45      -0.2211
     30  CG2        2.2490  -16.1890  -27.7750 C.3    45  THR45       0.0375
     31  N         -1.7240   -8.4910  -17.0650 N.3    95  GLU95      -0.1231
     32  CA        -2.1910   -9.8880  -17.0740 C.3    95  GLU95       0.1699
     33  C         -3.5850   -9.9750  -17.6680 C.2    95  GLU95       0.2592
     34  O         -4.5230   -9.3650  -17.1420 O.2    95  GLU95      -0.2718
     35  CB        -2.1960  -10.4560  -15.6610 C.3    95  GLU95       0.0402
     36  CG        -2.6670  -11.9030  -15.5500 C.3    95  GLU95       0.1161
     37  CD        -1.9000  -12.8140  -16.4710 C.2    95  GLU95       0.3649
     38  OE1       -0.6460  -12.8470  -16.4310 O.co2  95  GLU95      -0.2457
     39  OE2       -2.5720  -13.5300  -17.3020 O.co2  95  GLU95      -0.2457
     40  N         -3.6810  -10.7630  -18.7450 N.am   96  ASP96      -0.1960
     41  CA        -4.9200  -10.9030  -19.5340 C.3    96  ASP96       0.1840
     42  C         -5.6730  -12.1940  -19.2770 C.2    96  ASP96       0.2622
     43  O         -6.7410  -12.4240  -19.8550 O.2    96  ASP96      -0.2715
     44  CB        -4.6550  -10.6600  -21.0160 C.3    96  ASP96       0.1450
     45  CG        -3.8250  -11.7300  -21.6800 C.2    96  ASP96       0.3671
     46  OD1       -3.8060  -12.9010  -21.2400 O.co2  96  ASP96      -0.2456
     47  OD2       -3.1710  -11.3950  -22.7030 O.co2  96  ASP96      -0.2456
     48  N         -5.0950  -13.0480  -18.4510 N.am   97  SER97      -0.1950
     49  CA        -5.6360  -14.3710  -18.1740 C.3    97  SER97       0.1924
     50  C         -5.4530  -14.7560  -16.7110 C.2    97  SER97       0.2314
     51  O         -5.5120  -13.8960  -15.8320 O.2    97  SER97      -0.2863
     52  CB        -5.0020  -15.3510  -19.1420 C.3    97  SER97       0.2116
     53  OG        -5.6180  -16.6330  -19.0880 O.3    97  SER97      -0.2180
     54  N         -2.8020  -17.0880  -15.6120 N.3    99  ASP99      -0.1239
     55  CA        -1.4930  -17.6690  -15.2610 C.3    99  ASP99       0.1674
     56  C         -0.5260  -16.7890  -14.4590 C.2    99  ASP99       0.2266
     57  O          0.5350  -17.2190  -14.0380 O.2    99  ASP99      -0.2867
     58  CB        -0.7900  -18.2250  -16.5080 C.3    99  ASP99       0.1410
     59  CG        -0.3000  -17.1290  -17.4720 C.2    99  ASP99       0.3668
     60  OD1       -0.8550  -16.0400  -17.4410 O.co2  99  ASP99      -0.2456
     61  OD2        0.6370  -17.4410  -18.2620 O.co2  99  ASP99      -0.2456
     62  N          1.6000  -14.3590  -15.1210 N.3   101  ASP101     -0.1239
     63  CA         2.9500  -14.0060  -15.5080 C.3   101  ASP101      0.1674
     64  C          3.1560  -12.4980  -15.6590 C.2   101  ASP101      0.2266
     65  O          4.2690  -12.0400  -15.6310 O.2   101  ASP101     -0.2867
     66  CB         3.4610  -14.8210  -16.6930 C.3   101  ASP101      0.1410
     67  CG         2.7060  -14.6090  -18.0120 C.2   101  ASP101      0.3668
     68  OD1        1.6330  -13.9210  -18.0330 O.co2 101  ASP101     -0.2456
     69  OD2        3.2030  -15.2140  -19.0220 O.co2 101  ASP101     -0.2456
     70  N          1.9820   -9.9710  -20.3500 N.3   104  ASP104     -0.1239
     71  CA         1.2100  -10.1390  -21.6020 C.3   104  ASP104      0.1674
     72  C          1.3570   -8.9230  -22.5070 C.2   104  ASP104      0.2266
     73  O          1.5240   -9.0410  -23.7130 O.2   104  ASP104     -0.2867
     74  CB        -0.2180  -10.4610  -21.2230 C.3   104  ASP104      0.1410
     75  CG        -0.3290  -11.7630  -20.4010 C.2   104  ASP104      0.3668
     76  OD1        0.4560  -12.6820  -20.6520 O.co2 104  ASP104     -0.2456
     77  OD2       -1.2120  -11.8510  -19.5360 O.co2 104  ASP104     -0.2456
@<TRIPOS>BOND
     1    18    17    2
     2    24    25    1
     3    29    28    1
     4    17    16    1
     5    17    20   am
     6    30    28    1
     7    28    25    1
     8    22    23    2
     9    22    21    1
    10    25    26    1
    11    26    27    2
    12    12    11    2
    13    16    19    1
    14    16    15    1
    15    21    20    1
    16    11    15   am
    17    11    10    1
    18     9    10    1
    19     9     3   am
    20    10    13    1
    21     1     2    1
    22     2     3    1
    23     2     5    1
    24    13    14    1
    25     7     6    2
    26     3     4    2
    27     6     5    1
    28     6     8   am
    29    73    72    2
    30    47    45   ar
    31    72    71    1
    32    45    46   ar
    33    45    44    1
    34    71    74    1
    35    71    70    1
    36    74    75    1
    37    44    41    1
    38    76    75   ar
    39    75    77   ar
    40    43    42    2
    41    41    42    1
    42    41    40    1
    43    42    48   am
    44    52    53    1
    45    52    49    1
    46    69    67   ar
    47    40    33   am
    48    48    49    1
    49    61    59   ar
    50    49    50    1
    51    68    67   ar
    52    67    66    1
    53    33    34    2
    54    33    32    1
    55    59    60   ar
    56    59    58    1
    57    39    37   ar
    58    32    31    1
    59    32    35    1
    60    50    51    2
    61    66    63    1
    62    58    55    1
    63    37    38   ar
    64    37    36    1
    65    35    36    1
    66    64    65    2
    67    64    63    1
    68    54    55    1
    69    63    62    1
    70    55    56    1
    71    56    57    2
