@<TRIPOS>MOLECULE
tmp/5a6yD00.pdb
 77 71 0 0 0
SMALL
GASTEIGER

@<TRIPOS>ATOM
      1  N         19.1460   19.4960   32.1120 N.3    21  ASN21      -0.1225
      2  CA        18.7690   20.4490   33.1810 C.3    21  ASN21       0.1785
      3  C         18.4550   19.6020   34.4080 C.2    21  ASN21       0.2598
      4  O         17.3240   19.4430   34.8070 O.2    21  ASN21      -0.2718
      5  CB        17.5660   21.2690   32.8120 C.3    21  ASN21       0.1169
      6  CG        17.8290   22.2940   31.7440 C.2    21  ASN21       0.2627
      7  OD1       18.4110   23.3600   32.0260 O.2    21  ASN21      -0.2716
      8  ND2       17.4410   22.0200   30.5270 N.am   21  ASN21      -0.0877
      9  N         19.5020   19.0530   35.0370 N.am   22  SER22      -0.1938
     10  CA        19.3160   18.0990   36.1520 C.3    22  SER22       0.2055
     11  C         20.6370   17.8520   36.8460 C.2    22  SER22       0.2643
     12  O         21.6800   17.9490   36.2630 O.2    22  SER22      -0.2714
     13  CB        18.8030   16.7580   35.6050 C.3    22  SER22       0.2130
     14  OG        18.7080   15.8060   36.6800 O.3    22  SER22      -0.2179
     15  N         20.5250   17.5260   38.1360 N.am   23  ALA23      -0.1963
     16  CA        21.7030   17.0500   38.8510 C.3    23  ALA23       0.1728
     17  C         22.1960   15.7050   38.3640 C.2    23  ALA23       0.2616
     18  O         23.3900   15.3760   38.5220 O.2    23  ALA23      -0.2715
     19  CB        21.4010   16.9590   40.3390 C.3    23  ALA23       0.0334
     20  N         21.3210   14.9150   37.7840 N.am   24  GLY24      -0.1955
     21  CA        21.6380   13.5680   37.3310 C.3    24  GLY24       0.1869
     22  C         22.2110   13.5510   35.9600 C.2    24  GLY24       0.2309
     23  O         21.8500   14.3750   35.1160 O.2    24  GLY24      -0.2863
     24  N         23.0000   21.5820   34.8070 N.3    45  THR45      -0.1218
     25  CA        21.8240   22.2650   35.3000 C.3    45  THR45       0.1862
     26  C         21.6030   23.5970   34.6240 C.2    45  THR45       0.2287
     27  O         20.7580   24.4070   35.0970 O.2    45  THR45      -0.2866
     28  CB        21.8650   22.4640   36.8200 C.3    45  THR45       0.1770
     29  OG1       23.1110   23.0580   37.1860 O.3    45  THR45      -0.2211
     30  CG2       21.6710   21.1550   37.5820 C.3    45  THR45       0.0375
     31  N         11.3300   13.5270   32.8290 N.3    95  GLU95      -0.1231
     32  CA        11.3480   13.7330   34.2870 C.3    95  GLU95       0.1699
     33  C         11.9990   12.5680   35.0090 C.2    95  GLU95       0.2592
     34  O         11.5020   11.4420   34.9390 O.2    95  GLU95      -0.2718
     35  CB         9.9370   13.9650   34.8150 C.3    95  GLU95       0.0402
     36  CG         9.8720   14.2110   36.3170 C.3    95  GLU95       0.1161
     37  CD        10.8080   15.2950   36.7310 C.2    95  GLU95       0.3649
     38  OE1       10.7000   16.4480   36.1800 O.co2  95  GLU95      -0.2457
     39  OE2       11.6720   15.1020   37.6410 O.co2  95  GLU95      -0.2457
     40  N         13.1350   12.8580   35.6500 N.am   96  ASP96      -0.1960
     41  CA        13.9570   11.8460   36.3240 C.3    96  ASP96       0.1840
     42  C         13.6860   11.7590   37.8150 C.2    96  ASP96       0.2622
     43  O         14.3150   10.9040   38.4910 O.2    96  ASP96      -0.2715
     44  CB        15.4540   12.0530   36.0340 C.3    96  ASP96       0.1450
     45  CG        16.0060   13.3410   36.5900 C.2    96  ASP96       0.3671
     46  OD1       15.3930   13.8810   37.5040 O.co2  96  ASP96      -0.2456
     47  OD2       17.0910   13.7670   36.1590 O.co2  96  ASP96      -0.2456
     48  N         12.7640   12.5540   38.3400 N.am   97  SER97      -0.1950
     49  CA        12.6070   12.5950   39.7970 C.3    97  SER97       0.1924
     50  C         11.1680   13.0450   40.1010 C.2    97  SER97       0.2314
     51  O         10.2330   12.5000   39.5370 O.2    97  SER97      -0.2863
     52  CB        13.7110   13.4380   40.4070 C.3    97  SER97       0.2116
     53  OG        13.6350   13.3220   41.8230 O.3    97  SER97      -0.2180
     54  N          9.9650   16.6360   40.8010 N.3    99  ASP99      -0.1239
     55  CA         9.5190   18.0640   40.7220 C.3    99  ASP99       0.1674
     56  C          8.6510   18.3820   39.5290 C.2    99  ASP99       0.2266
     57  O          8.1430   19.4750   39.4440 O.2    99  ASP99      -0.2867
     58  CB        10.7070   19.0140   40.8490 C.3    99  ASP99       0.1410
     59  CG        11.6540   18.9640   39.6670 C.2    99  ASP99       0.3668
     60  OD1       11.5740   18.0430   38.8280 O.co2  99  ASP99      -0.2456
     61  OD2       12.4780   19.8980   39.5840 O.co2  99  ASP99      -0.2456
     62  N          9.2960   19.1240   36.4600 N.3   101  ASP101     -0.1239
     63  CA         9.6880   20.1530   35.5160 C.3   101  ASP101      0.1674
     64  C          9.8490   19.6510   34.0920 C.2   101  ASP101      0.2266
     65  O          9.7660   20.4280   33.1190 O.2   101  ASP101     -0.2867
     66  CB        10.8730   21.0300   35.9510 C.3   101  ASP101      0.1410
     67  CG        12.2070   20.3050   36.0880 C.2   101  ASP101      0.3668
     68  OD1       12.2750   19.0410   35.8960 O.co2 101  ASP101     -0.2456
     69  OD2       13.2230   20.9960   36.4110 O.co2 101  ASP101     -0.2456
     70  N         14.6250   17.5740   32.3820 N.3   104  ASP104     -0.1239
     71  CA        15.8690   16.9920   32.8470 C.3   104  ASP104      0.1674
     72  C         16.7660   16.5830   31.7110 C.2   104  ASP104      0.2266
     73  O         17.9560   16.8310   31.7100 O.2   104  ASP104     -0.2867
     74  CB        15.5360   15.8690   33.8360 C.3   104  ASP104      0.1410
     75  CG        14.7240   16.3700   35.0400 C.2   104  ASP104      0.3668
     76  OD1       14.9750   17.4920   35.5260 O.co2 104  ASP104     -0.2456
     77  OD2       13.7990   15.6350   35.4560 O.co2 104  ASP104     -0.2456
@<TRIPOS>BOND
     1     8     6   am
     2    73    72    2
     3    72    71    1
     4     6     7    2
     5     6     5    1
     6     1     2    1
     7    70    71    1
     8     5     2    1
     9    31    32    1
    10    71    74    1
    11    65    64    2
    12     2     3    1
    13    74    75    1
    14    64    63    1
    15    32    35    1
    16    32    33    1
    17     3     4    2
    18     3     9   am
    19    26    27    2
    20    26    25    1
    21    24    25    1
    22    35    36    1
    23    34    33    2
    24    33    40   am
    25     9    10    1
    26    75    77   ar
    27    75    76   ar
    28    23    22    2
    29    25    28    1
    30    63    66    1
    31    63    62    1
    32    13    10    1
    33    13    14    1
    34    40    41    1
    35    68    67   ar
    36    66    67    1
    37    22    21    1
    38    44    41    1
    39    44    45    1
    40    67    69   ar
    41    10    11    1
    42    47    45   ar
    43    38    37   ar
    44    12    11    2
    45    36    37    1
    46    41    42    1
    47    45    46   ar
    48    37    39   ar
    49    28    29    1
    50    28    30    1
    51    11    15   am
    52    21    20    1
    53    20    17   am
    54    42    48   am
    55    42    43    2
    56    15    16    1
    57    48    49    1
    58    17    18    2
    59    17    16    1
    60    60    59   ar
    61    16    19    1
    62    57    56    2
    63    56    55    1
    64    51    50    2
    65    61    59   ar
    66    59    58    1
    67    49    50    1
    68    49    52    1
    69    52    53    1
    70    55    54    1
    71    55    58    1
