@<TRIPOS>MOLECULE
tmp/5a70D00.pdb
 91 85 0 0 0
SMALL
GASTEIGER

@<TRIPOS>ATOM
      1  N         35.9880   31.2700   13.0730 N.3    21  ASN21      -0.1225
      2  CA        35.6300   30.1530   13.9820 C.3    21  ASN21       0.1785
      3  C         35.3200   28.9110   13.1250 C.2    21  ASN21       0.2598
      4  O         34.1720   28.5020   12.9940 O.2    21  ASN21      -0.2718
      5  CB        34.4040   30.4770   14.8190 C.3    21  ASN21       0.1169
      6  CG        34.6530   31.5530   15.8480 C.2    21  ASN21       0.2627
      7  OD1       35.2020   31.2870   16.8910 O.2    21  ASN21      -0.2716
      8  ND2       34.2310   32.7790   15.5540 N.am   21  ASN21      -0.0877
      9  N         36.3530   28.3270   12.5570 N.am   22  SER22      -0.1938
     10  CA        36.1680   27.1930   11.6280 C.3    22  SER22       0.2055
     11  C         37.5150   26.5210   11.3940 C.2    22  SER22       0.2643
     12  O         38.5370   27.1690   11.4550 O.2    22  SER22      -0.2714
     13  CB        35.6190   27.6800   10.3140 C.3    22  SER22       0.2130
     14  OG        35.5340   26.6170    9.3530 O.3    22  SER22      -0.2179
     15  N         37.4840   25.2200   11.0920 N.am   23  ALA23      -0.1963
     16  CA        38.6890   24.5420   10.6000 C.3    23  ALA23       0.1728
     17  C         39.1920   25.0940    9.2820 C.2    23  ALA23       0.2616
     18  O         40.3960   24.9930    8.9550 O.2    23  ALA23      -0.2715
     19  CB        38.3810   23.0490   10.4650 C.3    23  ALA23       0.0334
     20  N         38.3020   25.6610    8.4580 N.am   24  GLY24      -0.1955
     21  CA        38.6530   26.1960    7.1490 C.3    24  GLY24       0.1869
     22  C         39.2140   27.5950    7.2050 C.2    24  GLY24       0.2309
     23  O         38.6950   28.4360    7.9350 O.2    24  GLY24      -0.2863
     24  N         39.8030   28.6080   15.2280 N.3    45  THR45      -0.1218
     25  CA        38.6300   28.0410   15.8600 C.3    45  THR45       0.1862
     26  C         38.3450   28.7100   17.2010 C.2    45  THR45       0.2287
     27  O         37.6070   28.1630   18.0500 O.2    45  THR45      -0.2866
     28  CB        38.7260   26.5300   16.0400 C.3    45  THR45       0.1770
     29  OG1       39.9860   26.1750   16.6120 O.3    45  THR45      -0.2211
     30  CG2       38.5780   25.8230   14.6940 C.3    45  THR45       0.0375
     31  N         35.4680   30.0660    1.2990 N.3    69  VAL69      -0.1245
     32  CA        36.5010   29.2010    1.8330 C.3    69  VAL69       0.1561
     33  C         37.0790   28.5700    0.5680 C.2    69  VAL69       0.2260
     34  O         36.3370   27.8250   -0.0730 O.2    69  VAL69      -0.2867
     35  CB        35.9160   28.1930    2.8230 C.3    69  VAL69       0.0252
     36  CG1       37.0120   27.2020    3.2840 C.3    69  VAL69       0.0019
     37  CG2       35.3410   28.9320    4.0520 C.3    69  VAL69       0.0019
     38  N         28.2710   30.5810    7.0700 N.3    95  GLU95      -0.1231
     39  CA        28.3130   29.1580    7.3240 C.3    95  GLU95       0.1699
     40  C         28.9720   28.4490    6.1390 C.2    95  GLU95       0.2592
     41  O         28.5030   28.5660    4.9890 O.2    95  GLU95      -0.2718
     42  CB        26.8980   28.6250    7.5330 C.3    95  GLU95       0.0402
     43  CG        26.7900   27.1300    7.7850 C.3    95  GLU95       0.1161
     44  CD        27.7360   26.6670    8.8870 C.2    95  GLU95       0.3649
     45  OE1       27.6600   27.1840   10.0100 O.co2  95  GLU95      -0.2457
     46  OE2       28.5980   25.7640    8.6340 O.co2  95  GLU95      -0.2457
     47  N         30.0380   27.7360    6.4400 N.am   96  ASP96      -0.1960
     48  CA        30.8450   27.0450    5.4230 C.3    96  ASP96       0.1840
     49  C         30.5320   25.5570    5.2950 C.2    96  ASP96       0.2623
     50  O         31.1660   24.8940    4.4700 O.2    96  ASP96      -0.2715
     51  CB        32.3180   27.3200    5.6240 C.3    96  ASP96       0.1450
     52  CG        32.8740   26.7610    6.9110 C.2    96  ASP96       0.3671
     53  OD1       32.3760   25.7300    7.4040 O.co2  96  ASP96      -0.2456
     54  OD2       33.9080   27.3280    7.3930 O.co2  96  ASP96      -0.2456
     55  N         29.6200   25.0420    6.0890 N.am   97  SER97      -0.1936
     56  CA        29.3870   23.6370    6.2490 C.3    97  SER97       0.2055
     57  C         27.9290   23.3760    6.6430 C.2    97  SER97       0.2644
     58  O         27.0320   24.1250    6.2530 O.2    97  SER97      -0.2714
     59  CB        30.3480   23.0930    7.2980 C.3    97  SER97       0.2130
     60  OG        30.3200   21.6670    7.3360 O.3    97  SER97      -0.2179
     61  N         27.6780   22.3140    7.3840 N.am   98  THR98      -0.1936
     62  CA        26.3300   21.8800    7.6590 C.3    98  THR98       0.2028
     63  C         25.8780   22.0130    9.1440 C.2    98  THR98       0.2642
     64  O         24.7220   21.7140    9.4480 O.2    98  THR98      -0.2714
     65  CB        26.1380   20.3980    7.2650 C.3    98  THR98       0.1808
     66  OG1       27.1540   19.6580    7.9510 O.3    98  THR98      -0.2208
     67  CG2       26.2670   20.2070    5.8180 C.3    98  THR98       0.0379
     68  N         26.7580   22.4650   10.0440 N.am   99  ASP99      -0.1971
     69  CA        26.4010   22.5180   11.4600 C.3    99  ASP99       0.1709
     70  C         25.6020   23.7650   11.8280 C.2    99  ASP99       0.2293
     71  O         25.0400   23.8320   12.9050 O.2    99  ASP99      -0.2864
     72  CB        27.6110   22.3810   12.3870 C.3    99  ASP99       0.1436
     73  CG        28.5750   23.5360   12.3070 C.2    99  ASP99       0.3671
     74  OD1       28.5940   24.2230   11.2770 O.co2  99  ASP99      -0.2456
     75  OD2       29.3840   23.6920   13.2680 O.co2  99  ASP99      -0.2456
     76  N         26.2300   26.8040   12.6950 N.3   101  ASP101     -0.1239
     77  CA        26.6110   27.7600   13.7670 C.3   101  ASP101      0.1674
     78  C         26.7380   29.2030   13.2260 C.2   101  ASP101      0.2266
     79  O         26.6550   30.1560   13.9960 O.2   101  ASP101     -0.2867
     80  CB        27.7930   27.2660   14.6010 C.3   101  ASP101      0.1410
     81  CG        29.0910   27.1380   13.8640 C.2   101  ASP101      0.3668
     82  OD1       29.1880   27.2820   12.6080 O.co2 101  ASP101     -0.2456
     83  OD2       30.0960   26.8760   14.5650 O.co2 101  ASP101     -0.2456
     84  N         31.4410   31.0030   11.1830 N.3   104  ASP104     -0.1239
     85  CA        32.6750   30.4950   10.6240 C.3   104  ASP104      0.1674
     86  C         33.5730   31.6480   10.2100 C.2   104  ASP104      0.2266
     87  O         34.7820   31.6430   10.4500 O.2   104  ASP104     -0.2867
     88  CB        32.3690   29.5390    9.4710 C.3   104  ASP104      0.1410
     89  CG        31.5890   28.3350    9.9300 C.2   104  ASP104      0.3668
     90  OD1       31.8330   27.8470   11.0370 O.co2 104  ASP104     -0.2456
     91  OD2       30.7290   27.8040    9.1740 O.co2 104  ASP104     -0.2456
@<TRIPOS>BOND
     1    34    33    2
     2    33    32    1
     3    31    32    1
     4    32    35    1
     5    35    36    1
     6    35    37    1
     7    50    49    2
     8    41    40    2
     9    49    48    1
    10    49    55   am
    11    48    51    1
    12    48    47    1
    13    51    52    1
    14    67    65    1
    15    55    56    1
    16    40    47   am
    17    40    39    1
    18    56    57    1
    19    56    59    1
    20    58    57    2
    21    57    61   am
    22    52    54   ar
    23    52    53   ar
    24    38    39    1
    25    21    22    1
    26    21    20    1
    27    22    23    2
    28    65    62    1
    29    65    66    1
    30    59    60    1
    31    39    42    1
    32    61    62    1
    33    42    43    1
    34    62    63    1
    35    43    44    1
    36    20    17   am
    37    46    44   ar
    38    44    45   ar
    39    18    17    2
    40    63    64    2
    41    63    68   am
    42    91    89   ar
    43    17    16    1
    44    14    13    1
    45    88    89    1
    46    88    85    1
    47    89    90   ar
    48    68    69    1
    49    86    87    2
    50    86    85    1
    51    13    10    1
    52    19    16    1
    53    16    15    1
    54    85    84    1
    55    15    11   am
    56    74    73   ar
    57    11    12    2
    58    11    10    1
    59    69    70    1
    60    69    72    1
    61    10     9    1
    62    70    71    2
    63    73    72    1
    64    73    75   ar
    65     9     3   am
    66    82    81   ar
    67    76    77    1
    68     4     3    2
    69     1     2    1
    70     3     2    1
    71    78    77    1
    72    78    79    2
    73    77    80    1
    74    81    83   ar
    75    81    80    1
    76     2     5    1
    77    30    28    1
    78     5     6    1
    79    24    25    1
    80     8     6   am
    81     6     7    2
    82    25    28    1
    83    25    26    1
    84    28    29    1
    85    26    27    2
