@<TRIPOS>MOLECULE
tmp/5a7cB00.pdb
 135 132 0 0 0
SMALL
GASTEIGER

@<TRIPOS>ATOM
      1  N         21.7420  -13.5080   51.3910 N.3    27  TRP27      -0.1228
      2  CA        21.7330  -12.1650   51.9400 C.3    27  TRP27       0.1722
      3  C         21.6530  -11.0330   50.9270 C.2    27  TRP27       0.2437
      4  O         20.9770  -10.0450   51.1820 O.2    27  TRP27      -0.2733
      5  CB        22.8740  -11.9170   52.9370 C.3    27  TRP27       0.0563
      6  CG        24.2560  -11.8460   52.4320 C.ar   27  TRP27       0.0003
      7  CD1       25.1630  -12.8400   52.4590 C.ar   27  TRP27       0.0946
      8  CD2       24.9160  -10.7200   51.8790 C.ar   27  TRP27       0.0152
      9  NE1       26.3730  -12.4080   51.9670 N.ar   27  TRP27      -0.2442
     10  CE2       26.2220  -11.1150   51.5670 C.ar   27  TRP27       0.0810
     11  CE3       24.5140   -9.4270   51.5410 C.ar   27  TRP27       0.0012
     12  CZ2       27.1510  -10.2610   50.9720 C.ar   27  TRP27       0.0191
     13  CZ3       25.4750   -8.5320   50.9950 C.ar   27  TRP27       0.0001
     14  CH2       26.7420   -8.9820   50.6550 C.ar   27  TRP27       0.0015
     15  N         22.2420  -11.1760   49.7480 N.am   28  PRO28      -0.2718
     16  CA        22.1030  -10.0450   48.7860 C.3    28  PRO28       0.1535
     17  C         20.6820   -9.7620   48.3060 C.2    28  PRO28       0.2598
     18  O         20.4410   -8.7410   47.7080 O.2    28  PRO28      -0.2715
     19  CB        22.9970  -10.4620   47.6110 C.3    28  PRO28       0.0310
     20  CG        23.9870  -11.4340   48.2190 C.3    28  PRO28       0.0237
     21  CD        23.1720  -12.1910   49.2350 C.3    28  PRO28       0.0939
     22  N         19.7590  -10.6910   48.5370 N.am   29  PHE29      -0.1974
     23  CA        18.3940  -10.6090   48.0340 C.3    29  PHE29       0.1639
     24  C         17.4150  -10.2670   49.1330 C.2    29  PHE29       0.2290
     25  O         16.2140  -10.2180   48.8740 O.2    29  PHE29      -0.2864
     26  CB        18.0620  -11.9580   47.3790 C.3    29  PHE29       0.0560
     27  CG        19.1110  -12.3550   46.4040 C.ar   29  PHE29      -0.0200
     28  CD1       19.1760  -11.7220   45.1460 C.ar   29  PHE29      -0.0042
     29  CD2       20.0600  -13.2890   46.7310 C.ar   29  PHE29      -0.0042
     30  CE1       20.1940  -12.0350   44.2390 C.ar   29  PHE29      -0.0003
     31  CE2       21.0750  -13.6040   45.8320 C.ar   29  PHE29      -0.0003
     32  CZ        21.1640  -12.9600   44.6140 C.ar   29  PHE29      -0.0000
     33  N         17.6680   -3.8050   45.9240 N.3    33  VAL33      -0.1245
     34  CA        18.9310   -3.2870   45.4640 C.3    33  VAL33       0.1561
     35  C         18.8910   -1.7560   45.7000 C.2    33  VAL33       0.2260
     36  O         17.9800   -1.0890   45.2270 O.2    33  VAL33      -0.2867
     37  CB        19.2010   -3.6730   43.9790 C.3    33  VAL33       0.0252
     38  CG1       20.4500   -2.9550   43.4550 C.3    33  VAL33       0.0019
     39  CG2       19.3420   -5.1930   43.8450 C.3    33  VAL33       0.0019
     40  N         25.0350    1.4470   46.7030 N.3    38  LEU38      -0.1245
     41  CA        25.9860    0.5590   46.0440 C.3    38  LEU38       0.1561
     42  C         26.6570    1.1510   44.8130 C.2    38  LEU38       0.2260
     43  O         27.5450    0.5300   44.2450 O.2    38  LEU38      -0.2867
     44  CB        25.3030   -0.7350   45.6310 C.3    38  LEU38       0.0270
     45  CG        24.6520   -1.5450   46.7620 C.3    38  LEU38       0.0019
     46  CD1       23.9170   -2.7840   46.2170 C.3    38  LEU38       0.0001
     47  CD2       25.7200   -1.9550   47.7580 C.3    38  LEU38       0.0001
     48  N         25.5110    1.8700   41.8710 N.3    40  LEU40      -0.1245
     49  CA        25.1070    1.1550   40.6480 C.3    40  LEU40       0.1561
     50  C         24.2030    2.1620   39.9910 C.2    40  LEU40       0.2260
     51  O         22.9900    1.9950   39.9160 O.2    40  LEU40      -0.2867
     52  CB        24.3260   -0.0960   41.0030 C.3    40  LEU40       0.0270
     53  CG        25.0580   -1.0790   41.9100 C.3    40  LEU40       0.0019
     54  CD1       24.1460   -2.2790   42.1700 C.3    40  LEU40       0.0001
     55  CD2       26.3740   -1.5290   41.3100 C.3    40  LEU40       0.0001
     56  N         21.4960    1.0320   37.4230 N.3    43  TYR43      -0.1241
     57  CA        20.7030   -0.1340   37.7900 C.3    43  TYR43       0.1605
     58  C         19.2690    0.0030   37.2940 C.2    43  TYR43       0.2264
     59  O         18.7640   -0.8800   36.5890 O.2    43  TYR43      -0.2867
     60  CB        20.7200   -0.3690   39.3090 C.3    43  TYR43       0.0534
     61  CG        20.0510   -1.6760   39.6650 C.ar   43  TYR43      -0.0201
     62  CD1       20.7240   -2.9010   39.4840 C.ar   43  TYR43      -0.0009
     63  CD2       18.7260   -1.6940   40.0830 C.ar   43  TYR43      -0.0009
     64  CE1       20.1040   -4.0950   39.7670 C.ar   43  TYR43       0.0417
     65  CE2       18.1100   -2.8900   40.3560 C.ar   43  TYR43       0.0417
     66  CZ        18.7850   -4.0820   40.1770 C.ar   43  TYR43       0.1957
     67  OH        18.1680   -5.2670   40.4580 O.3    43  TYR43      -0.2866
     68  N         13.4150  -11.7140   40.4180 N.3    78  MET78      -0.1245
     69  CA        14.5230  -11.4120   41.2810 C.3    78  MET78       0.1570
     70  C         15.8220  -12.0380   40.8000 C.2    78  MET78       0.2261
     71  O         16.8060  -11.3100   40.6510 O.2    78  MET78      -0.2867
     72  CB        14.2100  -11.8600   42.7160 C.3    78  MET78       0.0387
     73  CG        15.2760  -11.5790   43.7520 C.3    78  MET78       0.0595
     74  SD        14.8380  -12.2540   45.3710 S.3    78  MET78      -0.1393
     75  CE        15.2090  -13.9760   45.0800 C.3    78  MET78       0.0692
     76  N         19.1780  -10.2290   38.5430 N.3    82  CYS82      -0.1235
     77  CA        20.5620  -10.3670   38.9850 C.3    82  CYS82       0.1677
     78  C         21.4680  -10.8730   37.8650 C.2    82  CYS82       0.2270
     79  O         22.5160  -10.2380   37.5730 O.2    82  CYS82      -0.2867
     80  CB        20.6170  -11.2700   40.1940 C.3    82  CYS82       0.0956
     81  SG        22.2610  -11.4570   40.8510 S.3    82  CYS82      -0.0801
     82  N         21.7330   -7.8090   35.1260 N.3    85  TYR85      -0.1227
     83  CA        22.4640   -6.5960   35.4330 C.3    85  TYR85       0.1736
     84  C         23.9360   -6.9010   35.5920 C.2    85  TYR85       0.2595
     85  O         24.7600   -6.1610   35.1290 O.2    85  TYR85      -0.2718
     86  CB        21.9090   -5.9190   36.6930 C.3    85  TYR85       0.0548
     87  CG        22.7190   -4.6800   37.0470 C.ar   85  TYR85      -0.0200
     88  CD1       22.5730   -3.4950   36.3180 C.ar   85  TYR85      -0.0009
     89  CD2       23.6820   -4.7440   38.0250 C.ar   85  TYR85      -0.0009
     90  CE1       23.3680   -2.3810   36.5960 C.ar   85  TYR85       0.0417
     91  CE2       24.4980   -3.6600   38.2950 C.ar   85  TYR85       0.0417
     92  CZ        24.3490   -2.4900   37.5820 C.ar   85  TYR85       0.1957
     93  OH        25.1160   -1.3850   37.9080 O.3    85  TYR85      -0.2866
     94  N         24.2810   -8.0010   36.2280 N.am   86  ASN86      -0.1974
     95  CA        25.6510   -8.2530   36.6280 C.3    86  ASN86       0.1688
     96  C         26.4400   -9.0850   35.6080 C.2    86  ASN86       0.2292
     97  O         25.8610   -9.8490   34.8320 O.2    86  ASN86      -0.2864
     98  CB        25.6840   -8.9950   37.9940 C.3    86  ASN86       0.1181
     99  CG        25.0800   -8.1670   39.0960 C.2    86  ASN86       0.2629
    100  OD1       25.7300   -7.2670   39.6160 O.2    86  ASN86      -0.2716
    101  ND2       23.8030   -8.4420   39.4430 N.am   86  ASN86      -0.0877
    102  N         30.4510  -12.6090   38.2710 N.3    90  HIS90      -0.1226
    103  CA        30.3750  -11.9460   39.5770 C.3    90  HIS90       0.1752
    104  C         29.9110  -12.9550   40.6250 C.2    90  HIS90       0.2596
    105  O         29.0530  -13.8090   40.3640 O.2    90  HIS90      -0.2718
    106  CB        29.3980  -10.7520   39.5590 C.3    90  HIS90       0.0759
    107  CG        29.5700   -9.7660   40.6880 C.ar   90  HIS90       0.0818
    108  ND1       29.4870  -10.1170   42.0270 N.ar   90  HIS90      -0.2268
    109  CD2       29.7390   -8.4170   40.6750 C.ar   90  HIS90       0.1154
    110  CE1       29.6680   -9.0510   42.7850 C.ar   90  HIS90       0.1986
    111  NE2       29.8130   -8.0010   41.9890 N.ar   90  HIS90      -0.2212
    112  N         30.4630  -12.8260   41.8210 N.am   91  GLU91      -0.1965
    113  CA        30.0390  -13.6080   42.9520 C.3    91  GLU91       0.1733
    114  C         28.5110  -13.6110   43.1650 C.2    91  GLU91       0.2616
    115  O         27.9690  -14.6410   43.5170 O.2    91  GLU91      -0.2715
    116  CB        30.8280  -13.1760   44.2200 C.3    91  GLU91       0.0429
    117  CG        30.6660  -14.0450   45.4530 C.3    91  GLU91       0.1163
    118  CD        30.8030  -15.5660   45.1970 C.2    91  GLU91       0.3649
    119  OE1       31.6440  -15.9730   44.3460 O.co2  91  GLU91      -0.2457
    120  OE2       30.0730  -16.3660   45.8520 O.co2  91  GLU91      -0.2457
    121  N         27.8290  -12.4990   42.9530 N.am   92  VAL92      -0.1977
    122  CA        26.4430  -12.3890   43.2990 C.3    92  VAL92       0.1596
    123  C         25.6160  -13.2370   42.3770 C.2    92  VAL92       0.2287
    124  O         24.5860  -13.6890   42.7670 O.2    92  VAL92      -0.2864
    125  CB        25.9480  -10.9390   43.2740 C.3    92  VAL92       0.0276
    126  CG1       25.8340  -10.3760   41.8640 C.3    92  VAL92       0.0022
    127  CG2       24.6240  -10.8410   43.9630 C.3    92  VAL92       0.0022
    128  N         25.7890  -16.6910   43.7660 N.3    95  MET95      -0.1245
    129  CA        24.9420  -16.7200   44.9370 C.3    95  MET95       0.1570
    130  C         23.4640  -16.8290   44.5350 C.2    95  MET95       0.2261
    131  O         22.6770  -17.6000   45.1590 O.2    95  MET95      -0.2867
    132  CB        25.1880  -15.4620   45.7780 C.3    95  MET95       0.0387
    133  CG        26.5690  -15.4090   46.4200 C.3    95  MET95       0.0595
    134  SD        26.9520  -13.7610   47.0420 S.3    95  MET95      -0.1393
    135  CE        26.2680  -13.8300   48.6790 C.3    95  MET95       0.0692
@<TRIPOS>BOND
     1    97    96    2
     2    82    83    1
     3    85    84    2
     4    83    84    1
     5    83    86    1
     6    84    94   am
     7    96    95    1
     8    94    95    1
     9    88    90   ar
    10    88    87   ar
    11    59    58    2
    12    90    92   ar
    13    95    98    1
    14    86    87    1
    15    87    89   ar
    16    58    57    1
    17    56    57    1
    18    79    78    2
    19    92    93    1
    20    92    91   ar
    21    57    60    1
    22    78    77    1
    23    98    99    1
    24    89    91   ar
    25   102   103    1
    26    76    77    1
    27    77    80    1
    28    99   101   am
    29    99   100    2
    30    60    61    1
    31    62    61   ar
    32    62    64   ar
    33   106   103    1
    34   106   107    1
    35   103   104    1
    36    61    63   ar
    37    64    66   ar
    38    51    50    2
    39    50    49    1
    40    63    65   ar
    41    66    65   ar
    42    66    67    1
    43    80    81    1
    44   105   104    2
    45    68    69    1
    46   104   112   am
    47    49    52    1
    48    49    48    1
    49    71    70    2
    50   109   107   ar
    51   109   111   ar
    52   107   108   ar
    53    70    69    1
    54    52    53    1
    55    69    72    1
    56    55    53    1
    57   112   113    1
    58   126   125    1
    59    53    54    1
    60   111   110   ar
    61   108   110   ar
    62   123   124    2
    63   123   122    1
    64    72    73    1
    65   113   114    1
    66   113   116    1
    67   121   114   am
    68   121   122    1
    69   114   115    2
    70   125   122    1
    71   125   127    1
    72    38    37    1
    73    73    74    1
    74   128   129    1
    75    39    37    1
    76    37    34    1
    77   116   117    1
    78    30    32   ar
    79    30    28   ar
    80    43    42    2
    81   119   118   ar
    82   130   129    1
    83   130   131    2
    84    32    31   ar
    85    42    41    1
    86   129   132    1
    87    75    74    1
    88    28    27   ar
    89   118   117    1
    90   118   120   ar
    91    36    35    2
    92    34    35    1
    93    34    33    1
    94    44    41    1
    95    44    45    1
    96   132   133    1
    97    31    29   ar
    98    41    40    1
    99    46    45    1
   100    27    29   ar
   101    27    26    1
   102   133   134    1
   103    45    47    1
   104   134   135    1
   105    26    23    1
   106    19    20    1
   107    19    16    1
   108    18    17    2
   109    23    22    1
   110    23    24    1
   111    20    21    1
   112    17    22   am
   113    17    16    1
   114    16    15    1
   115    25    24    2
   116    21    15    1
   117    15     3   am
   118    14    12   ar
   119    14    13   ar
   120     3     4    2
   121     3     2    1
   122    12    10   ar
   123    13    11   ar
   124     1     2    1
   125    11     8   ar
   126    10     8   ar
   127    10     9   ar
   128     8     6   ar
   129     2     5    1
   130     9     7   ar
   131     6     7   ar
   132     6     5    1
