@<TRIPOS>MOLECULE
tmp/5a7cA00.pdb
 118 115 0 0 0
SMALL
GASTEIGER

@<TRIPOS>ATOM
      1  N         20.1060  -34.1070   26.6220 N.3    28  TRP28      -0.1228
      2  CA        19.3830  -35.1900   25.9150 C.3    28  TRP28       0.1722
      3  C         18.0990  -35.6780   26.6020 C.2    28  TRP28       0.2437
      4  O         17.1830  -36.0120   25.9120 O.2    28  TRP28      -0.2733
      5  CB        20.3270  -36.3560   25.5460 C.3    28  TRP28       0.0563
      6  CG        20.8780  -37.1780   26.6970 C.ar   28  TRP28       0.0003
      7  CD1       22.1100  -37.0920   27.2130 C.ar   28  TRP28       0.0946
      8  CD2       20.2140  -38.2350   27.4230 C.ar   28  TRP28       0.0152
      9  NE1       22.2590  -37.9950   28.2190 N.ar   28  TRP28      -0.2442
     10  CE2       21.1270  -38.7410   28.3440 C.ar   28  TRP28       0.0810
     11  CE3       18.9720  -38.8480   27.3150 C.ar   28  TRP28       0.0012
     12  CZ2       20.8180  -39.8190   29.2490 C.ar   28  TRP28       0.0191
     13  CZ3       18.6450  -39.8850   28.2090 C.ar   28  TRP28       0.0001
     14  CH2       19.5910  -40.3800   29.1560 C.ar   28  TRP28       0.0015
     15  N         18.0080  -35.6030   27.9400 N.am   29  PRO29      -0.2718
     16  CA        16.7780  -36.1230   28.5290 C.3    29  PRO29       0.1535
     17  C         15.5170  -35.2750   28.2720 C.2    29  PRO29       0.2598
     18  O         14.4300  -35.7770   28.4160 O.2    29  PRO29      -0.2715
     19  CB        17.0940  -36.1740   30.0280 C.3    29  PRO29       0.0310
     20  CG        18.5850  -36.2840   30.1080 C.3    29  PRO29       0.0237
     21  CD        19.0670  -35.4410   28.9710 C.3    29  PRO29       0.0939
     22  N         15.7100  -34.0760   27.7560 N.am   30  PHE30      -0.1974
     23  CA        14.6720  -33.1430   27.4680 C.3    30  PHE30       0.1639
     24  C         14.3520  -33.0180   25.9830 C.2    30  PHE30       0.2290
     25  O         13.5190  -32.2230   25.6170 O.2    30  PHE30      -0.2864
     26  CB        15.1070  -31.8260   28.0870 C.3    30  PHE30       0.0560
     27  CG        15.5700  -32.0060   29.4880 C.ar   30  PHE30      -0.0200
     28  CD1       14.6380  -32.2660   30.4940 C.ar   30  PHE30      -0.0042
     29  CD2       16.9250  -32.0160   29.8090 C.ar   30  PHE30      -0.0042
     30  CE1       15.0850  -32.4710   31.7860 C.ar   30  PHE30      -0.0003
     31  CE2       17.3620  -32.2600   31.1000 C.ar   30  PHE30      -0.0003
     32  CZ        16.4390  -32.5180   32.0890 C.ar   30  PHE30      -0.0000
     33  N          8.8690  -37.3660   27.7480 N.3    34  VAL34      -0.1245
     34  CA         9.0970  -38.5050   28.6090 C.3    34  VAL34       0.1561
     35  C          8.1480  -39.6150   28.1850 C.2    34  VAL34       0.2260
     36  O          6.9160  -39.3870   28.0430 O.2    34  VAL34      -0.2867
     37  CB         8.8500  -38.1130   30.0750 C.3    34  VAL34       0.0252
     38  CG1        8.8790  -39.3310   31.0280 C.3    34  VAL34       0.0019
     39  CG2        9.8840  -37.0680   30.4850 C.3    34  VAL34       0.0019
     40  N          9.7430  -46.3470   29.7650 N.3    39  LEU39      -0.1245
     41  CA        10.6260  -46.2450   30.9180 C.3    39  LEU39       0.1561
     42  C         10.0660  -46.8860   32.1930 C.2    39  LEU39       0.2260
     43  O         10.7250  -46.8140   33.2310 O.2    39  LEU39      -0.2867
     44  CB        10.9750  -44.7510   31.1590 C.3    39  LEU39       0.0270
     45  CG        11.6950  -44.0110   30.0160 C.3    39  LEU39       0.0019
     46  CD1       11.9110  -42.5170   30.3080 C.3    39  LEU39       0.0001
     47  CD2       13.0250  -44.7110   29.7210 C.3    39  LEU39       0.0001
     48  N          7.5520  -45.7430   34.1080 N.3    41  LEU41      -0.1245
     49  CA         7.3770  -44.6740   35.1030 C.3    41  LEU41       0.1561
     50  C          5.8990  -44.6190   35.2600 C.2    41  LEU41       0.2260
     51  O          5.2340  -43.7760   34.6450 O.2    41  LEU41      -0.2867
     52  CB         7.9450  -43.3750   34.5740 C.3    41  LEU41       0.0270
     53  CG         9.4350  -43.3830   34.2610 C.3    41  LEU41       0.0019
     54  CD1        9.8610  -41.9990   33.7770 C.3    41  LEU41       0.0001
     55  CD2       10.2670  -43.7940   35.4630 C.3    41  LEU41       0.0001
     56  N          4.1730  -41.4910   36.3960 N.3    44  TYR44      -0.1241
     57  CA         4.5900  -40.1870   35.7480 C.3    44  TYR44       0.1605
     58  C          3.4310  -39.2370   35.4960 C.2    44  TYR44       0.2264
     59  O          3.4060  -38.0960   35.9510 O.2    44  TYR44      -0.2867
     60  CB         5.4330  -40.4030   34.4370 C.3    44  TYR44       0.0534
     61  CG         6.0710  -39.1070   33.9380 C.ar   44  TYR44      -0.0201
     62  CD1        7.2060  -38.5840   34.5770 C.ar   44  TYR44      -0.0009
     63  CD2        5.4660  -38.3270   32.9240 C.ar   44  TYR44      -0.0009
     64  CE1        7.7420  -37.3760   34.1920 C.ar   44  TYR44       0.0417
     65  CE2        5.9940  -37.0840   32.5500 C.ar   44  TYR44       0.0417
     66  CZ         7.1530  -36.6160   33.1700 C.ar   44  TYR44       0.1957
     67  OH         7.6750  -35.3950   32.8130 O.3    44  TYR44      -0.2866
     68  N          9.1310  -27.4290   31.8210 N.3    79  MET79      -0.1245
     69  CA         9.9210  -28.5960   31.5260 C.3    79  MET79       0.1570
     70  C         10.8830  -28.9190   32.6680 C.2    79  MET79       0.2261
     71  O         10.9730  -30.0660   33.1130 O.2    79  MET79      -0.2867
     72  CB        10.6880  -28.3660   30.2310 C.3    79  MET79       0.0387
     73  CG        11.5840  -29.4970   29.7880 C.3    79  MET79       0.0595
     74  SD        12.5390  -29.0610   28.3140 S.3    79  MET79      -0.1393
     75  CE        13.8280  -28.0200   29.0770 C.3    79  MET79       0.0692
     76  N         10.6630  -32.0030   35.7490 N.3    83  CYS83      -0.1235
     77  CA        11.7810  -32.8800   36.0640 C.3    83  CYS83       0.1677
     78  C         12.0990  -32.8710   37.5870 C.2    83  CYS83       0.2270
     79  O         12.2530  -33.9580   38.2320 O.2    83  CYS83      -0.2867
     80  CB        13.0080  -32.5180   35.2400 C.3    83  CYS83       0.0956
     81  SG        14.4230  -33.5710   35.5260 S.3    83  CYS83      -0.0801
     82  N          9.0140  -34.6630   39.5620 N.3    86  TYR86      -0.1227
     83  CA         8.8670  -36.0940   39.4100 C.3    86  TYR86       0.1736
     84  C          9.9830  -36.8660   40.0470 C.2    86  TYR86       0.2595
     85  O          9.7370  -37.8750   40.6650 O.2    86  TYR86      -0.2718
     86  CB         8.6640  -36.5210   37.9410 C.3    86  TYR86       0.0548
     87  CG         8.5040  -38.0020   37.8540 C.ar   86  TYR86      -0.0200
     88  CD1        7.3700  -38.5920   38.2750 C.ar   86  TYR86      -0.0009
     89  CD2        9.5810  -38.8250   37.4700 C.ar   86  TYR86      -0.0009
     90  CE1        7.2270  -39.9800   38.2640 C.ar   86  TYR86       0.0417
     91  CE2        9.4660  -40.2230   37.4480 C.ar   86  TYR86       0.0417
     92  CZ         8.2890  -40.7910   37.8610 C.ar   86  TYR86       0.1957
     93  OH         8.1510  -42.1450   37.8560 O.3    86  TYR86      -0.2866
     94  N         11.2110  -36.3970   39.9020 N.am   87  ASN87      -0.1974
     95  CA        12.3390  -37.2420   40.2050 C.3    87  ASN87       0.1688
     96  C         12.8660  -36.9540   41.5910 C.2    87  ASN87       0.2292
     97  O         12.6550  -35.8660   42.1330 O.2    87  ASN87      -0.2864
     98  CB        13.4740  -37.0410   39.1790 C.3    87  ASN87       0.1181
     99  CG        13.0630  -37.4660   37.8140 C.2    87  ASN87       0.2629
    100  OD1       13.0960  -38.6500   37.5000 O.2    87  ASN87      -0.2716
    101  ND2       12.7030  -36.4880   36.9410 N.am   87  ASN87      -0.0877
    102  N         18.7250  -37.6850   41.8700 N.3    91  HIS91      -0.1241
    103  CA        18.8620  -38.3710   40.5710 C.3    91  HIS91       0.1621
    104  C         19.7480  -37.5580   39.6080 C.2    91  HIS91       0.2264
    105  O         19.7430  -36.3110   39.6180 O.2    91  HIS91      -0.2867
    106  CB        17.4970  -38.5680   39.9100 C.3    91  HIS91       0.0745
    107  CG        17.4570  -39.6300   38.8470 C.ar   91  HIS91       0.0817
    108  ND1       18.2720  -39.6180   37.7320 N.ar   91  HIS91      -0.2268
    109  CD2       16.6460  -40.7060   38.6960 C.ar   91  HIS91       0.1154
    110  CE1       17.9920  -40.6400   36.9570 C.ar   91  HIS91       0.1986
    111  NE2       17.0100  -41.3230   37.5220 N.ar   91  HIS91      -0.2212
    112  N         19.3590  -37.0240   36.5140 N.3    93  VAL93      -0.1245
    113  CA        18.6150  -36.2370   35.5760 C.3    93  VAL93       0.1561
    114  C         18.2860  -34.8900   36.1610 C.2    93  VAL93       0.2260
    115  O         18.1610  -33.9350   35.4110 O.2    93  VAL93      -0.2867
    116  CB        17.3140  -36.9280   35.1200 C.3    93  VAL93       0.0252
    117  CG1       16.2460  -36.9580   36.2160 C.3    93  VAL93       0.0019
    118  CG2       16.7650  -36.2390   33.8920 C.3    93  VAL93       0.0019
@<TRIPOS>BOND
     1     5     2    1
     2     5     6    1
     3    25    24    2
     4     4     3    2
     5     2     3    1
     6     2     1    1
     7    24    23    1
     8     3    15   am
     9     6     7   ar
    10     6     8   ar
    11     7     9   ar
    12    11     8   ar
    13    11    13   ar
    14     8    10   ar
    15    23    22    1
    16    23    26    1
    17    33    34    1
    18    22    17   am
    19    15    16    1
    20    15    21    1
    21    36    35    2
    22    26    27    1
    23    35    34    1
    24    13    14   ar
    25     9    10   ar
    26    17    18    2
    27    17    16    1
    28    74    75    1
    29    74    73    1
    30    10    12   ar
    31    16    19    1
    32    34    37    1
    33    21    20    1
    34    14    12   ar
    35    27    29   ar
    36    27    28   ar
    37    47    45    1
    38    40    41    1
    39    73    72    1
    40    29    31   ar
    41    45    46    1
    42    45    44    1
    43    19    20    1
    44    37    39    1
    45    37    38    1
    46    72    69    1
    47    28    30   ar
    48    41    44    1
    49    41    42    1
    50    31    32   ar
    51    69    68    1
    52    69    70    1
    53    30    32   ar
    54    42    43    2
    55    65    63   ar
    56    65    66   ar
    57    70    71    2
    58    67    66    1
    59    63    61   ar
    60    66    64   ar
    61    54    53    1
    62   118   116    1
    63    61    60    1
    64    61    62   ar
    65    48    49    1
    66    64    62   ar
    67    53    52    1
    68    53    55    1
    69    60    57    1
    70    52    49    1
    71    51    50    2
    72    49    50    1
    73   116   113    1
    74   116   117    1
    75    80    81    1
    76    80    77    1
    77   115   114    2
    78    58    57    1
    79    58    59    2
    80   113   114    1
    81   113   112    1
    82    57    56    1
    83    76    77    1
    84    77    78    1
    85   101    99   am
    86   110   111   ar
    87   110   108   ar
    88    91    89   ar
    89    91    92   ar
    90    89    87   ar
    91   100    99    2
    92   111   109   ar
    93    78    79    2
    94   108   107   ar
    95    99    98    1
    96    87    86    1
    97    87    88   ar
    98    93    92    1
    99    92    90   ar
   100    86    83    1
   101    90    88   ar
   102   109   107   ar
   103   107   106    1
   104    98    95    1
   105    83    82    1
   106    83    84    1
   107   104   105    2
   108   104   103    1
   109    94    84   am
   110    94    95    1
   111   106   103    1
   112    84    85    2
   113    95    96    1
   114   103   102    1
   115    96    97    2
