@<TRIPOS>MOLECULE
tmp/5a7mB07.pdb
 135 128 0 0 0
SMALL
GASTEIGER

@<TRIPOS>ATOM
      1  N         40.2250  -88.0300  -14.1740 N.3    13  GLN13      -0.1231
      2  CA        38.9520  -87.7990  -13.4990 C.3    13  GLN13       0.1683
      3  C         39.1780  -87.0070  -12.2140 C.2    13  GLN13       0.2434
      4  O         40.1020  -87.3000  -11.4690 O.2    13  GLN13      -0.2733
      5  CB        38.2580  -89.1320  -13.1840 C.3    13  GLN13       0.0380
      6  CG        37.7150  -89.8980  -14.3900 C.3    13  GLN13       0.0905
      7  CD        36.4200  -89.3070  -14.9400 C.2    13  GLN13       0.2608
      8  OE1       36.0680  -88.1670  -14.6500 O.2    13  GLN13      -0.2717
      9  NE2       35.7010  -90.0880  -15.7400 N.am   13  GLN13      -0.0878
     10  N         38.3450  -85.9740  -11.9590 N.am   14  PRO14      -0.2729
     11  CA        38.4020  -85.3050  -10.6460 C.3    14  PRO14       0.1401
     12  C         37.8070  -86.1890   -9.5360 C.2    14  PRO14       0.2269
     13  O         37.2080  -87.2430   -9.8290 O.2    14  PRO14      -0.2865
     14  CB        37.4990  -84.0800  -10.8360 C.3    14  PRO14       0.0296
     15  CG        36.5350  -84.4790  -11.9150 C.3    14  PRO14       0.0237
     16  CD        37.3000  -85.4110  -12.8340 C.3    14  PRO14       0.0939
     17  N         35.0450  -85.5440   -7.0740 N.3    16  LEU16      -0.1245
     18  CA        34.0420  -84.5610   -6.6880 C.3    16  LEU16       0.1561
     19  C         33.4110  -84.9140   -5.3390 C.2    16  LEU16       0.2260
     20  O         33.3200  -86.1010   -4.9660 O.2    16  LEU16      -0.2867
     21  CB        32.9880  -84.3860   -7.7960 C.3    16  LEU16       0.0270
     22  CG        33.4680  -83.9680   -9.1920 C.3    16  LEU16       0.0019
     23  CD1       32.3200  -83.9790  -10.2040 C.3    16  LEU16       0.0001
     24  CD2       34.1820  -82.6100   -9.1650 C.3    16  LEU16       0.0001
     25  N         27.6290  -84.0170   -6.6420 N.3    21  LEU21      -0.1245
     26  CA        27.1010  -85.1530   -7.4020 C.3    21  LEU21       0.1561
     27  C         25.6720  -85.5350   -6.9800 C.2    21  LEU21       0.2260
     28  O         25.0620  -86.4310   -7.5730 O.2    21  LEU21      -0.2867
     29  CB        28.0270  -86.3510   -7.1850 C.3    21  LEU21       0.0270
     30  CG        29.4620  -86.3240   -7.7160 C.3    21  LEU21       0.0019
     31  CD1       30.1790  -87.4810   -7.0290 C.3    21  LEU21       0.0001
     32  CD2       29.4500  -86.5410   -9.2260 C.3    21  LEU21       0.0001
     33  N         23.2780  -78.5090  -12.6900 N.3    86  TRP86      -0.1241
     34  CA        23.9030  -79.6000  -13.4540 C.3    86  TRP86       0.1605
     35  C         22.8840  -80.6180  -13.9340 C.2    86  TRP86       0.2264
     36  O         22.4780  -81.5130  -13.1930 O.2    86  TRP86      -0.2867
     37  CB        24.9890  -80.2670  -12.6060 C.3    86  TRP86       0.0550
     38  CG        25.7620  -81.3650  -13.3220 C.ar   86  TRP86       0.0003
     39  CD1       25.7140  -81.7050  -14.6530 C.ar   86  TRP86       0.0946
     40  CD2       26.7140  -82.2200  -12.7190 C.ar   86  TRP86       0.0152
     41  NE1       26.5940  -82.7310  -14.9070 N.ar   86  TRP86      -0.2442
     42  CE2       27.2320  -83.0530  -13.7300 C.ar   86  TRP86       0.0810
     43  CE3       27.2260  -82.3390  -11.3990 C.ar   86  TRP86       0.0012
     44  CZ2       28.1870  -84.0410  -13.4660 C.ar   86  TRP86       0.0191
     45  CZ3       28.1830  -83.3200  -11.1400 C.ar   86  TRP86       0.0001
     46  CH2       28.6610  -84.1480  -12.1830 C.ar   86  TRP86       0.0015
     47  N         22.1180  -83.0090  -17.5820 N.3    88  GLU88      -0.1245
     48  CA        22.7070  -83.3860  -18.8820 C.3    88  GLU88       0.1567
     49  C         21.6270  -83.6610  -19.9450 C.2    88  GLU88       0.2260
     50  O         20.5350  -84.1580  -19.6270 O.2    88  GLU88      -0.2867
     51  CB        23.6290  -84.5890  -18.6940 C.3    88  GLU88       0.0388
     52  CG        24.7720  -84.3480  -17.7130 C.3    88  GLU88       0.1160
     53  CD        25.9510  -83.5590  -18.3150 C.2    88  GLU88       0.3649
     54  OE1       25.9730  -83.3200  -19.5330 O.co2  88  GLU88      -0.2457
     55  OE2       26.8620  -83.1570  -17.5540 O.co2  88  GLU88      -0.2457
     56  N         21.0650  -87.5510  -15.6640 N.3    95  ARG95      -0.1245
     57  CA        21.1570  -86.9460  -14.3270 C.3    95  ARG95       0.1563
     58  C         19.8080  -86.4150  -13.8360 C.2    95  ARG95       0.2260
     59  O         19.7570  -85.6630  -12.8640 O.2    95  ARG95      -0.2867
     60  CB        22.2620  -85.8760  -14.2170 C.3    95  ARG95       0.0307
     61  CG        23.6000  -86.3720  -14.7330 C.3    95  ARG95       0.0489
     62  CD        24.7550  -85.4960  -14.2760 C.3    95  ARG95       0.2205
     63  NE        24.8950  -85.4180  -12.8210 N.pl3  95  ARG95      -0.0865
     64  CZ        25.5720  -86.2950  -12.0730 C.cat  95  ARG95       0.5346
     65  NH1       26.1840  -87.3360  -12.6480 N.pl3  95  ARG95       0.1354
     66  NH2       25.6490  -86.1230  -10.7520 N.pl3  95  ARG95       0.1354
     67  N         36.2250  -88.1630  -25.9750 N.3   165  ARG165     -0.1245
     68  CA        34.8830  -87.5630  -25.9860 C.3   165  ARG165      0.1563
     69  C         34.4650  -86.9910  -27.3120 C.2   165  ARG165      0.2260
     70  O         33.4380  -86.3420  -27.4040 O.2   165  ARG165     -0.2867
     71  CB        34.7600  -86.4740  -24.9060 C.3   165  ARG165      0.0307
     72  CG        35.0820  -86.9360  -23.4770 C.3   165  ARG165      0.0489
     73  CD        34.9250  -85.7610  -22.5280 C.3   165  ARG165      0.2205
     74  NE        33.5180  -85.4300  -22.3430 N.pl3 165  ARG165     -0.0865
     75  CZ        33.0610  -84.5160  -21.4900 C.cat 165  ARG165      0.5346
     76  NH1       33.9160  -83.8160  -20.7150 N.pl3 165  ARG165      0.1354
     77  NH2       31.7440  -84.3150  -21.4070 N.pl3 165  ARG165      0.1354
     78  N         43.3920  -83.3630  -18.7420 N.3   220  ARG220     -0.1245
     79  CA        42.6330  -82.1600  -19.0810 C.3   220  ARG220      0.1563
     80  C         42.5640  -81.1630  -17.9070 C.2   220  ARG220      0.2260
     81  O         42.5120  -79.9270  -18.0940 O.2   220  ARG220     -0.2867
     82  CB        41.2180  -82.5880  -19.4870 C.3   220  ARG220      0.0307
     83  CG        40.5690  -83.4950  -18.4370 C.3   220  ARG220      0.0489
     84  CD        39.1970  -84.0070  -18.8530 C.3   220  ARG220      0.2205
     85  NE        38.6460  -84.8960  -17.8220 N.pl3 220  ARG220     -0.0865
     86  CZ        37.3480  -85.1550  -17.6660 C.cat 220  ARG220      0.5346
     87  NH1       36.4470  -84.6010  -18.5120 N.pl3 220  ARG220      0.1354
     88  NH2       36.9580  -86.0080  -16.7150 N.pl3 220  ARG220      0.1354
     89  N         38.2010  -76.8810  -18.2200 N.3   256  TYR256     -0.1241
     90  CA        39.2690  -77.1290  -17.2540 C.3   256  TYR256      0.1605
     91  C         40.5980  -76.5000  -17.6470 C.2   256  TYR256      0.2264
     92  O         41.3790  -76.1100  -16.7890 O.2   256  TYR256     -0.2867
     93  CB        39.5830  -78.6150  -17.1710 C.3   256  TYR256      0.0534
     94  CG        38.4930  -79.5000  -16.6590 C.ar  256  TYR256     -0.0201
     95  CD1       38.0060  -79.3530  -15.3600 C.ar  256  TYR256     -0.0009
     96  CD2       37.9780  -80.5140  -17.4610 C.ar  256  TYR256     -0.0009
     97  CE1       37.0000  -80.1830  -14.8770 C.ar  256  TYR256      0.0417
     98  CE2       36.9980  -81.3750  -16.9800 C.ar  256  TYR256      0.0417
     99  CZ        36.5170  -81.2030  -15.6910 C.ar  256  TYR256      0.1957
    100  OH        35.5130  -82.0460  -15.2200 O.3   256  TYR256     -0.2866
    101  N         33.0130  -75.9900  -15.6810 N.3   290  ASP290     -0.1225
    102  CA        32.9980  -77.4650  -15.6770 C.3   290  ASP290      0.1805
    103  C         33.1840  -77.9840  -14.2220 C.2   290  ASP290      0.2598
    104  O         33.4490  -77.1940  -13.3090 O.2   290  ASP290     -0.2718
    105  CB        34.0790  -78.0260  -16.6240 C.3   290  ASP290      0.1424
    106  CG        33.7400  -79.4180  -17.1470 C.2   290  ASP290      0.3668
    107  OD1       32.9580  -80.1700  -16.5140 O.co2 290  ASP290     -0.2456
    108  OD2       34.2500  -79.7590  -18.2270 O.co2 290  ASP290     -0.2456
    109  N         32.9850  -79.2820  -14.0050 N.am  291  CYS291     -0.1970
    110  CA        33.0160  -79.8600  -12.6530 C.3   291  CYS291      0.1712
    111  C         34.3790  -80.5080  -12.3460 C.2   291  CYS291      0.2296
    112  O         34.6440  -81.6050  -12.8640 O.2   291  CYS291     -0.2864
    113  CB        31.9200  -80.9270  -12.5350 C.3   291  CYS291      0.0983
    114  SG        30.3260  -80.5070  -13.2830 S.3   291  CYS291     -0.0798
    115  N         26.7300  -90.4140  -21.2930 N.3   428  TYR428     -0.1241
    116  CA        25.7670  -89.3920  -20.8680 C.3   428  TYR428      0.1605
    117  C         24.3400  -89.8080  -21.1520 C.2   428  TYR428      0.2264
    118  O         23.5470  -89.0170  -21.6300 O.2   428  TYR428     -0.2867
    119  CB        26.1120  -88.0250  -21.4620 C.3   428  TYR428      0.0534
    120  CG        27.2480  -87.4130  -20.6760 C.ar  428  TYR428     -0.0201
    121  CD1       27.0120  -86.8230  -19.4370 C.ar  428  TYR428     -0.0009
    122  CD2       28.5680  -87.4810  -21.1350 C.ar  428  TYR428     -0.0009
    123  CE1       28.0500  -86.3000  -18.6870 C.ar  428  TYR428      0.0417
    124  CE2       29.5990  -86.9690  -20.3810 C.ar  428  TYR428      0.0417
    125  CZ        29.3260  -86.3750  -19.1540 C.ar  428  TYR428      0.1957
    126  OH        30.3400  -85.8410  -18.3770 O.3   428  TYR428     -0.2866
    127  N         35.1620  -90.5140  -21.4920 N.3   491  GLU491     -0.1245
    128  CA        35.5790  -89.3720  -20.7040 C.3   491  GLU491      0.1567
    129  C         36.6590  -89.8020  -19.7030 C.2   491  GLU491      0.2260
    130  O         36.5670  -90.8720  -19.0760 O.2   491  GLU491     -0.2867
    131  CB        34.3730  -88.7240  -19.9990 C.3   491  GLU491      0.0388
    132  CG        34.7660  -87.6200  -19.0380 C.3   491  GLU491      0.1160
    133  CD        33.5940  -86.7570  -18.5970 C.2   491  GLU491      0.3649
    134  OE1       32.4210  -87.1410  -18.7870 O.co2 491  GLU491     -0.2457
    135  OE2       33.8610  -85.6910  -18.0230 O.co2 491  GLU491     -0.2457
@<TRIPOS>BOND
     1    70    69    2
     2    69    68    1
     3    68    67    1
     4    68    71    1
     5    71    72    1
     6    72    73    1
     7    73    74    1
     8    74    75    2
     9   118   117    2
    10   127   128    1
    11    75    77    1
    12    75    76    1
    13   119   116    1
    14   119   120    1
    15   115   116    1
    16   117   116    1
    17   122   120   ar
    18   122   124   ar
    19   128   131    1
    20   128   129    1
    21   120   121   ar
    22   124   125   ar
    23   131   132    1
    24    49    50    2
    25    49    48    1
    26   129   130    2
    27    54    53   ar
    28    82    79    1
    29    82    83    1
    30   121   123   ar
    31   125   123   ar
    32   125   126    1
    33    79    78    1
    34    79    80    1
    35   132   133    1
    36    48    51    1
    37    48    47    1
    38    84    83    1
    39    84    85    1
    40   134   133   ar
    41    51    52    1
    42   133   135   ar
    43    87    86    1
    44    53    52    1
    45    53    55   ar
    46   108   106   ar
    47    89    90    1
    48    81    80    2
    49    85    86    2
    50    86    88    1
    51    91    90    1
    52    91    92    2
    53    96    98   ar
    54    96    94   ar
    55    90    93    1
    56    93    94    1
    57   106   105    1
    58   106   107   ar
    59    98    99   ar
    60    94    95   ar
    61   105   102    1
    62     9     7   am
    63    99   100    1
    64    99    97   ar
    65   101   102    1
    66   102   103    1
    67    56    57    1
    68    95    97   ar
    69     7     8    2
    70     7     6    1
    71    41    39   ar
    72    41    42   ar
    73    61    62    1
    74    61    60    1
    75    39    38   ar
    76     6     5    1
    77    57    60    1
    78    57    58    1
    79    62    63    1
    80   103   109   am
    81   103   104    2
    82     1     2    1
    83   109   110    1
    84    35    34    1
    85    35    36    2
    86    58    59    2
    87    42    44   ar
    88    42    40   ar
    89     2     5    1
    90     2     3    1
    91    44    46   ar
    92    34    33    1
    93    34    37    1
    94    38    40   ar
    95    38    37    1
    96   114   113    1
    97   112   111    2
    98    16    10    1
    99    16    15    1
   100    63    64    2
   101    40    43   ar
   102   110   113    1
   103   110   111    1
   104    65    64    1
   105     3    10   am
   106     3     4    2
   107    46    45   ar
   108    64    66    1
   109    10    11    1
   110    15    14    1
   111    43    45   ar
   112    14    11    1
   113    11    12    1
   114    23    22    1
   115    13    12    2
   116    32    30    1
   117    22    24    1
   118    22    21    1
   119    21    18    1
   120    30    29    1
   121    30    31    1
   122    28    27    2
   123    26    29    1
   124    26    27    1
   125    26    25    1
   126    17    18    1
   127    18    19    1
   128    19    20    2
