@<TRIPOS>MOLECULE
tmp/5a7mA02.pdb
 148 142 0 0 0
SMALL
GASTEIGER

@<TRIPOS>ATOM
      1  N         16.3580  -31.0060   -1.5700 N.3   122  ASN122     -0.1240
      2  CA        15.1010  -31.7280   -1.6830 C.3   122  ASN122      0.1653
      3  C         15.1350  -32.6950   -2.8870 C.2   122  ASN122      0.2266
      4  O         15.0350  -32.2770   -4.0540 O.2   122  ASN122     -0.2867
      5  CB        13.9520  -30.6930   -1.7720 C.3   122  ASN122      0.1155
      6  CG        12.5670  -31.3180   -1.8820 C.2   122  ASN122      0.2627
      7  OD1       12.4120  -32.4850   -2.2460 O.2   122  ASN122     -0.2716
      8  ND2       11.5430  -30.5280   -1.5740 N.am  122  ASN122     -0.0877
      9  N         12.9090  -34.9900   -3.7160 N.3   124  THR124     -0.1203
     10  CA        11.5970  -35.0970   -4.3270 C.3   124  THR124      0.1994
     11  C         11.3920  -33.9730   -5.3250 C.2   124  THR124      0.2617
     12  O         10.7630  -34.1790   -6.3740 O.2   124  THR124     -0.2717
     13  CB        10.5030  -35.0350   -3.2540 C.3   124  THR124      0.1784
     14  OG1       10.7540  -36.0810   -2.3080 O.3   124  THR124     -0.2211
     15  CG2        9.1260  -35.2700   -3.8970 C.3   124  THR124      0.0376
     16  N         11.9450  -32.7990   -5.0190 N.am  125  LEU125     -0.1979
     17  CA        11.8450  -31.6220   -5.9000 C.3   125  LEU125      0.1596
     18  C         12.5510  -31.8560   -7.2370 C.2   125  LEU125      0.2287
     19  O         12.0360  -31.5180   -8.3090 O.2   125  LEU125     -0.2864
     20  CB        12.4570  -30.3960   -5.2330 C.3   125  LEU125      0.0297
     21  CG        12.5780  -29.0870   -6.0320 C.3   125  LEU125      0.0022
     22  CD1       11.1820  -28.4970   -6.2860 C.3   125  LEU125      0.0001
     23  CD2       13.4860  -28.0900   -5.2940 C.3   125  LEU125      0.0001
     24  N         10.6150  -34.2810   -9.3610 N.3   128  GLN128     -0.1245
     25  CA         9.4000  -33.6750   -9.9390 C.3   128  GLN128      0.1566
     26  C          9.7170  -32.7590  -11.1040 C.2   128  GLN128      0.2260
     27  O          9.0250  -32.7960  -12.1210 O.2   128  GLN128     -0.2867
     28  CB         8.5510  -32.9120   -8.8970 C.3   128  GLN128      0.0367
     29  CG         7.3050  -32.3190   -9.5440 C.3   128  GLN128      0.0905
     30  CD         6.1950  -31.9900   -8.5780 C.2   128  GLN128      0.2608
     31  OE1        6.4180  -31.5340   -7.4600 O.2   128  GLN128     -0.2717
     32  NE2        4.9670  -32.1940   -9.0340 N.am  128  GLN128     -0.0878
     33  N         -0.7120  -27.2450  -18.1910 N.3   378  LYS378     -0.1245
     34  CA        -1.1020  -27.7180  -16.8610 C.3   378  LYS378      0.1561
     35  C          0.1100  -27.9040  -15.9370 C.2   378  LYS378      0.2260
     36  O          0.1230  -27.4140  -14.8020 O.2   378  LYS378     -0.2867
     37  CB        -1.8760  -29.0260  -17.0190 C.3   378  LYS378      0.0271
     38  CG        -2.1120  -29.7930  -15.7390 C.3   378  LYS378      0.0035
     39  CD        -2.0800  -31.2900  -16.0330 C.3   378  LYS378      0.0206
     40  CE        -3.2860  -31.9910  -15.4350 C.3   378  LYS378      0.1093
     41  NZ        -3.3160  -31.9360  -13.9470 N.3   378  LYS378     -0.1314
     42  N          1.6360  -24.5650  -15.0130 N.3   381  ALA381     -0.1231
     43  CA         0.7970  -23.8880  -14.0130 C.3   381  ALA381      0.1694
     44  C          0.9620  -24.3980  -12.5840 C.2   381  ALA381      0.2592
     45  O          0.5380  -23.7160  -11.6610 O.2   381  ALA381     -0.2718
     46  CB        -0.6810  -23.9100  -14.4100 C.3   381  ALA381      0.0304
     47  N          1.5220  -25.5930  -12.3950 N.am  382  TRP382     -0.1962
     48  CA         1.8440  -26.0880  -11.0430 C.3   382  TRP382      0.1771
     49  C          2.8440  -25.1920  -10.3120 C.2   382  TRP382      0.2620
     50  O          2.9250  -25.2480   -9.0800 O.2   382  TRP382     -0.2715
     51  CB         2.4060  -27.5220  -11.0530 C.3   382  TRP382      0.0590
     52  CG         1.4070  -28.5950  -11.4310 C.ar  382  TRP382      0.0006
     53  CD1        0.0360  -28.4830  -11.4630 C.ar  382  TRP382      0.0946
     54  CD2        1.7080  -29.9370  -11.8200 C.ar  382  TRP382      0.0152
     55  NE1       -0.5210  -29.6730  -11.8590 N.ar  382  TRP382     -0.2442
     56  CE2        0.4760  -30.5840  -12.0830 C.ar  382  TRP382      0.0810
     57  CE3        2.9000  -30.6580  -11.9710 C.ar  382  TRP382      0.0012
     58  CZ2        0.3980  -31.9300  -12.4960 C.ar  382  TRP382      0.0191
     59  CZ3        2.8320  -32.0070  -12.3790 C.ar  382  TRP382      0.0001
     60  CH2        1.5850  -32.6220  -12.6410 C.ar  382  TRP382      0.0015
     61  N          3.5950  -24.4030  -11.0830 N.am  383  ASN383     -0.1958
     62  CA         4.5920  -23.4760  -10.5780 C.3   383  ASN383      0.1819
     63  C          5.6970  -24.1460   -9.7530 C.2   383  ASN383      0.2621
     64  O          6.1040  -23.6440   -8.7150 O.2   383  ASN383     -0.2715
     65  CB         3.9190  -22.3400   -9.8070 C.3   383  ASN383      0.1195
     66  CG         3.3360  -21.2950  -10.7330 C.2   383  ASN383      0.2630
     67  OD1        3.8700  -21.0410  -11.8360 O.2   383  ASN383     -0.2716
     68  ND2        2.2390  -20.6680  -10.2890 N.am  383  ASN383     -0.0877
     69  N          6.1820  -25.2840  -10.2370 N.am  384  ILE384     -0.1977
     70  CA         7.2670  -25.9780   -9.5510 C.3   384  ILE384      0.1596
     71  C          8.5830  -25.2340   -9.8140 C.2   384  ILE384      0.2287
     72  O          9.5330  -25.3610   -9.0250 O.2   384  ILE384     -0.2864
     73  CB         7.3210  -27.4790   -9.9430 C.3   384  ILE384      0.0276
     74  CG1        6.0310  -28.2250   -9.5210 C.3   384  ILE384      0.0022
     75  CG2        8.5690  -28.1760   -9.4140 C.3   384  ILE384      0.0022
     76  CD1        5.5700  -27.9800   -8.0970 C.3   384  ILE384      0.0001
     77  N          8.8450  -21.8590   -9.7460 N.3   386  TYR386     -0.1227
     78  CA         8.7780  -20.9770   -8.5660 C.3   386  TYR386      0.1736
     79  C          9.1490  -21.7260   -7.2910 C.2   386  TYR386      0.2595
     80  O          9.9710  -21.2480   -6.5300 O.2   386  TYR386     -0.2718
     81  CB         7.3750  -20.3570   -8.4100 C.3   386  TYR386      0.0548
     82  CG         7.1020  -19.8200   -7.0130 C.ar  386  TYR386     -0.0200
     83  CD1        7.5640  -18.5520   -6.6190 C.ar  386  TYR386     -0.0009
     84  CD2        6.3780  -20.5730   -6.0840 C.ar  386  TYR386     -0.0009
     85  CE1        7.2980  -18.0500   -5.3430 C.ar  386  TYR386      0.0417
     86  CE2        6.1220  -20.0900   -4.8020 C.ar  386  TYR386      0.0417
     87  CZ         6.5860  -18.8270   -4.4370 C.ar  386  TYR386      0.1957
     88  OH         6.3290  -18.3560   -3.1510 O.3   386  TYR386     -0.2866
     89  N          8.5420  -22.8880   -7.0570 N.am  387  GLU387     -0.1979
     90  CA         8.7770  -23.6450   -5.8120 C.3   387  GLU387      0.1602
     91  C         10.2600  -24.0000   -5.6230 C.2   387  GLU387      0.2287
     92  O         10.8000  -23.9180   -4.5160 O.2   387  GLU387     -0.2864
     93  CB         7.9050  -24.9160   -5.7710 C.3   387  GLU387      0.0415
     94  CG         8.0600  -25.7660   -4.5130 C.3   387  GLU387      0.1163
     95  CD         7.6930  -25.0340   -3.2080 C.2   387  GLU387      0.3649
     96  OE1        6.9160  -24.0450   -3.2520 O.co2 387  GLU387     -0.2457
     97  OE2        8.1750  -25.4550   -2.1140 O.co2 387  GLU387     -0.2457
     98  N         12.7470  -22.7230   -2.5850 N.3   391  GLU391     -0.1245
     99  CA        13.3450  -23.7170   -1.7110 C.3   391  GLU391      0.1567
    100  C         14.8760  -23.6110   -1.7190 C.2   391  GLU391      0.2260
    101  O         15.5080  -23.9210   -0.7210 O.2   391  GLU391     -0.2867
    102  CB        12.9150  -25.1380   -2.1000 C.3   391  GLU391      0.0388
    103  CG        11.4370  -25.4260   -1.8410 C.3   391  GLU391      0.1160
    104  CD        11.0930  -26.8970   -1.9410 C.2   391  GLU391      0.3649
    105  OE1       12.0350  -27.7420   -1.8370 O.co2 391  GLU391     -0.2457
    106  OE2        9.8830  -27.2030   -2.1170 O.co2 391  GLU391     -0.2457
    107  N          7.5250  -16.5700    2.2540 N.3   564  ARG564     -0.1245
    108  CA         8.2010  -17.8550    2.4090 C.3   564  ARG564      0.1563
    109  C          9.4840  -17.6670    3.2330 C.2   564  ARG564      0.2260
    110  O         10.0800  -16.5930    3.2400 O.2   564  ARG564     -0.2867
    111  CB         8.5040  -18.4780    1.0320 C.3   564  ARG564      0.0307
    112  CG         7.2620  -18.9660    0.2610 C.3   564  ARG564      0.0489
    113  CD         6.5690  -20.1620    0.9130 C.3   564  ARG564      0.2205
    114  NE         7.3720  -21.3870    0.8730 N.pl3 564  ARG564     -0.0865
    115  CZ         7.3620  -22.2680   -0.1330 C.cat 564  ARG564      0.5346
    116  NH1        6.5830  -22.0700   -1.1900 N.pl3 564  ARG564      0.1354
    117  NH2        8.1380  -23.3550   -0.0750 N.pl3 564  ARG564      0.1354
    118  N         10.7930  -24.2280    7.1350 N.3   667  PRO667     -0.2116
    119  CA        11.3500  -25.5190    6.7680 C.3   667  PRO667      0.1372
    120  C         12.7710  -25.6540    7.3360 C.2   667  PRO667      0.2244
    121  O         13.3260  -24.6800    7.8400 O.2   667  PRO667     -0.2868
    122  CB        11.3650  -25.4790    5.2220 C.3   667  PRO667      0.0268
    123  CG        11.4260  -24.0290    4.8590 C.3   667  PRO667      0.0207
    124  CD        10.8370  -23.2470    6.0260 C.3   667  PRO667      0.0892
    125  N         15.6210  -32.4010    3.8160 N.3   694  ARG694     -0.1231
    126  CA        14.8560  -31.1820    4.0100 C.3   694  ARG694      0.1694
    127  C         13.5570  -31.6060    4.6860 C.2   694  ARG694      0.2592
    128  O         12.9250  -32.5800    4.2770 O.2   694  ARG694     -0.2718
    129  CB        14.5510  -30.4920    2.6750 C.3   694  ARG694      0.0321
    130  CG        13.8190  -29.1570    2.8150 C.3   694  ARG694      0.0489
    131  CD        13.4260  -28.5940    1.4670 C.3   694  ARG694      0.2205
    132  NE        12.7910  -27.2750    1.5920 N.pl3 694  ARG694     -0.0865
    133  CZ        13.4050  -26.1160    1.3980 C.cat 694  ARG694      0.5346
    134  NH1       14.7010  -26.0820    1.0640 N.pl3 694  ARG694      0.1354
    135  NH2       12.7260  -24.9690    1.5470 N.pl3 694  ARG694      0.1354
    136  N         13.1770  -30.8770    5.7220 N.am  695  LEU695     -0.1966
    137  CA        11.9760  -31.2030    6.4910 C.3   695  LEU695      0.1728
    138  C         10.9420  -30.1320    6.2520 C.2   695  LEU695      0.2616
    139  O         11.2780  -28.9490    6.0650 O.2   695  LEU695     -0.2715
    140  CB        12.2770  -31.3090    7.9910 C.3   695  LEU695      0.0311
    141  CG        13.3730  -32.3150    8.3850 C.3   695  LEU695      0.0022
    142  CD1       13.6080  -32.2370    9.8810 C.3   695  LEU695      0.0001
    143  CD2       13.0390  -33.7540    7.9820 C.3   695  LEU695      0.0001
    144  N          9.6830  -30.5590    6.2320 N.am  696  ALA696     -0.1977
    145  CA         8.5730  -29.6210    6.0530 C.3   696  ALA696      0.1597
    146  C          8.5460  -28.6000    7.1920 C.2   696  ALA696      0.2287
    147  O          9.1220  -28.8490    8.2690 O.2   696  ALA696     -0.2864
    148  CB         7.2600  -30.3870    6.0010 C.3   696  ALA696      0.0319
@<TRIPOS>BOND
     1    33    34    1
     2    37    34    1
     3    37    38    1
     4    34    35    1
     5    39    38    1
     6    39    40    1
     7    35    36    2
     8    40    41    1
     9    42    43    1
    10    46    43    1
    11    43    44    1
    12    60    58   ar
    13    60    59   ar
    14    44    47   am
    15    44    45    2
    16    58    56   ar
    17    47    48    1
    18    59    57   ar
    19    27    26    2
    20    56    55   ar
    21    56    54   ar
    22    57    54   ar
    23    55    53   ar
    24    67    66    2
    25    54    52   ar
    26    53    52   ar
    27    52    51    1
    28    26    25    1
    29    61    62    1
    30    61    49   am
    31    51    48    1
    32    48    49    1
    33    66    68   am
    34    66    65    1
    35    62    65    1
    36    62    63    1
    37    49    50    2
    38    69    63   am
    39    69    70    1
    40    73    70    1
    41    73    74    1
    42    73    75    1
    43    25    24    1
    44    25    28    1
    45    71    70    1
    46    71    72    2
    47    63    64    2
    48    77    78    1
    49    29    28    1
    50    29    30    1
    51    74    76    1
    52    32    30   am
    53    30    31    2
    54    78    81    1
    55    78    79    1
    56    81    82    1
    57    19    18    2
    58    79    89   am
    59    79    80    2
    60    18    17    1
    61    89    90    1
    62    82    83   ar
    63    82    84   ar
    64    83    85   ar
    65    12    11    2
    66    22    21    1
    67    84    86   ar
    68    21    23    1
    69    21    20    1
    70    17    20    1
    71    17    16    1
    72    90    93    1
    73    90    91    1
    74    93    94    1
    75    91    92    2
    76    85    87   ar
    77    11    16   am
    78    11    10    1
    79    86    87   ar
    80    94    95    1
    81    87    88    1
    82    10     9    1
    83    10    13    1
    84     4     3    2
    85    15    13    1
    86    13    14    1
    87    96    95   ar
    88    95    97   ar
    89     3     2    1
    90    98    99    1
    91     7     6    2
    92   106   104   ar
    93   102   103    1
    94   102    99    1
    95   104   103    1
    96   104   105   ar
    97     6     5    1
    98     6     8   am
    99     5     2    1
   100   100    99    1
   101   100   101    2
   102     2     1    1
   103   116   115    1
   104   115   117    1
   105   115   114    2
   106   112   113    1
   107   112   111    1
   108   114   113    1
   109   111   108    1
   110   134   133    1
   111   133   135    1
   112   133   132    2
   113   131   132    1
   114   131   130    1
   115   107   108    1
   116   108   109    1
   117   129   130    1
   118   129   126    1
   119   109   110    2
   120   125   126    1
   121   126   127    1
   122   128   127    2
   123   127   136   am
   124   123   122    1
   125   123   124    1
   126   122   119    1
   127   136   137    1
   128   148   145    1
   129   124   118    1
   130   145   144    1
   131   145   146    1
   132   139   138    2
   133   144   138   am
   134   138   137    1
   135   137   140    1
   136   119   118    1
   137   119   120    1
   138   146   147    2
   139   120   121    2
   140   143   141    1
   141   140   141    1
   142   141   142    1
