@<TRIPOS>MOLECULE
tmp/5a7mB03.pdb
 119 112 0 0 0
SMALL
GASTEIGER

@<TRIPOS>ATOM
      1  N         21.2780  -83.1890  -41.8090 N.3   122  ASN122     -0.1240
      2  CA        19.9090  -82.7230  -41.7520 C.3   122  ASN122      0.1653
      3  C         19.7120  -81.7610  -40.5420 C.2   122  ASN122      0.2266
      4  O         19.6580  -82.1850  -39.3730 O.2   122  ASN122     -0.2867
      5  CB        18.9830  -83.9530  -41.7060 C.3   122  ASN122      0.1155
      6  CG        17.5100  -83.5940  -41.7240 C.2   122  ASN122      0.2627
      7  OD1       17.1350  -82.4350  -41.5460 O.2   122  ASN122     -0.2716
      8  ND2       16.6620  -84.5980  -41.9310 N.am  122  ASN122     -0.0877
      9  N         17.0660  -79.8110  -39.8450 N.3   124  THR124     -0.1203
     10  CA        15.7230  -79.9500  -39.2430 C.3   124  THR124      0.1994
     11  C         15.7040  -81.0730  -38.1930 C.2   124  THR124      0.2617
     12  O         15.0690  -80.9640  -37.1220 O.2   124  THR124     -0.2717
     13  CB        14.6840  -80.2200  -40.3620 C.3   124  THR124      0.1784
     14  OG1       14.7530  -79.1500  -41.3130 O.3   124  THR124     -0.2211
     15  CG2       13.2950  -80.2870  -39.8050 C.3   124  THR124      0.0376
     16  N         16.4110  -82.1580  -38.5020 N.am  125  LEU125     -0.1979
     17  CA        16.5060  -83.2940  -37.6130 C.3   125  LEU125      0.1596
     18  C         17.1680  -82.8900  -36.3000 C.2   125  LEU125      0.2287
     19  O         16.6680  -83.2430  -35.2600 O.2   125  LEU125     -0.2864
     20  CB        17.3340  -84.4220  -38.2310 C.3   125  LEU125      0.0297
     21  CG        17.6230  -85.6690  -37.3850 C.3   125  LEU125      0.0022
     22  CD1       16.3470  -86.5030  -37.2850 C.3   125  LEU125      0.0001
     23  CD2       18.7340  -86.5040  -38.0420 C.3   125  LEU125      0.0001
     24  N         14.7920  -80.8420  -34.3290 N.3   128  GLN128     -0.1245
     25  CA        13.6420  -81.5560  -33.7910 C.3   128  GLN128      0.1566
     26  C         14.0570  -82.4180  -32.5950 C.2   128  GLN128      0.2260
     27  O         13.3430  -82.5180  -31.6290 O.2   128  GLN128     -0.2867
     28  CB        12.9540  -82.4160  -34.8580 C.3   128  GLN128      0.0367
     29  CG        11.8500  -83.2770  -34.2540 C.3   128  GLN128      0.0905
     30  CD        10.9300  -83.9330  -35.2650 C.2   128  GLN128      0.2608
     31  OE1       11.3370  -84.3280  -36.3690 O.2   128  GLN128     -0.2717
     32  NE2        9.6570  -84.0620  -34.8840 N.am  128  GLN128     -0.0878
     33  N          7.3680  -91.7280  -28.9450 N.3   381  ALA381     -0.1231
     34  CA         6.6760  -92.5590  -29.9400 C.3   381  ALA381      0.1694
     35  C          6.8090  -92.0710  -31.3970 C.2   381  ALA381      0.2592
     36  O          6.5580  -92.8400  -32.3330 O.2   381  ALA381     -0.2718
     37  CB         5.2060  -92.7440  -29.5600 C.3   381  ALA381      0.0304
     38  N          7.2220  -90.8210  -31.5760 N.am  382  TRP382     -0.1976
     39  CA         7.5110  -90.2680  -32.8880 C.3   382  TRP382      0.1640
     40  C          8.6930  -90.9980  -33.5460 C.2   382  TRP382      0.2290
     41  O          8.8450  -90.9870  -34.7720 O.2   382  TRP382     -0.2864
     42  CB         7.8260  -88.7870  -32.7840 C.3   382  TRP382      0.0576
     43  CG         6.6470  -87.8820  -32.4380 C.ar  382  TRP382      0.0006
     44  CD1        5.3080  -88.1950  -32.4620 C.ar  382  TRP382      0.0946
     45  CD2        6.7280  -86.5040  -32.0500 C.ar  382  TRP382      0.0152
     46  NE1        4.5560  -87.0850  -32.0970 N.ar  382  TRP382     -0.2442
     47  CE2        5.4080  -86.0430  -31.8370 C.ar  382  TRP382      0.0810
     48  CE3        7.7930  -85.6140  -31.8560 C.ar  382  TRP382      0.0012
     49  CZ2        5.1280  -84.7350  -31.4590 C.ar  382  TRP382      0.0191
     50  CZ3        7.5150  -84.3230  -31.4700 C.ar  382  TRP382      0.0001
     51  CH2        6.1890  -83.8910  -31.2790 C.ar  382  TRP382      0.0015
     52  N         11.8930  -90.4000  -33.4190 N.3   384  ILE384     -0.1245
     53  CA        12.9320  -89.5460  -33.9980 C.3   384  ILE384      0.1561
     54  C         14.3150  -90.0720  -33.6420 C.2   384  ILE384      0.2260
     55  O         15.2710  -89.8340  -34.3870 O.2   384  ILE384     -0.2867
     56  CB        12.7450  -88.0530  -33.6530 C.3   384  ILE384      0.0252
     57  CG1       11.3430  -87.5850  -34.1010 C.3   384  ILE384      0.0019
     58  CG2       13.8530  -87.2390  -34.2880 C.3   384  ILE384      0.0019
     59  CD1       11.0510  -87.7560  -35.5790 C.3   384  ILE384      0.0001
     60  N         14.8220  -92.4560  -36.4320 N.3   387  GLU387     -0.1245
     61  CA        14.9540  -91.6910  -37.6730 C.3   387  GLU387      0.1567
     62  C         16.3620  -91.0910  -37.8010 C.2   387  GLU387      0.2260
     63  O         16.9760  -91.1720  -38.8580 O.2   387  GLU387     -0.2867
     64  CB        13.8780  -90.5930  -37.7830 C.3   387  GLU387      0.0388
     65  CG        13.9090  -89.8040  -39.1120 C.3   387  GLU387      0.1160
     66  CD        13.8000  -90.6590  -40.3880 C.2   387  GLU387      0.3649
     67  OE1       13.2410  -91.7840  -40.3320 O.co2 387  GLU387     -0.2457
     68  OE2       14.2400  -90.1910  -41.4840 O.co2 387  GLU387     -0.2457
     69  N         19.0440  -92.0510  -40.7590 N.3   391  GLU391     -0.1245
     70  CA        19.5650  -91.0120  -41.6530 C.3   391  GLU391      0.1567
     71  C         21.0770  -90.8480  -41.5580 C.2   391  GLU391      0.2260
     72  O         21.7140  -90.4080  -42.4970 O.2   391  GLU391     -0.2867
     73  CB        18.9190  -89.6640  -41.3520 C.3   391  GLU391      0.0388
     74  CG        17.4210  -89.6000  -41.6130 C.3   391  GLU391      0.1160
     75  CD        16.8850  -88.1780  -41.5870 C.2   391  GLU391      0.3649
     76  OE1       17.6760  -87.2000  -41.6740 O.co2 391  GLU391     -0.2457
     77  OE2       15.6520  -88.0430  -41.4720 O.co2 391  GLU391     -0.2457
     78  N         15.2780  -99.1000  -45.6640 N.3   564  ARG564     -0.1245
     79  CA        15.7130  -97.7250  -45.8380 C.3   564  ARG564      0.1563
     80  C         17.0760  -97.6970  -46.5600 C.2   564  ARG564      0.2260
     81  O         17.8430  -98.6720  -46.5240 O.2   564  ARG564     -0.2867
     82  CB        15.7530  -96.9990  -44.4940 C.3   564  ARG564      0.0307
     83  CG        14.3790  -96.8160  -43.8470 C.3   564  ARG564      0.0489
     84  CD        13.5820  -95.6930  -44.4910 C.3   564  ARG564      0.2205
     85  NE        14.2520  -94.3990  -44.3810 N.pl3 564  ARG564     -0.0865
     86  CZ        14.0490  -93.5220  -43.3950 C.cat 564  ARG564      0.5346
     87  NH1       13.1990  -93.7990  -42.4050 N.pl3 564  ARG564      0.1354
     88  NH2       14.7140  -92.3710  -43.3870 N.pl3 564  ARG564      0.1354
     89  N         17.4060  -91.1280  -50.6770 N.3   672  PRO672     -0.2116
     90  CA        17.6900  -89.7280  -50.3450 C.3   672  PRO672      0.1372
     91  C         19.1000  -89.3450  -50.8110 C.2   672  PRO672      0.2244
     92  O         19.8680  -90.2060  -51.2700 O.2   672  PRO672     -0.2868
     93  CB        17.5640  -89.6970  -48.8240 C.3   672  PRO672      0.0268
     94  CG        17.9220  -91.0830  -48.4030 C.3   672  PRO672      0.0207
     95  CD        17.4550  -92.0080  -49.4960 C.3   672  PRO672      0.0892
     96  N         20.5450  -82.0340  -47.1510 N.3   699  ARG699     -0.1231
     97  CA        20.0060  -83.3630  -47.3630 C.3   699  ARG699      0.1694
     98  C         18.6930  -83.2130  -48.1240 C.2   699  ARG699      0.2592
     99  O         17.8740  -82.3640  -47.7700 O.2   699  ARG699     -0.2718
    100  CB        19.7780  -84.0730  -46.0340 C.3   699  ARG699      0.0321
    101  CG        19.2900  -85.5100  -46.1990 C.3   699  ARG699      0.0489
    102  CD        18.9480  -86.1320  -44.8770 C.3   699  ARG699      0.2205
    103  NE        18.5210  -87.5160  -45.0100 N.pl3 699  ARG699     -0.0865
    104  CZ        19.3060  -88.5690  -44.8170 C.cat 699  ARG699      0.5346
    105  NH1       20.5950  -88.4060  -44.4980 N.pl3 699  ARG699      0.1354
    106  NH2       18.7960  -89.7870  -44.9410 N.pl3 699  ARG699      0.1354
    107  N         18.5290  -83.9930  -49.1930 N.am  700  LEU700     -0.1966
    108  CA        17.3000  -83.9480  -49.9880 C.3   700  LEU700      0.1728
    109  C         16.4660  -85.1970  -49.7730 C.2   700  LEU700      0.2616
    110  O         17.0040  -86.2900  -49.5760 O.2   700  LEU700     -0.2715
    111  CB        17.6230  -83.8120  -51.4770 C.3   700  LEU700      0.0311
    112  CG        18.6190  -82.7280  -51.8880 C.3   700  LEU700      0.0022
    113  CD1       18.7650  -82.7490  -53.4050 C.3   700  LEU700      0.0001
    114  CD2       18.1450  -81.3490  -51.4250 C.3   700  LEU700      0.0001
    115  N         15.1510  -85.0240  -49.8530 N.am  701  ALA701     -0.1977
    116  CA        14.1680  -86.1100  -49.7680 C.3   701  ALA701      0.1597
    117  C         14.4030  -87.2000  -50.8290 C.2   701  ALA701      0.2287
    118  O         15.0330  -86.9250  -51.8420 O.2   701  ALA701     -0.2864
    119  CB        12.7800  -85.5150  -49.9410 C.3   701  ALA701      0.0319
@<TRIPOS>BOND
     1   113   112    1
     2   112   111    1
     3   112   114    1
     4   118   117    2
     5   111   108    1
     6    92    91    2
     7   117   116    1
     8    91    90    1
     9    89    90    1
    10    89    95    1
    11    90    93    1
    12   108   109    1
    13   108   107    1
    14   119   116    1
    15   115   109   am
    16   115   116    1
    17   109   110    2
    18    95    94    1
    19   107    98   am
    20    93    94    1
    21    98    99    2
    22    98    97    1
    23    97    96    1
    24    97   100    1
    25    80    81    2
    26    80    79    1
    27   101   100    1
    28   101   102    1
    29    79    78    1
    30    79    82    1
    31   103   102    1
    32   103   104    2
    33   106   104    1
    34   104   105    1
    35    82    83    1
    36    84    85    1
    37    84    83    1
    38    85    86    2
    39    86    88    1
    40    86    87    1
    41    72    71    2
    42     8     6   am
    43     1     2    1
    44     2     5    1
    45     2     3    1
    46     6     5    1
    47     6     7    2
    48    76    75   ar
    49    70    71    1
    50    70    73    1
    51    70    69    1
    52    74    75    1
    53    74    73    1
    54    75    77   ar
    55    68    66   ar
    56    14    13    1
    57     3     4    2
    58    66    67   ar
    59    66    65    1
    60    13    15    1
    61    13    10    1
    62     9    10    1
    63    10    11    1
    64    65    64    1
    65    63    62    2
    66    16    11   am
    67    16    17    1
    68    20    17    1
    69    20    21    1
    70    11    12    2
    71    23    21    1
    72    62    61    1
    73    64    61    1
    74    61    60    1
    75    17    18    1
    76    21    22    1
    77    31    30    2
    78    18    19    2
    79    59    57    1
    80    30    32   am
    81    30    29    1
    82    28    29    1
    83    28    25    1
    84    41    40    2
    85    55    54    2
    86    24    25    1
    87    58    56    1
    88    57    56    1
    89    53    56    1
    90    53    54    1
    91    53    52    1
    92    25    26    1
    93    40    39    1
    94    39    42    1
    95    39    38    1
    96    42    43    1
    97    26    27    2
    98    44    43   ar
    99    44    46   ar
   100    43    45   ar
   101    36    35    2
   102    46    47   ar
   103    45    48   ar
   104    45    47   ar
   105    48    50   ar
   106    47    49   ar
   107    38    35   am
   108    50    51   ar
   109    49    51   ar
   110    35    34    1
   111    34    37    1
   112    34    33    1
