@<TRIPOS>MOLECULE
tmp/5a7nA00.pdb
 152 144 0 0 0
SMALL
GASTEIGER

@<TRIPOS>ATOM
      1  N        -14.3660  -19.5510  -14.3870 N.3    83  ASN83      -0.1240
      2  CA       -14.0780  -18.7620  -15.5700 C.3    83  ASN83       0.1653
      3  C        -12.8580  -17.8690  -15.3810 C.2    83  ASN83       0.2266
      4  O        -12.7190  -17.1850  -14.3660 O.2    83  ASN83      -0.2867
      5  CB       -15.2850  -17.9120  -15.9500 C.3    83  ASN83       0.1155
      6  CG       -16.4080  -18.7360  -16.5290 C.2    83  ASN83       0.2627
      7  OD1      -16.2420  -19.9260  -16.7820 O.2    83  ASN83      -0.2716
      8  ND2      -17.5540  -18.1050  -16.7600 N.am   83  ASN83      -0.0877
      9  N        -14.0160  -20.3300  -24.5130 N.3   129  TYR129     -0.1241
     10  CA       -15.3560  -20.1040  -25.0470 C.3   129  TYR129      0.1605
     11  C        -15.4800  -18.6360  -25.3600 C.2   129  TYR129      0.2264
     12  O        -15.2260  -17.7950  -24.4860 O.2   129  TYR129     -0.2867
     13  CB       -16.4350  -20.5420  -24.0340 C.3   129  TYR129      0.0534
     14  CG       -17.8010  -20.9040  -24.6020 C.ar  129  TYR129     -0.0201
     15  CD1      -17.9630  -21.2450  -25.9280 C.ar  129  TYR129     -0.0009
     16  CD2      -18.9050  -21.0130  -23.7730 C.ar  129  TYR129     -0.0009
     17  CE1      -19.2010  -21.6130  -26.4340 C.ar  129  TYR129      0.0417
     18  CE2      -20.1430  -21.3880  -24.2600 C.ar  129  TYR129      0.0417
     19  CZ       -20.2980  -21.6890  -25.5860 C.ar  129  TYR129      0.1957
     20  OH       -21.5550  -22.0720  -26.0630 O.3   129  TYR129     -0.2866
     21  N        -21.0450  -14.7800  -24.5890 N.3   132  ASP132     -0.1239
     22  CA       -21.7070  -13.5080  -24.2630 C.3   132  ASP132      0.1674
     23  C        -21.2340  -12.3910  -25.1820 C.2   132  ASP132      0.2266
     24  O        -20.9560  -11.2860  -24.7310 O.2   132  ASP132     -0.2867
     25  CB       -21.4570  -13.0920  -22.8090 C.3   132  ASP132      0.1410
     26  CG       -21.7280  -14.2030  -21.8270 C.2   132  ASP132      0.3668
     27  OD1      -22.3870  -15.1930  -22.2060 O.co2 132  ASP132     -0.2456
     28  OD2      -21.2670  -14.0850  -20.6740 O.co2 132  ASP132     -0.2456
     29  N        -22.3920  -17.0120  -29.3600 N.3   174  TYR174     -0.1241
     30  CA       -21.4770  -17.9320  -28.6760 C.3   174  TYR174      0.1605
     31  C        -20.5650  -18.6550  -29.6660 C.2   174  TYR174      0.2264
     32  O        -21.0160  -19.5090  -30.4400 O.2   174  TYR174     -0.2867
     33  CB       -22.2470  -18.9890  -27.8570 C.3   174  TYR174      0.0534
     34  CG       -23.0350  -18.4720  -26.6640 C.ar  174  TYR174     -0.0201
     35  CD1      -22.4500  -18.3820  -25.4090 C.ar  174  TYR174     -0.0009
     36  CD2      -24.3720  -18.1040  -26.7910 C.ar  174  TYR174     -0.0009
     37  CE1      -23.1630  -17.9190  -24.3130 C.ar  174  TYR174      0.0417
     38  CE2      -25.1020  -17.6470  -25.6970 C.ar  174  TYR174      0.0417
     39  CZ       -24.4900  -17.5560  -24.4640 C.ar  174  TYR174      0.1957
     40  OH       -25.1860  -17.0890  -23.3820 O.3   174  TYR174     -0.2866
     41  N        -21.7750  -25.5040  -21.1000 N.3   182  PHE182     -0.1227
     42  CA       -22.7100  -24.7120  -20.3010 C.3   182  PHE182      0.1736
     43  C        -23.2440  -25.5670  -19.1350 C.2   182  PHE182      0.2595
     44  O        -23.7030  -26.6830  -19.3240 O.2   182  PHE182     -0.2718
     45  CB       -23.8470  -24.0790  -21.1590 C.3   182  PHE182      0.0547
     46  CG       -24.5870  -25.0200  -22.1000 C.ar  182  PHE182     -0.0202
     47  CD1      -24.0380  -25.3870  -23.3200 C.ar  182  PHE182     -0.0042
     48  CD2      -25.8900  -25.4360  -21.8110 C.ar  182  PHE182     -0.0042
     49  CE1      -24.7300  -26.2230  -24.2040 C.ar  182  PHE182     -0.0003
     50  CE2      -26.5990  -26.2630  -22.6950 C.ar  182  PHE182     -0.0003
     51  CZ       -26.0110  -26.6570  -23.9060 C.ar  182  PHE182     -0.0000
     52  N        -23.1120  -25.0310  -17.9240 N.am  183  ALA183     -0.1980
     53  CA       -23.5250  -25.7120  -16.7080 C.3   183  ALA183      0.1597
     54  C        -25.0440  -25.8430  -16.5710 C.2   183  ALA183      0.2287
     55  O        -25.8040  -25.1920  -17.2830 O.2   183  ALA183     -0.2864
     56  CB       -22.9460  -24.9780  -15.4780 C.3   183  ALA183      0.0319
     57  N        -28.6590  -25.2390  -15.5040 N.3   185  HIS185     -0.1241
     58  CA       -29.4090  -24.0260  -15.1550 C.3   185  HIS185      0.1621
     59  C        -30.8110  -23.9080  -15.7740 C.2   185  HIS185      0.2264
     60  O        -31.1430  -24.5610  -16.7640 O.2   185  HIS185     -0.2867
     61  CB       -28.6170  -22.7880  -15.5590 C.3   185  HIS185      0.0745
     62  CG       -28.4920  -22.6190  -17.0350 C.ar  185  HIS185      0.0817
     63  ND1      -27.7770  -23.4880  -17.8270 N.ar  185  HIS185     -0.2268
     64  CD2      -29.0100  -21.6810  -17.8760 C.ar  185  HIS185      0.1154
     65  CE1      -27.8460  -23.0920  -19.0890 C.ar  185  HIS185      0.1986
     66  NE2      -28.5880  -22.0010  -19.1410 N.ar  185  HIS185     -0.2212
     67  N        -33.2680  -20.4970  -17.1250 N.3   187  GLU187     -0.1231
     68  CA       -32.9870  -19.1430  -17.5660 C.3   187  GLU187      0.1699
     69  C        -33.1970  -18.1800  -16.4160 C.2   187  GLU187      0.2592
     70  O        -33.8400  -18.5260  -15.4070 O.2   187  GLU187     -0.2718
     71  CB       -33.8750  -18.7420  -18.7360 C.3   187  GLU187      0.0402
     72  CG       -33.6920  -19.6000  -19.9960 C.3   187  GLU187      0.1161
     73  CD       -32.2330  -19.7380  -20.4210 C.2   187  GLU187      0.3649
     74  OE1      -31.5630  -18.7030  -20.6370 O.co2 187  GLU187     -0.2457
     75  OE2      -31.7780  -20.8900  -20.5400 O.co2 187  GLU187     -0.2457
     76  N        -32.6730  -16.9670  -16.5790 N.am  188  ASP188     -0.1974
     77  CA       -33.0060  -15.8830  -15.6690 C.3   188  ASP188      0.1709
     78  C        -34.5270  -15.6840  -15.5590 C.2   188  ASP188      0.2293
     79  O        -35.2710  -15.7750  -16.5620 O.2   188  ASP188     -0.2864
     80  CB       -32.3240  -14.5960  -16.1190 C.3   188  ASP188      0.1436
     81  CG       -30.8210  -14.6450  -15.9220 C.2   188  ASP188      0.3671
     82  OD1      -30.3750  -15.3600  -14.9990 O.co2 188  ASP188     -0.2456
     83  OD2      -30.0900  -13.9790  -16.6880 O.co2 188  ASP188     -0.2456
     84  N        -35.8460  -19.7780  -23.5310 N.3   193  SER193     -0.1217
     85  CA       -34.7810  -19.2780  -24.3910 C.3   193  SER193      0.1889
     86  C        -34.8750  -19.8710  -25.7860 C.2   193  SER193      0.2288
     87  O        -35.4830  -20.9180  -25.9920 O.2   193  SER193     -0.2866
     88  CB       -33.4000  -19.5360  -23.7730 C.3   193  SER193      0.2089
     89  OG       -33.2300  -20.9080  -23.5130 O.3   193  SER193     -0.2183
     90  N        -32.2550  -20.7990  -29.0470 N.3   195  ASN195     -0.1240
     91  CA       -30.8420  -20.9180  -29.4180 C.3   195  ASN195      0.1653
     92  C        -30.7400  -21.4030  -30.8590 C.2   195  ASN195      0.2266
     93  O        -31.2670  -22.4640  -31.1970 O.2   195  ASN195     -0.2867
     94  CB       -30.0990  -21.8740  -28.4570 C.3   195  ASN195      0.1155
     95  CG       -28.6130  -22.0630  -28.8210 C.2   195  ASN195      0.2627
     96  OD1      -28.2810  -22.6400  -29.8720 O.2   195  ASN195     -0.2716
     97  ND2      -27.7130  -21.6070  -27.9330 N.am  195  ASN195     -0.0877
     98  N        -23.7660  -29.0610  -31.1180 N.3   203  LYS203     -0.1245
     99  CA       -23.8290  -28.7010  -29.7050 C.3   203  LYS203      0.1561
    100  C        -24.7930  -29.6790  -29.0630 C.2   203  LYS203      0.2260
    101  O        -25.9260  -29.8330  -29.5390 O.2   203  LYS203     -0.2867
    102  CB       -24.2970  -27.2530  -29.5130 C.3   203  LYS203      0.0271
    103  CG       -24.5210  -26.8410  -28.0620 C.3   203  LYS203      0.0035
    104  CD       -25.2740  -25.5120  -27.9500 C.3   203  LYS203      0.0206
    105  CE       -24.5680  -24.3720  -28.6980 C.3   203  LYS203      0.1093
    106  NZ       -23.5390  -23.7080  -27.8560 N.3   203  LYS203     -0.1314
    107  N        -27.0080  -31.3640  -25.7800 N.3   205  TRP205     -0.1241
    108  CA       -27.8110  -30.8460  -24.6820 C.3   205  TRP205      0.1605
    109  C        -28.2790  -31.9760  -23.7940 C.2   205  TRP205      0.2264
    110  O        -28.6060  -33.0490  -24.2910 O.2   205  TRP205     -0.2867
    111  CB       -29.0540  -30.0990  -25.2070 C.3   205  TRP205      0.0550
    112  CG       -28.8210  -28.8870  -26.0480 C.ar  205  TRP205      0.0003
    113  CD1      -28.2730  -28.8450  -27.2930 C.ar  205  TRP205      0.0946
    114  CD2      -29.1820  -27.5370  -25.7240 C.ar  205  TRP205      0.0152
    115  NE1      -28.2560  -27.5470  -27.7650 N.ar  205  TRP205     -0.2442
    116  CE2      -28.8060  -26.7270  -26.8170 C.ar  205  TRP205      0.0810
    117  CE3      -29.7830  -26.9310  -24.6110 C.ar  205  TRP205      0.0012
    118  CZ2      -29.0090  -25.3430  -26.8310 C.ar  205  TRP205      0.0191
    119  CZ3      -29.9830  -25.5580  -24.6250 C.ar  205  TRP205      0.0001
    120  CH2      -29.6020  -24.7790  -25.7310 C.ar  205  TRP205      0.0015
    121  N        -24.3260  -20.6940  -12.6350 N.3   238  LYS238     -0.1245
    122  CA       -23.9780  -21.4010  -13.8640 C.3   238  LYS238      0.1561
    123  C        -22.5500  -21.9610  -13.8400 C.2   238  LYS238      0.2260
    124  O        -21.8050  -21.8460  -14.8240 O.2   238  LYS238     -0.2867
    125  CB       -24.2000  -20.4710  -15.0710 C.3   238  LYS238      0.0271
    126  CG       -25.7220  -20.2260  -15.3450 C.3   238  LYS238      0.0035
    127  CD       -26.0320  -18.7790  -15.7120 C.3   238  LYS238      0.0206
    128  CE       -27.5300  -18.4290  -15.6030 C.3   238  LYS238      0.1093
    129  NZ       -27.8060  -17.4650  -14.4490 N.3   238  LYS238     -0.1314
    130  N        -35.7740  -23.6980  -24.9550 N.3   267  THR267     -0.1218
    131  CA       -35.8940  -24.1350  -23.5720 C.3   267  THR267      0.1862
    132  C        -37.1190  -23.4490  -22.9720 C.2   267  THR267      0.2287
    133  O        -37.4640  -22.3270  -23.3400 O.2   267  THR267     -0.2866
    134  CB       -34.6590  -23.8140  -22.7090 C.3   267  THR267      0.1770
    135  OG1      -34.6460  -22.4200  -22.4290 O.3   267  THR267     -0.2211
    136  CG2      -33.3420  -24.2000  -23.4160 C.3   267  THR267      0.0375
    137  N        -31.1700  -27.2590  -18.0410 N.3   273  HIS273     -0.1241
    138  CA       -30.3790  -27.8590  -19.1100 C.3   273  HIS273      0.1621
    139  C        -28.8860  -27.6090  -18.9200 C.2   273  HIS273      0.2264
    140  O        -28.4840  -26.7160  -18.1630 O.2   273  HIS273     -0.2867
    141  CB       -30.8210  -27.3230  -20.4760 C.3   273  HIS273      0.0745
    142  CG       -30.9230  -25.8360  -20.5340 C.ar  273  HIS273      0.0817
    143  ND1      -32.0090  -25.1430  -20.0340 N.ar  273  HIS273     -0.2268
    144  CD2      -30.0800  -24.8990  -21.0280 C.ar  273  HIS273      0.1154
    145  CE1      -31.8300  -23.8490  -20.2240 C.ar  273  HIS273      0.1986
    146  NE2      -30.6620  -23.6700  -20.8200 N.ar  273  HIS273     -0.2212
    147  N        -28.4380  -16.6390  -29.2310 N.3   285  SER285     -0.1217
    148  CA       -29.5680  -16.8310  -28.3340 C.3   285  SER285      0.1889
    149  C        -30.0560  -15.5710  -27.6180 C.2   285  SER285      0.2288
    150  O        -29.3510  -14.5530  -27.5330 O.2   285  SER285     -0.2866
    151  CB       -29.2240  -17.8920  -27.2930 C.3   285  SER285      0.2089
    152  OG       -28.1180  -17.4880  -26.5240 O.3   285  SER285     -0.2183
@<TRIPOS>BOND
     1    93    92    2
     2    98    99    1
     3    92    91    1
     4    32    31    2
     5    96    95    2
     6    99   102    1
     7    99   100    1
     8    31    30    1
     9   101   100    2
    10   102   103    1
    11    91    90    1
    12    91    94    1
    13    29    30    1
    14   147   148    1
    15    95    94    1
    16    95    97   am
    17   105   104    1
    18   105   106    1
    19    30    33    1
    20   148   149    1
    21   148   151    1
    22   103   104    1
    23    33    34    1
    24   115   113   ar
    25   115   116   ar
    26   149   150    2
    27   113   112   ar
    28   151   152    1
    29   118   116   ar
    30   118   120   ar
    31   116   114   ar
    32    36    34   ar
    33    36    38   ar
    34    34    35   ar
    35    17    15   ar
    36    17    19   ar
    37    20    19    1
    38   112   114   ar
    39   112   111    1
    40    87    86    2
    41    15    14   ar
    42    86    85    1
    43   107   108    1
    44   120   119   ar
    45   114   117   ar
    46    38    39   ar
    47    19    18   ar
    48    35    37   ar
    49    11    10    1
    50    11    12    2
    51   111   108    1
    52    23    24    2
    53    23    22    1
    54    10     9    1
    55    10    13    1
    56   130   131    1
    57   108   109    1
    58   119   117   ar
    59    14    13    1
    60    14    16   ar
    61    21    22    1
    62    39    37   ar
    63    39    40    1
    64    85    88    1
    65    85    84    1
    66   110   109    2
    67    22    25    1
    68    18    16   ar
    69    49    51   ar
    70    49    47   ar
    71    51    50   ar
    72    88    89    1
    73   131   132    1
    74   131   134    1
    75   136   134    1
    76   133   132    2
    77    47    46   ar
    78    25    26    1
    79   134   135    1
    80    50    48   ar
    81    27    26   ar
    82    46    48   ar
    83    46    45    1
    84    26    28   ar
    85    45    42    1
    86    41    42    1
    87   144   146   ar
    88   144   142   ar
    89   146   145   ar
    90    74    73   ar
    91    75    73   ar
    92   142   141    1
    93   142   143   ar
    94   141   138    1
    95    73    72    1
    96    42    43    1
    97   145   143   ar
    98    72    71    1
    99    44    43    2
   100    66    65   ar
   101    66    64   ar
   102    43    52   am
   103   138   139    1
   104   138   137    1
   105    65    63   ar
   106   139   140    2
   107    71    68    1
   108    52    53    1
   109    64    62   ar
   110    63    62   ar
   111    68    67    1
   112    68    69    1
   113    55    54    2
   114    62    61    1
   115     7     6    2
   116    60    59    2
   117     8     6   am
   118    53    54    1
   119    53    56    1
   120    83    81   ar
   121    76    69   am
   122    76    77    1
   123    79    78    2
   124     6     5    1
   125    69    70    2
   126    80    81    1
   127    80    77    1
   128     5     2    1
   129    81    82   ar
   130    59    58    1
   131   127   128    1
   132   127   126    1
   133    77    78    1
   134   128   129    1
   135     2     3    1
   136     2     1    1
   137    61    58    1
   138    57    58    1
   139     3     4    2
   140   126   125    1
   141   125   122    1
   142   124   123    2
   143   122   123    1
   144   122   121    1
