@<TRIPOS>MOLECULE
tmp/5a7pB00.pdb
 190 181 0 0 0
SMALL
GASTEIGER

@<TRIPOS>ATOM
      1  N        -55.9650  -59.6420    3.9560 N.3    64  ILE64      -0.1245
      2  CA       -55.8770  -58.8510    5.1800 C.3    64  ILE64       0.1561
      3  C        -56.5650  -57.4960    5.0150 C.2    64  ILE64       0.2260
      4  O        -56.1650  -56.7140    4.1430 O.2    64  ILE64      -0.2867
      5  CB       -54.3920  -58.6200    5.5570 C.3    64  ILE64       0.0252
      6  CG1      -53.7470  -59.9240    6.0210 C.3    64  ILE64       0.0019
      7  CG2      -54.2630  -57.5650    6.6290 C.3    64  ILE64       0.0019
      8  CD1      -54.4160  -60.4920    7.2530 C.3    64  ILE64       0.0001
      9  N        -54.6240  -55.6910   11.5800 N.3    79  ASN79      -0.1240
     10  CA       -54.9750  -56.5880   10.4860 C.3    79  ASN79       0.1653
     11  C        -56.1940  -57.4380   10.7950 C.2    79  ASN79       0.2266
     12  O        -56.2420  -58.1260   11.8100 O.2    79  ASN79      -0.2867
     13  CB       -53.7950  -57.4920   10.1400 C.3    79  ASN79       0.1155
     14  CG       -52.6270  -56.7210    9.5610 C.2    79  ASN79       0.2627
     15  OD1      -52.7780  -55.5920    9.0880 O.2    79  ASN79      -0.2716
     16  ND2      -51.4570  -57.3340    9.5790 N.am   79  ASN79      -0.0877
     17  N        -55.3120  -56.1440    1.6030 N.3   125  TYR125     -0.1241
     18  CA       -53.9770  -56.4780    1.1250 C.3   125  TYR125      0.1605
     19  C        -53.8640  -57.9830    0.9970 C.2   125  TYR125      0.2264
     20  O        -54.0620  -58.7070    1.9800 O.2   125  TYR125     -0.2867
     21  CB       -52.9140  -55.9430    2.0890 C.3   125  TYR125      0.0534
     22  CG       -51.5470  -55.7670    1.4800 C.ar  125  TYR125     -0.0201
     23  CD1      -51.3650  -55.8240    0.1060 C.ar  125  TYR125     -0.0009
     24  CD2      -50.4420  -55.4580    2.2740 C.ar  125  TYR125     -0.0009
     25  CE1      -50.1090  -55.6380   -0.4620 C.ar  125  TYR125      0.0417
     26  CE2      -49.1820  -55.2710    1.7150 C.ar  125  TYR125      0.0417
     27  CZ       -49.0190  -55.3490    0.3490 C.ar  125  TYR125      0.1957
     28  OH       -47.7720  -55.1320   -0.2090 O.3   125  TYR125     -0.2866
     29  N        -51.5630  -60.1680    1.1570 N.3   127  ALA127     -0.1231
     30  CA       -50.1720  -60.2700    1.5970 C.3   127  ALA127      0.1694
     31  C        -49.7360  -61.6770    1.9710 C.2   127  ALA127      0.2592
     32  O        -50.5640  -62.5470    2.2400 O.2   127  ALA127     -0.2718
     33  CB       -49.9420  -59.3190    2.7810 C.3   127  ALA127      0.0304
     34  N        -48.4200  -61.8920    1.9550 N.am  128  ASP128     -0.1974
     35  CA       -47.7910  -63.1070    2.4750 C.3   128  ASP128      0.1709
     36  C        -48.2880  -64.3950    1.8130 C.2   128  ASP128      0.2293
     37  O        -48.4720  -65.4130    2.4850 O.2   128  ASP128     -0.2864
     38  CB       -48.0050  -63.1870    3.9910 C.3   128  ASP128      0.1436
     39  CG       -47.5650  -61.9180    4.7060 C.2   128  ASP128      0.3671
     40  OD1      -46.4410  -61.4390    4.4420 O.co2 128  ASP128     -0.2456
     41  OD2      -48.3650  -61.3710    5.5000 O.co2 128  ASP128     -0.2456
     42  N        -42.4710  -64.9400   -1.1870 N.3   168  TYR168     -0.1241
     43  CA       -43.8100  -64.4890   -0.8550 C.3   168  TYR168      0.1605
     44  C        -44.3170  -63.6120   -1.9780 C.2   168  TYR168      0.2264
     45  O        -43.5310  -62.9300   -2.6340 O.2   168  TYR168     -0.2867
     46  CB       -43.8220  -63.6700    0.4410 C.3   168  TYR168      0.0534
     47  CG       -43.9790  -64.4180    1.7500 C.ar  168  TYR168     -0.0201
     48  CD1      -44.3920  -65.7380    1.7860 C.ar  168  TYR168     -0.0009
     49  CD2      -43.7790  -63.7600    2.9650 C.ar  168  TYR168     -0.0009
     50  CE1      -44.5610  -66.3990    2.9830 C.ar  168  TYR168      0.0417
     51  CE2      -43.9550  -64.4070    4.1710 C.ar  168  TYR168      0.0417
     52  CZ       -44.3440  -65.7290    4.1730 C.ar  168  TYR168      0.1957
     53  OH       -44.5120  -66.3770    5.3730 O.3   168  TYR168     -0.2866
     54  N        -47.2240  -60.5240   -2.8670 N.3   170  TYR170     -0.1241
     55  CA       -48.0320  -59.4730   -2.2830 C.3   170  TYR170      0.1605
     56  C        -48.8520  -58.8320   -3.3800 C.2   170  TYR170      0.2264
     57  O        -48.2930  -58.2260   -4.2910 O.2   170  TYR170     -0.2867
     58  CB       -47.1520  -58.4030   -1.6070 C.3   170  TYR170      0.0534
     59  CG       -46.3620  -58.9180   -0.4340 C.ar  170  TYR170     -0.0201
     60  CD1      -45.1930  -59.6500   -0.6260 C.ar  170  TYR170     -0.0009
     61  CD2      -46.7810  -58.6640    0.8720 C.ar  170  TYR170     -0.0009
     62  CE1      -44.4720  -60.1260    0.4510 C.ar  170  TYR170      0.0417
     63  CE2      -46.0610  -59.1410    1.9640 C.ar  170  TYR170      0.0417
     64  CZ       -44.9170  -59.8730    1.7400 C.ar  170  TYR170      0.1957
     65  OH       -44.2050  -60.3550    2.8070 O.3   170  TYR170     -0.2866
     66  N        -47.2160  -51.0060    4.1980 N.3   178  PHE178     -0.1241
     67  CA       -46.3190  -51.7930    5.0200 C.3   178  PHE178      0.1605
     68  C        -45.6890  -50.8250    6.0200 C.2   178  PHE178      0.2264
     69  O        -45.1440  -49.7700    5.6500 O.2   178  PHE178     -0.2867
     70  CB       -45.2820  -52.5780    4.1920 C.3   178  PHE178      0.0534
     71  CG       -44.5600  -51.7800    3.1350 C.ar  178  PHE178     -0.0203
     72  CD1      -45.1560  -51.5130    1.9080 C.ar  178  PHE178     -0.0042
     73  CD2      -43.2390  -51.3640    3.3390 C.ar  178  PHE178     -0.0042
     74  CE1      -44.4490  -50.8070    0.9200 C.ar  178  PHE178     -0.0003
     75  CE2      -42.5380  -50.6650    2.3580 C.ar  178  PHE178     -0.0003
     76  CZ       -43.1380  -50.3880    1.1540 C.ar  178  PHE178     -0.0000
     77  N        -40.2930  -50.9000    9.6520 N.3   181  HIS181     -0.1241
     78  CA       -39.6570  -52.1200   10.1560 C.3   181  HIS181      0.1621
     79  C        -38.3090  -52.3440    9.5160 C.2   181  HIS181      0.2264
     80  O        -38.0520  -51.8860    8.4000 O.2   181  HIS181     -0.2867
     81  CB       -40.5320  -53.3620    9.8710 C.3   181  HIS181      0.0745
     82  CG       -40.6620  -53.6720    8.4080 C.ar  181  HIS181      0.0817
     83  ND1      -41.6100  -53.0690    7.6070 N.ar  181  HIS181     -0.2268
     84  CD2      -39.9670  -54.5100    7.6010 C.ar  181  HIS181      0.1154
     85  CE1      -41.4900  -53.5170    6.3690 C.ar  181  HIS181      0.1986
     86  NE2      -40.5120  -54.4050    6.3390 N.ar  181  HIS181     -0.2212
     87  N        -36.0160  -55.9560    8.4330 N.3   183  GLU183     -0.1231
     88  CA       -36.2720  -57.3790    8.2150 C.3   183  GLU183      0.1699
     89  C        -35.9840  -58.1910    9.4910 C.2   183  GLU183      0.2592
     90  O        -35.2230  -57.7460   10.3570 O.2   183  GLU183     -0.2718
     91  CB       -35.4130  -57.8940    7.0530 C.3   183  GLU183      0.0402
     92  CG       -35.5810  -57.0760    5.7630 C.3   183  GLU183      0.1161
     93  CD       -37.0240  -56.9990    5.3140 C.2   183  GLU183      0.3649
     94  OE1      -37.6580  -58.0760    5.1520 O.co2 183  GLU183     -0.2457
     95  OE2      -37.5260  -55.8630    5.1170 O.co2 183  GLU183     -0.2457
     96  N        -36.6000  -59.3700    9.6070 N.am  184  ASP184     -0.1974
     97  CA       -36.2890  -60.2890   10.6930 C.3   184  ASP184      0.1709
     98  C        -34.7840  -60.5480   10.7050 C.2   184  ASP184      0.2293
     99  O        -34.1660  -60.6780    9.6460 O.2   184  ASP184     -0.2864
    100  CB       -37.0510  -61.6170   10.5390 C.3   184  ASP184      0.1436
    101  CG       -38.5570  -61.4390   10.5360 C.2   184  ASP184      0.3671
    102  OD1      -39.0650  -60.6230   11.3340 O.co2 184  ASP184     -0.2456
    103  OD2      -39.2300  -62.1260    9.7320 O.co2 184  ASP184     -0.2456
    104  N        -33.4240  -57.6850    2.2250 N.3   189  SER189     -0.1217
    105  CA       -34.5650  -58.2240    1.5030 C.3   189  SER189      0.1889
    106  C        -34.4600  -57.8180    0.0530 C.2   189  SER189      0.2288
    107  O        -33.7300  -56.8830   -0.2950 O.2   189  SER189     -0.2866
    108  CB       -35.8980  -57.7680    2.1020 C.3   189  SER189      0.2089
    109  OG       -36.0520  -56.3750    1.9770 O.3   189  SER189     -0.2183
    110  N        -37.1430  -57.2070   -3.3940 N.3   191  ASN191     -0.1240
    111  CA       -38.5590  -57.0650   -3.7130 C.3   191  ASN191      0.1653
    112  C        -38.7140  -56.7110   -5.1920 C.2   191  ASN191      0.2266
    113  O        -38.1960  -55.6860   -5.6440 O.2   191  ASN191     -0.2867
    114  CB       -39.2110  -56.0040   -2.8010 C.3   191  ASN191      0.1155
    115  CG       -40.6920  -55.7530   -3.1160 C.2   191  ASN191      0.2627
    116  OD1      -41.0450  -55.4090   -4.2430 O.2   191  ASN191     -0.2716
    117  ND2      -41.5610  -55.9000   -2.1050 N.am  191  ASN191     -0.0877
    118  N        -45.3050  -48.9220   -6.2730 N.3   199  LYS199     -0.1245
    119  CA       -45.1930  -49.0430   -4.8260 C.3   199  LYS199      0.1561
    120  C        -44.2050  -47.9770   -4.3390 C.2   199  LYS199      0.2260
    121  O        -43.0470  -47.9810   -4.7530 O.2   199  LYS199     -0.2867
    122  CB       -44.7200  -50.4600   -4.4510 C.3   199  LYS199      0.0271
    123  CG       -44.5300  -50.6940   -2.9510 C.3   199  LYS199      0.0035
    124  CD       -43.7270  -51.9710   -2.6770 C.3   199  LYS199      0.0206
    125  CE       -44.4010  -53.2110   -3.3040 C.3   199  LYS199      0.1093
    126  NZ       -45.7600  -53.4250   -2.7220 N.3   199  LYS199     -0.1314
    127  N        -41.8940  -46.1070   -1.4020 N.3   201  TRP201     -0.1241
    128  CA       -41.0810  -46.4890   -0.2600 C.3   201  TRP201      0.1605
    129  C        -40.5320  -45.2710    0.4990 C.2   201  TRP201      0.2264
    130  O        -40.1120  -44.3010   -0.1180 O.2   201  TRP201     -0.2867
    131  CB       -39.8920  -47.3360   -0.7170 C.3   201  TRP201      0.0550
    132  CG       -40.2040  -48.6630   -1.3890 C.ar  201  TRP201      0.0003
    133  CD1      -40.8170  -48.8650   -2.6080 C.ar  201  TRP201      0.0946
    134  CD2      -39.8530  -49.9640   -0.8980 C.ar  201  TRP201      0.0152
    135  NE1      -40.8790  -50.2100   -2.8880 N.ar  201  TRP201     -0.2442
    136  CE2      -40.2960  -50.9090   -1.8590 C.ar  201  TRP201      0.0810
    137  CE3      -39.2090  -50.4220    0.2640 C.ar  201  TRP201      0.0012
    138  CZ2      -40.1310  -52.2760   -1.6860 C.ar  201  TRP201      0.0191
    139  CZ3      -39.0470  -51.7900    0.4420 C.ar  201  TRP201      0.0001
    140  CH2      -39.5000  -52.7040   -0.5380 C.ar  201  TRP201      0.0015
    141  N        -43.4760  -55.8930   15.1330 N.3   233  HIS233     -0.1226
    142  CA       -44.8860  -56.2320   14.9530 C.3   233  HIS233      0.1752
    143  C        -45.4290  -55.6800   13.6200 C.2   233  HIS233      0.2595
    144  O        -46.4680  -56.1230   13.1430 O.2   233  HIS233     -0.2718
    145  CB       -45.7290  -55.6820   16.1080 C.3   233  HIS233      0.0759
    146  CG       -45.2750  -56.1230   17.4720 C.ar  233  HIS233      0.0818
    147  ND1      -45.7700  -55.5650   18.6290 N.ar  233  HIS233     -0.2268
    148  CD2      -44.3940  -57.0770   17.8620 C.ar  233  HIS233      0.1154
    149  CE1      -45.2100  -56.1480   19.6750 C.ar  233  HIS233      0.1986
    150  NE2      -44.3720  -57.0680   19.2370 N.ar  233  HIS233     -0.2212
    151  N        -44.7410  -54.6930   13.0480 N.am  234  LYS234     -0.1980
    152  CA       -45.1050  -54.1320   11.7360 C.3   234  LYS234      0.1596
    153  C        -46.5110  -53.5920   11.7590 C.2   234  LYS234      0.2287
    154  O        -47.3130  -53.8620   10.8760 O.2   234  LYS234     -0.2864
    155  CB       -44.9450  -55.1760   10.6250 C.3   234  LYS234      0.0298
    156  CG       -43.4820  -55.6520   10.5020 C.3   234  LYS234      0.0038
    157  CD       -43.3110  -56.8960    9.6440 C.3   234  LYS234      0.0206
    158  CE       -41.8870  -57.4830    9.7530 C.3   234  LYS234      0.1093
    159  NZ       -41.5980  -58.3420   10.9640 N.3   234  LYS234     -0.1314
    160  N        -33.4390  -53.9170    0.2180 N.3   263  THR263     -0.1218
    161  CA       -33.3010  -53.2730    1.5240 C.3   263  THR263      0.1862
    162  C        -32.0810  -53.8890    2.2130 C.2   263  THR263      0.2287
    163  O        -31.7480  -55.0470    1.9660 O.2   263  THR263     -0.2866
    164  CB       -34.5800  -53.4060    2.4180 C.3   263  THR263      0.1770
    165  OG1      -34.5620  -54.6420    3.1550 O.3   263  THR263     -0.2211
    166  CG2      -35.8590  -53.3200    1.5800 C.3   263  THR263      0.0375
    167  N        -37.7370  -49.2400    6.8170 N.3   269  HIS269     -0.1241
    168  CA       -38.5080  -48.7890    5.6470 C.3   269  HIS269      0.1621
    169  C        -39.9800  -48.9940    5.8440 C.2   269  HIS269      0.2264
    170  O        -40.3910  -49.7810    6.6810 O.2   269  HIS269     -0.2867
    171  CB       -38.0680  -49.5000    4.3630 C.3   269  HIS269      0.0745
    172  CG       -38.0530  -50.9850    4.4760 C.ar  269  HIS269      0.0817
    173  ND1      -37.0400  -51.6660    5.1180 N.ar  269  HIS269     -0.2268
    174  CD2      -38.9320  -51.9250    4.0500 C.ar  269  HIS269      0.1154
    175  CE1      -37.2790  -52.9650    5.0490 C.ar  269  HIS269      0.1986
    176  NE2      -38.4140  -53.1470    4.3950 N.ar  269  HIS269     -0.2212
    177  N        -41.1070  -61.1640   -2.9790 N.3   281  SER281     -0.1217
    178  CA       -39.9230  -60.8760   -2.1700 C.3   281  SER281      0.1889
    179  C        -39.4430  -62.0470   -1.3150 C.2   281  SER281      0.2288
    180  O        -40.1650  -63.0040   -1.0930 O.2   281  SER281     -0.2866
    181  CB       -40.1860  -59.6680   -1.2490 C.3   281  SER281      0.2089
    182  OG       -41.4190  -59.7850   -0.5980 O.3   281  SER281     -0.2183
    183  N        -35.9310  -62.8350    1.8760 N.3   283  ASN283     -0.1240
    184  CA       -34.7410  -62.3200    2.5250 C.3   283  ASN283      0.1653
    185  C        -33.4920  -62.9570    1.9690 C.2   283  ASN283      0.2266
    186  O        -33.5590  -63.9800    1.2940 O.2   283  ASN283     -0.2867
    187  CB       -34.8240  -62.5350    4.0360 C.3   283  ASN283      0.1155
    188  CG       -35.9710  -61.7940    4.6490 C.2   283  ASN283      0.2627
    189  OD1      -36.8900  -62.3870    5.2050 O.2   283  ASN283     -0.2716
    190  ND2      -35.9270  -60.4730    4.5530 N.am  283  ASN283     -0.0877
@<TRIPOS>BOND
     1   118   119    1
     2   113   112    2
     3   112   111    1
     4   119   122    1
     5   119   120    1
     6   121   120    2
     7   122   123    1
     8    57    56    2
     9   116   115    2
    10   111   110    1
    11   111   114    1
    12    56    55    1
    13   125   126    1
    14   125   124    1
    15   115   114    1
    16   115   117   am
    17   177   178    1
    18   123   124    1
    19   135   133   ar
    20   135   136   ar
    21    54    55    1
    22    45    44    2
    23   133   132   ar
    24    55    58    1
    25   178   179    1
    26   178   181    1
    27    44    43    1
    28   136   138   ar
    29   136   134   ar
    30   138   140   ar
    31    58    59    1
    32   127   128    1
    33   132   134   ar
    34   132   131    1
    35   179   180    2
    36   181   182    1
    37    42    43    1
    38   134   137   ar
    39    43    46    1
    40   131   128    1
    41    60    59   ar
    42    60    62   ar
    43   140   139   ar
    44    25    23   ar
    45    25    27   ar
    46    59    61   ar
    47   107   106    2
    48   128   129    1
    49    28    27    1
    50   130   129    2
    51   106   105    1
    52    23    22   ar
    53   160   161    1
    54   137   139   ar
    55    27    26   ar
    56    46    47    1
    57    62    64   ar
    58    61    63   ar
    59    74    76   ar
    60    74    72   ar
    61    19    18    1
    62    19    20    2
    63    18    17    1
    64    18    21    1
    65    76    75   ar
    66    29    30    1
    67   186   185    2
    68    22    21    1
    69    22    24   ar
    70   105   108    1
    71   105   104    1
    72   161   162    1
    73   161   164    1
    74   166   164    1
    75    30    31    1
    76    30    33    1
    77    26    24   ar
    78    64    63   ar
    79    64    65    1
    80    47    48   ar
    81    47    49   ar
    82    48    50   ar
    83    36    35    1
    84    36    37    2
    85   183   184    1
    86    72    71   ar
    87    34    31   am
    88    34    35    1
    89   163   162    2
    90   185   184    1
    91    31    32    2
    92   109   108    1
    93    75    73   ar
    94   164   165    1
    95    35    38    1
    96   184   187    1
    97    49    51   ar
    98    50    52   ar
    99    71    73   ar
   100    71    70    1
   101     1     2    1
   102    38    39    1
   103   187   188    1
   104   174   176   ar
   105   174   172   ar
   106     4     3    2
   107    51    52   ar
   108    52    53    1
   109    70    67    1
   110    66    67    1
   111   171   172    1
   112   171   168    1
   113   176   175   ar
   114    40    39   ar
   115   172   173   ar
   116   190   188   am
   117   188   189    2
   118    39    41   ar
   119     3     2    1
   120    67    68    1
   121   175   173   ar
   122    95    93   ar
   123    94    93   ar
   124     2     5    1
   125    93    92    1
   126     5     6    1
   127     5     7    1
   128   168   169    1
   129   168   167    1
   130    69    68    2
   131    92    91    1
   132   169   170    2
   133     6     8    1
   134    86    85   ar
   135    86    84   ar
   136    85    83   ar
   137    91    88    1
   138    84    82   ar
   139    83    82   ar
   140    88    87    1
   141    88    89    1
   142    80    79    2
   143    82    81    1
   144    15    14    2
   145    89    96   am
   146    89    90    2
   147    79    78    1
   148    14    16   am
   149    14    13    1
   150    96    97    1
   151   157   158    1
   152   157   156    1
   153    99    98    2
   154    77    78    1
   155   103   101   ar
   156   158   159    1
   157    81    78    1
   158    13    10    1
   159    10    11    1
   160    10     9    1
   161   156   155    1
   162   101   100    1
   163   101   102   ar
   164   100    97    1
   165   155   152    1
   166    97    98    1
   167    11    12    2
   168   154   153    2
   169   152   153    1
   170   152   151    1
   171   151   143   am
   172   144   143    2
   173   143   142    1
   174   142   141    1
   175   142   145    1
   176   145   146    1
   177   146   148   ar
   178   146   147   ar
   179   148   150   ar
   180   147   149   ar
   181   150   149   ar
