@<TRIPOS>MOLECULE
tmp/5a7qA00.pdb
 147 139 0 0 0
SMALL
GASTEIGER

@<TRIPOS>ATOM
      1  N         36.6190  -54.2600   -4.4370 N.3   130  TYR130     -0.1241
      2  CA        35.2740  -54.4550   -3.9200 C.3   130  TYR130      0.1605
      3  C         35.0860  -55.9220   -3.5780 C.2   130  TYR130      0.2264
      4  O         35.2520  -56.7810   -4.4420 O.2   130  TYR130     -0.2867
      5  CB        34.2310  -54.0000   -4.9530 C.3   130  TYR130      0.0534
      6  CG        32.8560  -53.6580   -4.4080 C.ar  130  TYR130     -0.0201
      7  CD1       32.6420  -53.4540   -3.0490 C.ar  130  TYR130     -0.0009
      8  CD2       31.7780  -53.4820   -5.2690 C.ar  130  TYR130     -0.0009
      9  CE1       31.3780  -53.1190   -2.5630 C.ar  130  TYR130      0.0417
     10  CE2       30.5170  -53.1420   -4.7930 C.ar  130  TYR130      0.0417
     11  CZ        30.3220  -52.9620   -3.4400 C.ar  130  TYR130      0.1957
     12  OH        29.0700  -52.6180   -2.9630 O.3   130  TYR130     -0.2866
     13  N         29.5680  -59.7470   -4.3020 N.3   133  ASP133     -0.1239
     14  CA        28.9220  -61.0250   -4.6260 C.3   133  ASP133      0.1674
     15  C         29.3790  -62.1690   -3.7240 C.2   133  ASP133      0.2266
     16  O         29.6440  -63.2750   -4.1970 O.2   133  ASP133     -0.2867
     17  CB        29.1750  -61.4080   -6.0860 C.3   133  ASP133      0.1410
     18  CG        28.7630  -60.3140   -7.0590 C.2   133  ASP133      0.3668
     19  OD1       28.0270  -59.3970   -6.6450 O.co2 133  ASP133     -0.2456
     20  OD2       29.1830  -60.3730   -8.2320 O.co2 133  ASP133     -0.2456
     21  N         28.2170  -57.6320    0.3160 N.3   175  TYR175     -0.1241
     22  CA        29.1340  -56.7170   -0.3580 C.3   175  TYR175      0.1605
     23  C         30.0070  -55.9900    0.6500 C.2   175  TYR175      0.2264
     24  O         29.5130  -55.1670    1.4210 O.2   175  TYR175     -0.2867
     25  CB        28.3750  -55.6760   -1.1870 C.3   175  TYR175      0.0534
     26  CG        27.5140  -56.2340   -2.2980 C.ar  175  TYR175     -0.0201
     27  CD1       26.2240  -56.6750   -2.0430 C.ar  175  TYR175     -0.0009
     28  CD2       27.9780  -56.2870   -3.6070 C.ar  175  TYR175     -0.0009
     29  CE1       25.4240  -57.1740   -3.0570 C.ar  175  TYR175      0.0417
     30  CE2       27.1830  -56.7850   -4.6280 C.ar  175  TYR175      0.0417
     31  CZ        25.9090  -57.2280   -4.3450 C.ar  175  TYR175      0.1957
     32  OH        25.1140  -57.7250   -5.3520 O.3   175  TYR175     -0.2866
     33  N         28.7920  -49.1640   -7.8450 N.3   183  PHE183     -0.1241
     34  CA        27.8800  -50.0240   -8.5860 C.3   183  PHE183      0.1605
     35  C         27.2920  -49.1840   -9.7160 C.2   183  PHE183      0.2264
     36  O         26.7490  -48.1040   -9.4910 O.2   183  PHE183     -0.2867
     37  CB        26.7920  -50.6630   -7.6920 C.3   183  PHE183      0.0534
     38  CG        26.0640  -49.6990   -6.7740 C.ar  183  PHE183     -0.0203
     39  CD1       26.6230  -49.3060   -5.5700 C.ar  183  PHE183     -0.0042
     40  CD2       24.7880  -49.2500   -7.0860 C.ar  183  PHE183     -0.0042
     41  CE1       25.9470  -48.4410   -4.7120 C.ar  183  PHE183     -0.0003
     42  CE2       24.1020  -48.3920   -6.2340 C.ar  183  PHE183     -0.0003
     43  CZ        24.6880  -47.9860   -5.0420 C.ar  183  PHE183     -0.0000
     44  N         21.9730  -49.4340  -13.3860 N.3   186  HIS186     -0.1241
     45  CA        21.2560  -50.6480  -13.7530 C.3   186  HIS186      0.1621
     46  C         19.8720  -50.7210  -13.1360 C.2   186  HIS186      0.2264
     47  O         19.5830  -50.0800  -12.1190 O.2   186  HIS186     -0.2867
     48  CB        22.0490  -51.8830  -13.3210 C.3   186  HIS186      0.0745
     49  CG        22.1000  -52.0690  -11.8350 C.ar  186  HIS186      0.0817
     50  ND1       22.8720  -51.2780  -11.0110 N.ar  186  HIS186     -0.2268
     51  CD2       21.4490  -52.9380  -11.0220 C.ar  186  HIS186      0.1154
     52  CE1       22.7080  -51.6620   -9.7560 C.ar  186  HIS186      0.1986
     53  NE2       21.8520  -52.6690   -9.7360 N.ar  186  HIS186     -0.2212
     54  N         17.3420  -54.0890  -11.8420 N.3   188  GLU188     -0.1231
     55  CA        17.6150  -55.4440  -11.3850 C.3   188  GLU188      0.1699
     56  C         17.3660  -56.4450  -12.5100 C.2   188  GLU188      0.2592
     57  O         16.6760  -56.1260  -13.4830 O.2   188  GLU188     -0.2718
     58  CB        16.7500  -55.7740  -10.1680 C.3   188  GLU188      0.0402
     59  CG        16.9540  -54.8100   -9.0050 C.3   188  GLU188      0.1161
     60  CD        18.3990  -54.7770   -8.5300 C.2   188  GLU188      0.3649
     61  OE1       18.9520  -55.8590   -8.2350 O.co2 188  GLU188     -0.2457
     62  OE2       18.9780  -53.6760   -8.4540 O.co2 188  GLU188     -0.2457
     63  N         17.9380  -57.6440  -12.3880 N.am  189  ASP189     -0.1974
     64  CA        17.6220  -58.7230  -13.3210 C.3   189  ASP189      0.1709
     65  C         16.1120  -58.9180  -13.3960 C.2   189  ASP189      0.2293
     66  O         15.4260  -58.8910  -12.3720 O.2   189  ASP189     -0.2864
     67  CB        18.3050  -60.0270  -12.9040 C.3   189  ASP189      0.1436
     68  CG        19.8140  -59.9800  -13.0800 C.2   189  ASP189      0.3671
     69  OD1       20.2860  -59.3530  -14.0480 O.co2 189  ASP189     -0.2456
     70  OD2       20.5270  -60.5580  -12.2370 O.co2 189  ASP189     -0.2456
     71  N         14.6710  -54.9280   -5.4100 N.3   194  SER194     -0.1217
     72  CA        15.7740  -55.4010   -4.5900 C.3   194  SER194      0.1889
     73  C         15.6740  -54.7940   -3.1970 C.2   194  SER194      0.2288
     74  O         15.0260  -53.7680   -3.0000 O.2   194  SER194     -0.2866
     75  CB        17.1290  -55.0720   -5.2270 C.3   194  SER194      0.2089
     76  OG        17.3460  -53.6750   -5.2980 O.3   194  SER194     -0.2183
     77  N         18.3010  -53.8110    0.1240 N.3   196  ASN196     -0.1240
     78  CA        19.7040  -53.6580    0.4900 C.3   196  ASN196      0.1653
     79  C         19.8330  -53.1920    1.9300 C.2   196  ASN196      0.2266
     80  O         19.2990  -52.1490    2.2930 O.2   196  ASN196     -0.2867
     81  CB        20.4050  -52.6680   -0.4510 C.3   196  ASN196      0.1155
     82  CG        21.9060  -52.5610   -0.1860 C.2   196  ASN196      0.2627
     83  OD1       22.3310  -52.0590    0.8590 O.2   196  ASN196     -0.2716
     84  ND2       22.7150  -53.0090   -1.1470 N.am  196  ASN196     -0.0877
     85  N         26.7320  -45.6250    2.1400 N.3   204  LYS204     -0.1245
     86  CA        26.6420  -45.9340    0.7190 C.3   204  LYS204      0.1561
     87  C         25.7120  -44.9080    0.0820 C.2   204  LYS204      0.2260
     88  O         24.5910  -44.7160    0.5520 O.2   204  LYS204     -0.2867
     89  CB        26.1250  -47.3620    0.5000 C.3   204  LYS204      0.0271
     90  CG        26.0260  -47.7940   -0.9650 C.3   204  LYS204      0.0035
     91  CD        25.2180  -49.0880   -1.1200 C.3   204  LYS204      0.0206
     92  CE        25.7840  -50.2240   -0.2680 C.3   204  LYS204      0.1093
     93  NZ        27.0760  -50.7490   -0.7920 N.3   204  LYS204     -0.1314
     94  N         23.5080  -43.2880   -3.1600 N.3   206  TRP206     -0.1241
     95  CA        22.7240  -43.7980   -4.2790 C.3   206  TRP206      0.1605
     96  C         22.2650  -42.6840   -5.2020 C.2   206  TRP206      0.2264
     97  O         21.9730  -41.5810   -4.7470 O.2   206  TRP206     -0.2867
     98  CB        21.4870  -44.5440   -3.7750 C.3   206  TRP206      0.0550
     99  CG        21.7460  -45.7390   -2.9230 C.ar  206  TRP206      0.0003
    100  CD1       22.3160  -45.7610   -1.6820 C.ar  206  TRP206      0.0946
    101  CD2       21.4060  -47.0940   -3.2340 C.ar  206  TRP206      0.0152
    102  NE1       22.3700  -47.0520   -1.2090 N.ar  206  TRP206     -0.2442
    103  CE2       21.8140  -47.8880   -2.1430 C.ar  206  TRP206      0.0810
    104  CE3       20.8050  -47.7160   -4.3360 C.ar  206  TRP206      0.0012
    105  CZ2       21.6400  -49.2690   -2.1200 C.ar  206  TRP206      0.0191
    106  CZ3       20.6290  -49.0870   -4.3110 C.ar  206  TRP206      0.0001
    107  CH2       21.0470  -49.8500   -3.2110 C.ar  206  TRP206      0.0015
    108  N         26.2330  -53.8740  -16.2200 N.3   239  LYS239     -0.1245
    109  CA        26.5870  -53.1180  -15.0200 C.3   239  LYS239      0.1561
    110  C         28.0250  -52.6300  -15.0490 C.2   239  LYS239      0.2260
    111  O         28.7510  -52.7340  -14.0570 O.2   239  LYS239     -0.2867
    112  CB        26.3300  -53.9670  -13.7740 C.3   239  LYS239      0.0271
    113  CG        24.8940  -54.4620  -13.6980 C.3   239  LYS239      0.0035
    114  CD        24.7130  -55.4690  -12.5870 C.3   239  LYS239      0.0206
    115  CE        23.8640  -56.6530  -13.0330 C.3   239  LYS239      0.1093
    116  NZ        22.4510  -56.2800  -13.2860 N.3   239  LYS239     -0.1314
    117  N         14.7970  -50.9590   -3.9690 N.3   268  THR268     -0.1218
    118  CA        14.6670  -50.5070   -5.3540 C.3   268  THR268      0.1862
    119  C         13.4500  -51.1730   -5.9720 C.2   268  THR268      0.2287
    120  O         13.1270  -52.3200   -5.6540 O.2   268  THR268     -0.2866
    121  CB        15.9080  -50.8050   -6.2150 C.3   268  THR268      0.1770
    122  OG1       15.8880  -52.1680   -6.6540 O.3   268  THR268     -0.2211
    123  CG2       17.1960  -50.5200   -5.4420 C.3   268  THR268      0.0375
    124  N         19.4260  -47.3470  -10.9260 N.3   274  HIS274     -0.1241
    125  CA        20.2010  -46.7750   -9.8390 C.3   274  HIS274      0.1621
    126  C         21.6880  -47.0480   -9.9990 C.2   274  HIS274      0.2264
    127  O         22.0980  -47.9550  -10.7250 O.2   274  HIS274     -0.2867
    128  CB        19.7080  -47.3060   -8.4860 C.3   274  HIS274      0.0745
    129  CG        19.5750  -48.7940   -8.4330 C.ar  274  HIS274      0.0817
    130  ND1       18.4840  -49.4620   -8.9490 N.ar  274  HIS274     -0.2268
    131  CD2       20.3900  -49.7470   -7.9210 C.ar  274  HIS274      0.1154
    132  CE1       18.6340  -50.7600   -8.7590 C.ar  274  HIS274      0.1986
    133  NE2       19.7850  -50.9610   -8.1400 N.ar  274  HIS274     -0.2212
    134  N         22.1760  -58.0160    0.3240 N.3   286  SER286     -0.1217
    135  CA        21.0800  -57.7570   -0.5960 C.3   286  SER286      0.1889
    136  C         20.5690  -59.0020   -1.3090 C.2   286  SER286      0.2288
    137  O         21.2540  -60.0220   -1.3900 O.2   286  SER286     -0.2866
    138  CB        21.5010  -56.7160   -1.6340 C.3   286  SER286      0.2089
    139  OG        22.3200  -57.2960   -2.6250 O.3   286  SER286     -0.2183
    140  N         17.0270  -59.9840   -4.3910 N.3   288  ASN288     -0.1240
    141  CA        15.8680  -59.4660   -5.1120 C.3   288  ASN288      0.1653
    142  C         14.5830  -60.0290   -4.5310 C.2   288  ASN288      0.2266
    143  O         14.6130  -61.0160   -3.7970 O.2   288  ASN288     -0.2867
    144  CB        15.9570  -59.8020   -6.6010 C.3   288  ASN288      0.1155
    145  CG        17.1020  -59.0960   -7.2910 C.2   288  ASN288      0.2627
    146  OD1       17.9950  -59.7380   -7.8400 O.2   288  ASN288     -0.2716
    147  ND2       17.0870  -57.7690   -7.2620 N.am  288  ASN288     -0.0877
@<TRIPOS>BOND
     1   108   109    1
     2   110   109    1
     3   110   111    2
     4   109   112    1
     5    69    68   ar
     6   112   113    1
     7    45    44    1
     8    45    48    1
     9    45    46    1
    10   113   114    1
    11    57    56    2
    12    65    64    1
    13    65    66    2
    14    48    49    1
    15    64    67    1
    16    64    63    1
    17   116   115    1
    18    46    47    2
    19    68    67    1
    20    68    70   ar
    21   115   114    1
    22    56    63   am
    23    56    55    1
    24    54    55    1
    25    49    51   ar
    26    49    50   ar
    27    55    58    1
    28    51    53   ar
    29    50    52   ar
    30   124   125    1
    31   127   126    2
    32    58    59    1
    33   126   125    1
    34   125   128    1
    35    52    53   ar
    36    35    36    2
    37    35    34    1
    38    59    60    1
    39   130   132   ar
    40   130   129   ar
    41   132   133   ar
    42    34    33    1
    43    34    37    1
    44    60    62   ar
    45    60    61   ar
    46   128   129    1
    47   129   131   ar
    48    20    18   ar
    49   133   131   ar
    50   146   145    2
    51    37    38    1
    52   145   147   am
    53   145   144    1
    54    40    38   ar
    55    40    42   ar
    56    18    19   ar
    57    18    17    1
    58    38    39   ar
    59   122   121    1
    60   144   141    1
    61    42    43   ar
    62   121   123    1
    63   121   118    1
    64    17    14    1
    65   119   120    2
    66   119   118    1
    67    39    41   ar
    68    71    72    1
    69   118   117    1
    70    32    31    1
    71    76    75    1
    72     8    10   ar
    73     8     6   ar
    74    75    72    1
    75    96    97    2
    76    96    95    1
    77   141   142    1
    78   141   140    1
    79    43    41   ar
    80     5     6    1
    81     5     2    1
    82    10    11   ar
    83    30    31   ar
    84    30    28   ar
    85    14    13    1
    86    14    15    1
    87    72    73    1
    88   142   143    2
    89     4     3    2
    90     1     2    1
    91     6     7   ar
    92    31    29   ar
    93   104   106   ar
    94   104   101   ar
    95   106   107   ar
    96    95    98    1
    97    95    94    1
    98    16    15    2
    99     2     3    1
   100    98    99    1
   101    28    26   ar
   102    11    12    1
   103    11     9   ar
   104   101    99   ar
   105   101   103   ar
   106   107   105   ar
   107    73    74    2
   108    29    27   ar
   109     7     9   ar
   110    99   100   ar
   111   139   138    1
   112    26    27   ar
   113    26    25    1
   114   103   105   ar
   115   103   102   ar
   116   100   102   ar
   117   138   135    1
   118   137   136    2
   119   136   135    1
   120    25    22    1
   121    84    82   am
   122    91    90    1
   123    91    92    1
   124    90    89    1
   125    93    92    1
   126   135   134    1
   127    81    82    1
   128    81    78    1
   129    22    21    1
   130    22    23    1
   131    82    83    2
   132    87    88    2
   133    87    86    1
   134    77    78    1
   135    78    79    1
   136    89    86    1
   137    23    24    2
   138    86    85    1
   139    79    80    2
