@<TRIPOS>MOLECULE
tmp/5a7rA01.pdb
 93 88 0 0 0
SMALL
GASTEIGER

@<TRIPOS>ATOM
      1  N         25.2070    2.5930   11.6370 N.3   283  ASN283     -0.1240
      2  CA        25.9320    3.1750   12.7570 C.3   283  ASN283      0.1653
      3  C         25.0600    3.0170   14.0220 C.2   283  ASN283      0.2266
      4  O         23.8030    3.0190   13.9400 O.2   283  ASN283     -0.2867
      5  CB        26.2450    4.6590   12.4940 C.3   283  ASN283      0.1155
      6  CG        27.3070    5.2400   13.4950 C.2   283  ASN283      0.2627
      7  OD1       26.9720    5.7160   14.5880 O.2   283  ASN283     -0.2716
      8  ND2       28.5630    5.1840   13.1070 N.am  283  ASN283     -0.0877
      9  N         23.7930    7.0910   10.5510 N.3   288  GLY288     -0.1210
     10  CA        25.1930    7.5300   10.4770 C.3   288  GLY288      0.1956
     11  C         25.3710    8.8940    9.8550 C.2   288  GLY288      0.2612
     12  O         24.6950    9.8420   10.2330 O.2   288  GLY288     -0.2717
     13  N         26.2200    8.9860    8.8360 N.am  289  GLY289     -0.1956
     14  CA        26.4590   10.2830    8.1680 C.3   289  GLY289      0.1869
     15  C         25.4810   10.6810    7.0290 C.2   289  GLY289      0.2309
     16  O         25.8560   11.4410    6.1430 O.2   289  GLY289     -0.2863
     17  N         25.2650   14.3000    6.4870 N.3   292  SER292     -0.1202
     18  CA        26.5840   14.9330    6.3340 C.3   292  SER292      0.2020
     19  C         27.3410   14.3840    5.1020 C.2   292  SER292      0.2619
     20  O         26.8520   14.5320    3.9990 O.2   292  SER292     -0.2717
     21  CB        27.4020   14.8880    7.6770 C.3   292  SER292      0.2103
     22  OG        27.4740   13.5550    8.2440 O.3   292  SER292     -0.2182
     23  N         28.4820   13.7280    5.2760 N.am  293  ALA293     -0.1965
     24  CA        29.2790   13.1880    4.1650 C.3   293  ALA293      0.1728
     25  C         29.1250   11.6370    3.8850 C.2   293  ALA293      0.2617
     26  O         29.8570   11.0640    3.0780 O.2   293  ALA293     -0.2715
     27  CB        30.7470   13.5020    4.3930 C.3   293  ALA293      0.0334
     28  N         28.2780   10.9460    4.6080 N.am  294  GLY294     -0.1940
     29  CA        28.2200    9.4820    4.4210 C.3   294  GLY294      0.2014
     30  C         27.4670    9.1180    3.1440 C.2   294  GLY294      0.2639
     31  O         26.4830    9.7730    2.7590 O.2   294  GLY294     -0.2714
     32  N         27.9530    8.1060    2.4530 N.am  295  LEU295     -0.1963
     33  CA        27.3610    7.6990    1.2000 C.3   295  LEU295      0.1728
     34  C         27.7570    6.2450    0.8390 C.2   295  LEU295      0.2616
     35  O         28.0240    5.9360   -0.3470 O.2   295  LEU295     -0.2715
     36  CB        27.7730    8.6870    0.0960 C.3   295  LEU295      0.0311
     37  CG        26.8970    8.8390   -1.1490 C.3   295  LEU295      0.0022
     38  CD1       25.4230    9.0250   -0.8260 C.3   295  LEU295      0.0001
     39  CD2       27.4320    9.9800   -1.9910 C.3   295  LEU295      0.0001
     40  N         27.7660    5.3710    1.8500 N.am  296  VAL296     -0.1977
     41  CA        27.8380    3.9110    1.6420 C.3   296  VAL296      0.1596
     42  C         26.4910    3.3020    1.9890 C.2   296  VAL296      0.2287
     43  O         25.4870    3.9680    1.8280 O.2   296  VAL296     -0.2864
     44  CB        29.0490    3.2970    2.3830 C.3   296  VAL296      0.0276
     45  CG1       30.3230    3.7530    1.7130 C.3   296  VAL296      0.0022
     46  CG2       29.0630    3.6580    3.8530 C.3   296  VAL296      0.0022
     47  N         24.1770    2.1960    4.2770 N.3   298  GLU298     -0.1231
     48  CA        23.0720    2.7500    5.0760 C.3   298  GLU298      0.1699
     49  C         22.6760    4.1530    4.6060 C.2   298  GLU298      0.2592
     50  O         21.5110    4.5120    4.6520 O.2   298  GLU298     -0.2718
     51  CB        23.4590    2.8260    6.5680 C.3   298  GLU298      0.0402
     52  CG        22.5170    3.7130    7.3910 C.3   298  GLU298      0.1161
     53  CD        22.7520    3.6030    8.8920 C.2   298  GLU298      0.3649
     54  OE1       23.8180    4.0530    9.3800 O.co2 298  GLU298     -0.2457
     55  OE2       21.8000    3.1640    9.5920 O.co2 298  GLU298     -0.2457
     56  N         23.6820    4.9600    4.2720 N.am  299  ASN299     -0.1974
     57  CA        23.4720    6.3550    3.9960 C.3   299  ASN299      0.1688
     58  C         22.6950    6.4590    2.6560 C.2   299  ASN299      0.2292
     59  O         21.7650    7.2440    2.5220 O.2   299  ASN299     -0.2864
     60  CB        24.8200    7.0970    3.9340 C.3   299  ASN299      0.1181
     61  CG        25.7830    6.6170    4.9650 C.2   299  ASN299      0.2629
     62  OD1       26.7980    5.9910    4.6290 O.2   299  ASN299     -0.2716
     63  ND2       25.4200    6.7820    6.2580 N.am  299  ASN299     -0.0877
     64  N         29.3260    5.3790   -3.0740 N.3   339  ALA339     -0.1231
     65  CA        30.2900    6.2300   -2.4090 C.3   339  ALA339      0.1694
     66  C         30.7440    7.3920   -3.3070 C.2   339  ALA339      0.2591
     67  O         29.9170    8.1780   -3.7610 O.2   339  ALA339     -0.2718
     68  CB        31.4720    5.3950   -1.9130 C.3   339  ALA339      0.0304
     69  N         32.0320    7.4930   -3.6340 N.am  340  GLU340     -0.1979
     70  CA        32.5050    8.6310   -4.4480 C.3   340  GLU340      0.1602
     71  C         32.0340    8.6410   -5.9270 C.2   340  GLU340      0.2287
     72  O         32.1520    9.6420   -6.5640 O.2   340  GLU340     -0.2864
     73  CB        34.0600    8.7200   -4.3990 C.3   340  GLU340      0.0415
     74  CG        34.7240    7.6050   -5.1880 C.3   340  GLU340      0.1163
     75  CD        34.8390    6.2800   -4.4320 C.2   340  GLU340      0.3649
     76  OE1       34.4280    6.1710   -3.2250 O.co2 340  GLU340     -0.2457
     77  OE2       35.4160    5.3520   -5.0390 O.co2 340  GLU340     -0.2457
     78  N         33.2120    0.1020    5.4810 N.3   417  ALA417     -0.1231
     79  CA        33.6670    1.1410    6.3610 C.3   417  ALA417      0.1694
     80  C         34.1110    0.6450    7.7310 C.2   417  ALA417      0.2592
     81  O         35.0170    1.2610    8.3550 O.2   417  ALA417     -0.2718
     82  CB        32.5930    2.2070    6.5300 C.3   417  ALA417      0.0304
     83  N         33.5150   -0.4390    8.2200 N.am  418  PHE418     -0.1976
     84  CA        33.7940   -0.9110    9.5920 C.3   418  PHE418      0.1639
     85  C         34.8880   -1.9690    9.6960 C.2   418  PHE418      0.2290
     86  O         35.1960   -2.4050   10.7860 O.2   418  PHE418     -0.2864
     87  CB        32.5280   -1.3570   10.2900 C.3   418  PHE418      0.0560
     88  CG        31.7910   -0.2400   10.9910 C.ar  418  PHE418     -0.0200
     89  CD1       32.1090    1.0850   10.7720 C.ar  418  PHE418     -0.0042
     90  CD2       30.6990   -0.5300   11.7490 C.ar  418  PHE418     -0.0042
     91  CE1       31.4250    2.1050   11.4440 C.ar  418  PHE418     -0.0003
     92  CE2       29.9870    0.4660   12.3710 C.ar  418  PHE418     -0.0003
     93  CZ        30.3750    1.8010   12.2040 C.ar  418  PHE418     -0.0000
@<TRIPOS>BOND
     1    72    71    2
     2    71    70    1
     3    74    75    1
     4    74    73    1
     5    77    75   ar
     6    70    73    1
     7    70    69    1
     8    75    76   ar
     9    67    66    2
    10    69    66   am
    11    66    65    1
    12    64    65    1
    13    65    68    1
    14    39    37    1
    15    37    38    1
    16    37    36    1
    17    35    34    2
    18    36    33    1
    19    34    33    1
    20    34    40   am
    21    33    32    1
    22    41    40    1
    23    41    42    1
    24    41    44    1
    25    45    44    1
    26    43    42    2
    27    44    46    1
    28    32    30   am
    29    59    58    2
    30    58    57    1
    31    31    30    2
    32    26    25    2
    33    30    29    1
    34    25    24    1
    35    25    28   am
    36    60    57    1
    37    60    61    1
    38    57    56    1
    39    20    19    2
    40    24    27    1
    41    24    23    1
    42    56    49   am
    43    47    48    1
    44    29    28    1
    45    49    50    2
    46    49    48    1
    47    62    61    2
    48    61    63   am
    49    48    51    1
    50    19    23   am
    51    19    18    1
    52    78    79    1
    53    16    15    2
    54    18    17    1
    55    18    21    1
    56    79    82    1
    57    79    80    1
    58    51    52    1
    59    15    14    1
    60    52    53    1
    61    21    22    1
    62    80    83   am
    63    80    81    2
    64    14    13    1
    65    83    84    1
    66    13    11   am
    67    53    54   ar
    68    53    55   ar
    69    84    85    1
    70    84    87    1
    71    85    86    2
    72    11    12    2
    73    11    10    1
    74    87    88    1
    75    10     9    1
    76    89    88   ar
    77    89    91   ar
    78    88    90   ar
    79    91    93   ar
    80     1     2    1
    81    90    92   ar
    82    93    92   ar
    83     5     2    1
    84     5     6    1
    85     2     3    1
    86     8     6   am
    87     6     7    2
    88     4     3    2
