@<TRIPOS>MOLECULE
tmp/5a7sB00.pdb
 177 169 0 0 0
SMALL
GASTEIGER

@<TRIPOS>ATOM
      1  N        -14.3580  136.6610   55.0850 N.3    83  ASN83      -0.1240
      2  CA       -15.5770  136.8060   55.8660 C.3    83  ASN83       0.1653
      3  C        -15.4890  137.9570   56.8630 C.2    83  ASN83       0.2266
      4  O        -14.6450  137.9570   57.7490 O.2    83  ASN83      -0.2867
      5  CB       -15.8890  135.5070   56.5950 C.3    83  ASN83       0.1155
      6  CG       -16.5510  134.4990   55.7100 C.2    83  ASN83       0.2627
      7  OD1      -17.0260  134.8220   54.6240 O.2    83  ASN83      -0.2716
      8  ND2      -16.6360  133.2650   56.1870 N.am   83  ASN83      -0.0877
      9  N        -24.2980  136.9660   54.5020 N.3   129  TYR129     -0.1241
     10  CA       -24.7990  135.6170   54.6640 C.3   129  TYR129      0.1605
     11  C        -25.0800  135.4450   56.1430 C.2   129  TYR129      0.2264
     12  O        -24.2070  135.6910   56.9760 O.2   129  TYR129     -0.2867
     13  CB       -23.7830  134.5910   54.1110 C.3   129  TYR129      0.0534
     14  CG       -24.3020  133.1850   53.8050 C.ar  129  TYR129     -0.0201
     15  CD1      -25.6590  132.9180   53.7300 C.ar  129  TYR129     -0.0009
     16  CD2      -23.4300  132.1760   53.4020 C.ar  129  TYR129     -0.0009
     17  CE1      -26.1390  131.6490   53.4010 C.ar  129  TYR129      0.0417
     18  CE2      -23.9060  130.8900   53.0430 C.ar  129  TYR129      0.0417
     19  CZ       -25.2590  130.6430   53.0450 C.ar  129  TYR129      0.1957
     20  OH       -25.8180  129.4170   52.6990 O.3   129  TYR129     -0.2866
     21  N        -24.4240  129.9120   60.0080 N.3   132  ASP132     -0.1239
     22  CA       -24.0540  129.3350   61.3060 C.3   132  ASP132      0.1674
     23  C        -24.9660  129.8080   62.4250 C.2   132  ASP132      0.2266
     24  O        -24.5110  130.1130   63.5180 O.2   132  ASP132     -0.2867
     25  CB       -22.6080  129.6690   61.6680 C.3   132  ASP132      0.1410
     26  CG       -21.6040  129.1820   60.6230 C.2   132  ASP132      0.3668
     27  OD1      -21.9790  128.3810   59.7510 O.co2 132  ASP132     -0.2456
     28  OD2      -20.4300  129.6000   60.6780 O.co2 132  ASP132     -0.2456
     29  N        -27.5720  123.7960   62.1000 N.3   172  TYR172     -0.1241
     30  CA       -27.2300  125.1590   61.7390 C.3   172  TYR172      0.1605
     31  C        -28.2930  125.6550   60.7770 C.2   172  TYR172      0.2264
     32  O        -28.7750  124.9030   59.9130 O.2   172  TYR172     -0.2867
     33  CB       -25.8320  125.2280   61.0890 C.3   172  TYR172      0.0534
     34  CG       -24.6680  125.6620   61.9700 C.ar  172  TYR172     -0.0201
     35  CD1      -24.8630  126.0610   63.2920 C.ar  172  TYR172     -0.0009
     36  CD2      -23.3600  125.6390   61.4790 C.ar  172  TYR172     -0.0009
     37  CE1      -23.7810  126.4630   64.0860 C.ar  172  TYR172      0.0417
     38  CE2      -22.2710  126.0200   62.2690 C.ar  172  TYR172      0.0417
     39  CZ       -22.4900  126.4300   63.5670 C.ar  172  TYR172      0.1957
     40  OH       -21.4360  126.8150   64.3730 O.3   172  TYR172     -0.2866
     41  N        -29.0000  128.6230   57.8720 N.3   174  TYR174     -0.1241
     42  CA       -28.3260  129.5450   56.9710 C.3   174  TYR174      0.1605
     43  C        -29.3600  130.3910   56.2550 C.2   174  TYR174      0.2264
     44  O        -30.1310  129.8730   55.4440 O.2   174  TYR174     -0.2867
     45  CB       -27.4730  128.8060   55.9170 C.3   174  TYR174      0.0534
     46  CG       -26.3280  127.9740   56.4620 C.ar  174  TYR174     -0.0201
     47  CD1      -26.5490  126.7100   56.9870 C.ar  174  TYR174     -0.0009
     48  CD2      -25.0220  128.4440   56.4190 C.ar  174  TYR174     -0.0009
     49  CE1      -25.5020  125.9400   57.4770 C.ar  174  TYR174      0.0417
     50  CE2      -23.9720  127.6850   56.9060 C.ar  174  TYR174      0.0417
     51  CZ       -24.2200  126.4310   57.4340 C.ar  174  TYR174      0.1957
     52  OH       -23.1800  125.6740   57.9160 O.3   174  TYR174     -0.2866
     53  N        -20.9410  129.2850   49.3000 N.3   182  PHE182     -0.1241
     54  CA       -20.1320  128.4010   50.1310 C.3   182  PHE182      0.1605
     55  C        -18.9760  127.8670   49.2700 C.2   182  PHE182      0.2264
     56  O        -19.1740  127.3880   48.1490 O.2   182  PHE182     -0.2867
     57  CB       -20.9640  127.2740   50.7970 C.3   182  PHE182      0.0534
     58  CG       -21.9290  126.5300   49.8760 C.ar  182  PHE182     -0.0203
     59  CD1      -23.1500  127.0800   49.5270 C.ar  182  PHE182     -0.0042
     60  CD2      -21.6350  125.2410   49.4360 C.ar  182  PHE182     -0.0042
     61  CE1      -24.0640  126.3740   48.7080 C.ar  182  PHE182     -0.0003
     62  CE2      -22.5180  124.5380   48.6260 C.ar  182  PHE182     -0.0003
     63  CZ       -23.7470  125.1060   48.2560 C.ar  182  PHE182     -0.0000
     64  N        -15.3150  122.6320   49.6730 N.3   185  HIS185     -0.1241
     65  CA       -14.9560  121.9440   50.9000 C.3   185  HIS185      0.1621
     66  C        -15.5680  120.5450   50.9520 C.2   185  HIS185      0.2264
     67  O        -16.5640  120.2580   50.2720 O.2   185  HIS185     -0.2867
     68  CB       -15.4310  122.7390   52.1280 C.3   185  HIS185      0.0745
     69  CG       -16.9200  122.7050   52.3140 C.ar  185  HIS185      0.0817
     70  ND1      -17.7880  123.4400   51.5300 N.ar  185  HIS185     -0.2268
     71  CD2      -17.6970  122.0000   53.1770 C.ar  185  HIS185      0.1154
     72  CE1      -19.0320  123.2020   51.9120 C.ar  185  HIS185      0.1986
     73  NE2      -19.0060  122.3330   52.9110 N.ar  185  HIS185     -0.2212
     74  N        -16.8900  117.9790   54.3230 N.3   187  GLU187     -0.1231
     75  CA       -17.3310  118.2380   55.6940 C.3   187  GLU187      0.1699
     76  C        -16.1840  118.0280   56.6950 C.2   187  GLU187      0.2592
     77  O        -15.1780  117.3930   56.3700 O.2   187  GLU187     -0.2718
     78  CB       -18.5100  117.3280   56.0380 C.3   187  GLU187      0.0402
     79  CG       -19.6450  117.4910   55.0920 C.3   187  GLU187      0.1161
     80  CD       -20.1300  118.9310   55.0510 C.2   187  GLU187      0.3649
     81  OE1      -20.4340  119.4820   56.1300 O.co2 187  GLU187     -0.2457
     82  OE2      -20.1930  119.5030   53.9450 O.co2 187  GLU187     -0.2457
     83  N        -16.3280  118.5530   57.9080 N.am  188  ASP188     -0.1974
     84  CA       -15.3780  118.2330   58.9740 C.3   188  ASP188      0.1709
     85  C        -15.2180  116.7170   59.1540 C.2   188  ASP188      0.2293
     86  O        -16.2110  115.9820   59.1340 O.2   188  ASP188     -0.2864
     87  CB       -15.8350  118.8620   60.2820 C.3   188  ASP188      0.1436
     88  CG       -15.7410  120.3840   60.2590 C.2   188  ASP188      0.3671
     89  OD1      -14.7060  120.9070   59.8040 O.co2 188  ASP188     -0.2456
     90  OD2      -16.7090  121.0510   60.6780 O.co2 188  ASP188     -0.2456
     91  N        -23.1780  115.2700   55.1270 N.3   193  SER193     -0.1217
     92  CA       -24.0320  116.3450   55.5940 C.3   193  SER193      0.1889
     93  C        -25.4090  116.2010   54.9570 C.2   193  SER193      0.2288
     94  O        -25.5780  115.5290   53.9300 O.2   193  SER193     -0.2866
     95  CB       -23.4320  117.7140   55.2870 C.3   193  SER193      0.2089
     96  OG       -23.2740  117.8920   53.8940 O.3   193  SER193     -0.2183
     97  N        -28.7370  118.8670   53.9940 N.3   195  ASN195     -0.1240
     98  CA       -29.1220  120.2750   53.8570 C.3   195  ASN195      0.1653
     99  C        -30.5820  120.3190   53.4240 C.2   195  ASN195      0.2266
    100  O        -30.9580  119.7040   52.4270 O.2   195  ASN195     -0.2867
    101  CB       -28.2120  121.0090   52.8360 C.3   195  ASN195      0.1155
    102  CG       -28.4780  122.5440   52.7470 C.2   195  ASN195      0.2627
    103  OD1      -29.5320  122.9800   52.2750 O.2   195  ASN195     -0.2716
    104  ND2      -27.4760  123.3550   53.1290 N.am  195  ASN195     -0.0877
    105  N        -30.8050  127.2190   45.7790 N.3   203  LYS203     -0.1245
    106  CA       -29.4100  127.1470   46.1770 C.3   203  LYS203      0.1561
    107  C        -28.7550  126.2360   45.1410 C.2   203  LYS203      0.2260
    108  O        -29.1700  125.0950   44.9580 O.2   203  LYS203     -0.2867
    109  CB       -29.2620  126.5960   47.6000 C.3   203  LYS203      0.0271
    110  CG       -27.8120  126.5220   48.1110 C.3   203  LYS203      0.0035
    111  CD       -27.6720  125.7910   49.4580 C.3   203  LYS203      0.0206
    112  CE       -28.5760  126.3630   50.5630 C.3   203  LYS203      0.1093
    113  NZ       -27.9890  127.5700   51.1830 N.3   203  LYS203     -0.1314
    114  N        -25.5500  124.0910   43.5440 N.3   205  TRP205     -0.1241
    115  CA       -24.4460  123.2860   44.0480 C.3   205  TRP205      0.1605
    116  C        -23.5290  122.8030   42.9380 C.2   205  TRP205      0.2264
    117  O        -23.9800  122.4260   41.8630 O.2   205  TRP205     -0.2867
    118  CB       -24.9680  122.0470   44.7930 C.3   205  TRP205      0.0550
    119  CG       -25.8130  122.2990   46.0180 C.ar  205  TRP205      0.0003
    120  CD1      -27.0430  122.9040   46.0620 C.ar  205  TRP205      0.0946
    121  CD2      -25.5080  121.9060   47.3680 C.ar  205  TRP205      0.0152
    122  NE1      -27.5060  122.9370   47.3570 N.ar  205  TRP205     -0.2442
    123  CE2      -26.5890  122.3270   48.1760 C.ar  205  TRP205      0.0810
    124  CE3      -24.4140  121.2580   47.9760 C.ar  205  TRP205      0.0012
    125  CZ2      -26.6140  122.1140   49.5710 C.ar  205  TRP205      0.0191
    126  CZ3      -24.4480  121.0340   49.3470 C.ar  205  TRP205      0.0001
    127  CH2      -25.5420  121.4630   50.1320 C.ar  205  TRP205      0.0015
    128  N        -10.4110  125.7100   55.2090 N.3   237  HIS237     -0.1226
    129  CA       -10.6590  127.0930   55.6310 C.3   237  HIS237      0.1752
    130  C        -11.9500  127.6410   55.0120 C.2   237  HIS237      0.2595
    131  O        -12.4920  128.6330   55.4880 O.2   237  HIS237     -0.2718
    132  CB        -9.4810  127.9840   55.2550 C.3   237  HIS237      0.0759
    133  CG        -8.1760  127.5280   55.8370 C.ar  237  HIS237      0.0818
    134  ND1       -6.9650  128.0260   55.4230 N.ar  237  HIS237     -0.2268
    135  CD2       -7.9010  126.6140   56.8010 C.ar  237  HIS237      0.1154
    136  CE1       -5.9940  127.4470   56.1100 C.ar  237  HIS237      0.1986
    137  NE2       -6.5360  126.5880   56.9510 N.ar  237  HIS237     -0.2212
    138  N        -12.4110  126.9870   53.9420 N.am  238  LYS238     -0.1980
    139  CA       -13.6420  127.3440   53.2180 C.3   238  LYS238      0.1596
    140  C        -13.6010  128.7630   52.6590 C.2   238  LYS238      0.2287
    141  O        -14.5760  129.5140   52.7640 O.2   238  LYS238     -0.2864
    142  CB       -14.8700  127.1480   54.1240 C.3   238  LYS238      0.0298
    143  CG       -15.1950  125.6600   54.3040 C.3   238  LYS238      0.0038
    144  CD       -15.5010  125.2620   55.7450 C.3   238  LYS238      0.0206
    145  CE       -15.5760  123.7240   55.9150 C.3   238  LYS238      0.1093
    146  NZ       -14.8800  123.2450   57.1600 N.3   238  LYS238     -0.1314
    147  N        -24.6680  115.3720   51.1790 N.3   267  THR267     -0.1218
    148  CA       -23.3010  115.2090   50.6800 C.3   267  THR267      0.1862
    149  C        -22.6600  113.9970   51.3350 C.2   267  THR267      0.2287
    150  O        -23.0330  113.6160   52.4260 O.2   267  THR267     -0.2866
    151  CB       -22.4090  116.4620   50.8920 C.3   267  THR267      0.1770
    152  OG1      -21.8740  116.4760   52.2190 O.3   267  THR267     -0.2211
    153  CG2      -23.2040  117.7380   50.6360 C.3   267  THR267      0.0375
    154  N        -17.8710  119.9640   47.5720 N.3   273  HIS273     -0.1241
    155  CA       -18.9410  120.7640   47.0080 C.3   273  HIS273      0.1621
    156  C        -18.7010  122.2560   47.2440 C.2   273  HIS273      0.2264
    157  O        -17.9180  122.6540   48.1190 O.2   273  HIS273     -0.2867
    158  CB       -20.3050  120.3440   47.5820 C.3   273  HIS273      0.0745
    159  CG       -20.3190  120.1970   49.0690 C.ar  273  HIS273      0.0817
    160  ND1      -19.6970  119.1470   49.7190 N.ar  273  HIS273     -0.2268
    161  CD2      -20.8670  120.9690   50.0410 C.ar  273  HIS273      0.1154
    162  CE1      -19.8650  119.2820   51.0230 C.ar  273  HIS273      0.1986
    163  NE2      -20.5720  120.3780   51.2470 N.ar  273  HIS273     -0.2212
    164  N        -28.9960  122.5680   58.2030 N.3   285  SER285     -0.1217
    165  CA       -28.0570  121.4940   57.9290 C.3   285  SER285      0.1889
    166  C        -27.3260  120.9830   59.1690 C.2   285  SER285      0.2288
    167  O        -27.2050  121.6860   60.1860 O.2   285  SER285     -0.2866
    168  CB       -27.0330  121.9470   56.8980 C.3   285  SER285      0.2089
    169  OG       -26.0400  122.7160   57.5340 O.3   285  SER285     -0.2183
    170  N        -24.2490  117.4810   60.2250 N.3   287  ASN287     -0.1240
    171  CA       -23.5160  116.3310   59.7040 C.3   287  ASN287      0.1653
    172  C        -24.1070  115.0230   60.2100 C.2   287  ASN287      0.2266
    173  O        -24.8400  115.0170   61.1900 O.2   287  ASN287     -0.2867
    174  CB       -22.0320  116.4260   60.0860 C.3   287  ASN287      0.1155
    175  CG       -21.3320  117.5620   59.3800 C.2   287  ASN287      0.2627
    176  OD1      -20.7960  118.4580   60.0160 O.2   287  ASN287     -0.2716
    177  ND2      -21.3520  117.5380   58.0510 N.am  287  ASN287     -0.0877
@<TRIPOS>BOND
     1   117   116    2
     2   116   115    1
     3   114   115    1
     4   115   118    1
     5   118   119    1
     6   108   107    2
     7   107   106    1
     8   105   106    1
     9   119   120   ar
    10   119   121   ar
    11   120   122   ar
    12   106   109    1
    13   155   156    1
    14   155   154    1
    15   155   158    1
    16   156   157    2
    17   122   123   ar
    18   121   124   ar
    19   121   123   ar
    20   158   159    1
    21   109   110    1
    22   124   126   ar
    23   110   111    1
    24    56    55    2
    25   123   125   ar
    26    63    62   ar
    27    63    61   ar
    28    62    60   ar
    29    61    59   ar
    30   159   160   ar
    31   159   161   ar
    32    55    54    1
    33    53    54    1
    34   126   127   ar
    35    60    58   ar
    36   111   112    1
    37    59    58   ar
    38   125   127   ar
    39    64    65    1
    40   160   162   ar
    41    58    57    1
    42   161   163   ar
    43    54    57    1
    44    67    66    2
    45   112   113    1
    46   153   151    1
    47   148   151    1
    48   148   147    1
    49   148   149    1
    50   151   152    1
    51    65    66    1
    52    65    68    1
    53   162   163   ar
    54   149   150    2
    55    70    72   ar
    56    70    69   ar
    57    72    73   ar
    58    68    69    1
    59   103   102    2
    60    69    71   ar
    61   100    99    2
    62   140   141    2
    63   140   139    1
    64    20    19    1
    65   102   101    1
    66   102   104   am
    67   101    98    1
    68    73    71   ar
    69    18    19   ar
    70    18    16   ar
    71    19    17   ar
    72   139   138    1
    73   139   142    1
    74    17    15   ar
    75    16    14   ar
    76    99    98    1
    77    15    14   ar
    78    14    13    1
    79    98    97    1
    80    96    95    1
    81    94    93    2
    82   138   130   am
    83    82    80   ar
    84    13    10    1
    85   142   143    1
    86   143   144    1
    87    74    75    1
    88     9    10    1
    89     7     6    2
    90    10    11    1
    91    93    92    1
    92   130   131    2
    93   130   129    1
    94    80    79    1
    95    80    81   ar
    96     1     2    1
    97    79    78    1
    98    91    92    1
    99   128   129    1
   100   132   129    1
   101   132   133    1
   102    95    92    1
   103   134   133   ar
   104   134   136   ar
   105    44    43    2
   106    75    78    1
   107    75    76    1
   108     6     8   am
   109     6     5    1
   110   144   145    1
   111   133   135   ar
   112     2     5    1
   113     2     3    1
   114   145   146    1
   115    45    46    1
   116    45    42    1
   117   136   137   ar
   118    11    12    2
   119    43    42    1
   120    77    76    2
   121    48    46   ar
   122    48    50   ar
   123    46    47   ar
   124    76    83   am
   125   135   137   ar
   126     3     4    2
   127   168   169    1
   128   168   165    1
   129    50    51   ar
   130    42    41    1
   131    47    49   ar
   132    51    49   ar
   133    51    52    1
   134    83    84    1
   135   165   164    1
   136   165   166    1
   137   177   175   am
   138    84    85    1
   139    84    87    1
   140    86    85    2
   141   166   167    2
   142   175   176    2
   143   175   174    1
   144   171   174    1
   145   171   172    1
   146   171   170    1
   147    27    26   ar
   148    89    88   ar
   149    32    31    2
   150    21    22    1
   151   172   173    2
   152    88    87    1
   153    88    90   ar
   154    26    28   ar
   155    26    25    1
   156    31    30    1
   157    33    30    1
   158    33    34    1
   159    22    25    1
   160    22    23    1
   161    36    34   ar
   162    36    38   ar
   163    30    29    1
   164    34    35   ar
   165    38    39   ar
   166    23    24    2
   167    35    37   ar
   168    39    37   ar
   169    39    40    1
