@<TRIPOS>MOLECULE
tmp/5a7tA00.pdb
 81 73 0 0 0
SMALL
GASTEIGER

@<TRIPOS>ATOM
      1  N         24.1890   53.4360   15.6330 N.3    92  LYS92      -0.1245
      2  CA        24.4800   53.5030   17.0680 C.3    92  LYS92       0.1561
      3  C         23.2010   53.5670   17.8690 C.2    92  LYS92       0.2260
      4  O         22.3680   54.4010   17.6110 O.2    92  LYS92      -0.2867
      5  CB        25.2810   54.7430   17.3710 C.3    92  LYS92       0.0271
      6  CG        26.6530   54.7080   16.7640 C.3    92  LYS92       0.0035
      7  CD        27.4530   55.9290   17.1630 C.3    92  LYS92       0.0206
      8  CE        28.7700   55.9690   16.3870 C.3    92  LYS92       0.1093
      9  NZ        29.4280   57.3130   16.2650 N.3    92  LYS92      -0.1314
     10  N         21.7080   54.2390   21.6030 N.3    93  VAL93      -0.1245
     11  CA        22.1650   54.9370   22.7820 C.3    93  VAL93       0.1561
     12  C         21.1140   54.8640   23.8500 C.2    93  VAL93       0.2260
     13  O         19.9900   55.2540   23.6190 O.2    93  VAL93      -0.2867
     14  CB        22.4840   56.3940   22.4360 C.3    93  VAL93       0.0252
     15  CG1       22.9540   57.1530   23.6620 C.3    93  VAL93       0.0019
     16  CG2       23.5610   56.4450   21.3480 C.3    93  VAL93       0.0019
     17  N         25.6530   51.9400   23.2000 N.3   131  THR131     -0.1218
     18  CA        26.2400   52.8580   24.1520 C.3   131  THR131      0.1862
     19  C         25.2420   53.0840   25.2770 C.2   131  THR131      0.2287
     20  O         24.0680   53.2330   25.0090 O.2   131  THR131     -0.2866
     21  CB        26.5330   54.2110   23.4980 C.3   131  THR131      0.1770
     22  OG1       27.6210   54.0690   22.5830 O.3   131  THR131     -0.2211
     23  CG2       26.9130   55.2470   24.5540 C.3   131  THR131      0.0375
     24  N         29.7140   50.3620   25.0500 N.3   144  ASN144     -0.1240
     25  CA        30.3820   51.5890   25.4090 C.3   144  ASN144      0.1653
     26  C         29.6330   52.2540   26.5760 C.2   144  ASN144      0.2266
     27  O         28.4350   52.5270   26.4820 O.2   144  ASN144     -0.2867
     28  CB        30.4180   52.5450   24.1940 C.3   144  ASN144      0.1155
     29  CG        31.1070   51.9380   22.9780 C.2   144  ASN144      0.2627
     30  OD1       30.4710   51.6560   21.9580 O.2   144  ASN144     -0.2716
     31  ND2       32.4020   51.7400   23.0790 N.am  144  ASN144     -0.0877
     32  N         29.6720   55.6440   28.9200 N.3   146  VAL146     -0.1245
     33  CA        30.2310   56.9840   29.0310 C.3   146  VAL146      0.1561
     34  C         29.3640   57.8150   29.9650 C.2   146  VAL146      0.2260
     35  O         28.1430   57.6980   29.9380 O.2   146  VAL146     -0.2867
     36  CB        30.3050   57.6700   27.6640 C.3   146  VAL146      0.0252
     37  CG1       31.5080   57.1700   26.8750 C.3   146  VAL146      0.0019
     38  CG2       29.0330   57.4140   26.8650 C.3   146  VAL146      0.0019
     39  N         27.6420   62.1650   26.6460 N.3   149  LEU149     -0.1231
     40  CA        27.5110   61.8560   25.2580 C.3   149  LEU149      0.1693
     41  C         28.5840   62.5890   24.4730 C.2   149  LEU149      0.2593
     42  O         28.6740   63.8130   24.4970 O.2   149  LEU149     -0.2718
     43  CB        26.1210   62.2570   24.7890 C.3   149  LEU149      0.0284
     44  CG        25.6670   61.6850   23.4420 C.3   149  LEU149      0.0019
     45  CD1       25.7970   60.1570   23.3790 C.3   149  LEU149      0.0001
     46  CD2       24.2350   62.1300   23.2010 C.3   149  LEU149      0.0001
     47  N         29.4470   61.8280   23.8440 N.am  150  SER150     -0.1938
     48  CA        30.4430   62.3850   22.9910 C.3   150  SER150      0.2055
     49  C         29.9540   62.1180   21.5920 C.2   150  SER150      0.2643
     50  O         29.7350   60.9910   21.2490 O.2   150  SER150     -0.2714
     51  CB        31.7740   61.7080   23.2430 C.3   150  SER150      0.2130
     52  OG        32.6350   61.9530   22.1720 O.3   150  SER150     -0.2179
     53  N         29.7940   63.1610   20.7940 N.am  151  LEU151     -0.1963
     54  CA        28.9530   63.1340   19.6160 C.3   151  LEU151      0.1728
     55  C         29.7240   63.6160   18.3960 C.2   151  LEU151      0.2616
     56  O         30.2280   64.7100   18.3990 O.2   151  LEU151     -0.2715
     57  CB        27.7790   64.0720   19.8600 C.3   151  LEU151      0.0311
     58  CG        26.7230   64.2690   18.7620 C.3   151  LEU151      0.0022
     59  CD1       25.6000   63.2640   18.8990 C.3   151  LEU151      0.0001
     60  CD2       26.1670   65.6810   18.8340 C.3   151  LEU151      0.0001
     61  N         29.7620   62.8320   17.3300 N.am  152  SER152     -0.1950
     62  CA        30.5780   63.1910   16.1590 C.3   152  SER152      0.1924
     63  C         29.7920   63.9410   15.0790 C.2   152  SER152      0.2314
     64  O         28.5610   63.9390   15.0860 O.2   152  SER152     -0.2863
     65  CB        31.2050   61.9320   15.5570 C.3   152  SER152      0.2116
     66  OG        30.3660   61.3720   14.5690 O.3   152  SER152     -0.2180
     67  N         27.1220   61.7450   13.2910 N.3   155  ASP155     -0.1239
     68  CA        25.9510   61.2770   14.0410 C.3   155  ASP155      0.1674
     69  C         24.7560   62.0730   13.6280 C.2   155  ASP155      0.2266
     70  O         24.8230   63.2720   13.5300 O.2   155  ASP155     -0.2867
     71  CB        26.1280   61.4670   15.5440 C.3   155  ASP155      0.1410
     72  CG        27.2260   60.5920   16.1330 C.2   155  ASP155      0.3668
     73  OD1       27.6140   59.6000   15.4690 O.co2 155  ASP155     -0.2456
     74  OD2       27.7170   60.9300   17.2610 O.co2 155  ASP155     -0.2456
     75  N         21.6320   57.2960   14.4890 N.3   178  VAL178     -0.1245
     76  CA        21.8360   57.2980   15.9530 C.3   178  VAL178      0.1561
     77  C         20.4630   57.3670   16.6490 C.2   178  VAL178      0.2260
     78  O         19.6530   58.2430   16.3530 O.2   178  VAL178     -0.2867
     79  CB        22.7770   58.4510   16.3990 C.3   178  VAL178      0.0252
     80  CG1       22.8040   58.6410   17.9160 C.3   178  VAL178      0.0019
     81  CG2       24.1950   58.1770   15.9290 C.3   178  VAL178      0.0019
@<TRIPOS>BOND
     1    67    68    1
     2    70    69    2
     3    69    68    1
     4    68    71    1
     5    75    76    1
     6    66    65    1
     7    63    64    2
     8    63    62    1
     9    73    72   ar
    10    71    72    1
    11    65    62    1
    12     1     2    1
    13    81    79    1
    14    76    79    1
    15    76    77    1
    16    72    74   ar
    17    62    61    1
    18     9     8    1
    19    78    77    2
    20     8     7    1
    21    79    80    1
    22     6     7    1
    23     6     5    1
    24     2     5    1
    25     2     3    1
    26    61    55   am
    27     4     3    2
    28    55    56    2
    29    55    54    1
    30    58    60    1
    31    58    59    1
    32    58    57    1
    33    54    57    1
    34    54    53    1
    35    53    49   am
    36    50    49    2
    37    16    14    1
    38    49    48    1
    39    10    11    1
    40    30    29    2
    41    52    51    1
    42    14    11    1
    43    14    15    1
    44    22    21    1
    45    11    12    1
    46    29    31   am
    47    29    28    1
    48    48    51    1
    49    48    47    1
    50    17    18    1
    51    46    44    1
    52    45    44    1
    53    44    43    1
    54    21    18    1
    55    21    23    1
    56    13    12    2
    57    47    41   am
    58    18    19    1
    59    28    25    1
    60    41    42    2
    61    41    40    1
    62    43    40    1
    63    20    19    2
    64    24    25    1
    65    40    39    1
    66    25    26    1
    67    27    26    2
    68    38    36    1
    69    37    36    1
    70    36    33    1
    71    32    33    1
    72    33    34    1
    73    35    34    2
