@<TRIPOS>MOLECULE
tmp/5a7vA00.pdb
 105 99 0 0 0
SMALL
GASTEIGER

@<TRIPOS>ATOM
      1  N         43.9500    6.2630   40.0880 N.3    56  PHE56      -0.1241
      2  CA        43.5420    4.9420   40.5940 C.3    56  PHE56       0.1605
      3  C         44.7230    3.9730   40.5020 C.2    56  PHE56       0.2264
      4  O         45.8780    4.4060   40.4830 O.2    56  PHE56      -0.2867
      5  CB        42.1950    4.4820   39.9370 C.3    56  PHE56       0.0534
      6  CG        42.1870    4.3290   38.4380 C.ar   56  PHE56      -0.0203
      7  CD1       42.2660    5.4390   37.5980 C.ar   56  PHE56      -0.0042
      8  CD2       42.0340    3.0730   37.8410 C.ar   56  PHE56      -0.0042
      9  CE1       42.1630    5.2950   36.2350 C.ar   56  PHE56      -0.0003
     10  CE2       41.9310    2.9110   36.4830 C.ar   56  PHE56      -0.0003
     11  CZ        42.0000    4.0370   35.6610 C.ar   56  PHE56      -0.0000
     12  N         48.0910    5.4980   38.8400 N.3    72  ARG72      -0.1245
     13  CA        47.6150    5.6000   37.4640 C.3    72  ARG72       0.1563
     14  C         46.7370    6.8520   37.3400 C.2    72  ARG72       0.2260
     15  O         45.7220    6.9290   38.0130 O.2    72  ARG72      -0.2867
     16  CB        46.8250    4.3490   37.0860 C.3    72  ARG72       0.0307
     17  CG        46.3230    4.3620   35.6600 C.3    72  ARG72       0.0489
     18  CD        45.4780    3.1480   35.2980 C.3    72  ARG72       0.2205
     19  NE        44.9270    3.2440   33.9840 N.pl3  72  ARG72      -0.0865
     20  CZ        44.1510    2.3180   33.4090 C.cat  72  ARG72       0.5346
     21  NH1       43.9710    1.1140   33.9740 N.pl3  72  ARG72       0.1354
     22  NH2       43.5190    2.6040   32.2740 N.pl3  72  ARG72       0.1354
     23  N         36.2180    3.5550   28.8840 N.3    81  ILE81      -0.1231
     24  CA        37.2540    2.8360   29.6160 C.3    81  ILE81       0.1692
     25  C         38.3340    2.3990   28.6410 C.2    81  ILE81       0.2592
     26  O         38.0730    1.8420   27.5840 O.2    81  ILE81      -0.2718
     27  CB        36.6850    1.6290   30.3980 C.3    81  ILE81       0.0266
     28  CG1       35.9470    2.1420   31.6590 C.3    81  ILE81       0.0019
     29  CG2       37.7810    0.6500   30.8330 C.3    81  ILE81       0.0020
     30  CD1       35.1960    1.0650   32.3830 C.3    81  ILE81       0.0001
     31  N         39.5950    2.7460   28.9790 N.am   82  GLY82      -0.1957
     32  CA        40.7150    2.4720   28.1050 C.3    82  GLY82       0.1869
     33  C         40.9100    3.4180   26.9380 C.2    82  GLY82       0.2309
     34  O         41.7870    3.2010   26.0810 O.2    82  GLY82      -0.2863
     35  N         49.9110    1.7250   32.2980 N.3   124  GLU124     -0.1231
     36  CA        48.8110    1.4700   33.2370 C.3   124  GLU124      0.1699
     37  C         49.2160    0.5350   34.3690 C.2   124  GLU124      0.2592
     38  O         50.1010   -0.3290   34.2050 O.2   124  GLU124     -0.2718
     39  CB        47.6290    0.7780   32.5390 C.3   124  GLU124      0.0402
     40  CG        47.1640    1.4550   31.2800 C.3   124  GLU124      0.1161
     41  CD        46.1210    0.6850   30.5060 C.2   124  GLU124      0.3649
     42  OE1       46.0260   -0.5690   30.6620 O.co2 124  GLU124     -0.2457
     43  OE2       45.4250    1.3100   29.6350 O.co2 124  GLU124     -0.2457
     44  N         48.5690    0.6680   35.5080 N.am  125  ASP125     -0.1974
     45  CA        48.4870   -0.4040   36.5030 C.3   125  ASP125      0.1709
     46  C         49.8510   -0.9460   36.9760 C.2   125  ASP125      0.2293
     47  O         50.1530   -2.1390   36.8760 O.2   125  ASP125     -0.2864
     48  CB        47.6090   -1.5620   36.0220 C.3   125  ASP125      0.1436
     49  CG        46.1610   -1.1950   35.6720 C.2   125  ASP125      0.3671
     50  OD1       45.7410   -0.0670   35.9330 O.co2 125  ASP125     -0.2456
     51  OD2       45.5000   -2.1300   35.1490 O.co2 125  ASP125     -0.2456
     52  N         51.2000   -2.2370   32.3460 N.3   141  THR141     -0.1218
     53  CA        50.6300   -2.5200   31.0520 C.3   141  THR141      0.1862
     54  C         50.9440   -1.4270   30.0260 C.2   141  THR141      0.2287
     55  O         50.7030   -0.2310   30.3010 O.2   141  THR141     -0.2866
     56  CB        49.0840   -2.5980   31.1470 C.3   141  THR141      0.1770
     57  OG1       48.7450   -3.4380   32.2470 O.3   141  THR141     -0.2211
     58  CG2       48.5260   -3.1770   29.8730 C.3   141  THR141      0.0375
     59  N         49.6590    0.1170   26.6100 N.3   143  TRP143     -0.1241
     60  CA        48.3990    0.1240   25.8940 C.3   143  TRP143      0.1605
     61  C         48.4690    1.0390   24.6770 C.2   143  TRP143      0.2264
     62  O         48.6540    2.2690   24.7950 O.2   143  TRP143     -0.2867
     63  CB        47.2410    0.5040   26.8250 C.3   143  TRP143      0.0550
     64  CG        45.8400    0.5410   26.2670 C.ar  143  TRP143      0.0003
     65  CD1       44.9390    1.5330   26.4920 C.ar  143  TRP143      0.0946
     66  CD2       45.1800   -0.4380   25.4520 C.ar  143  TRP143      0.0152
     67  NE1       43.7310    1.2170   25.9260 N.ar  143  TRP143     -0.2442
     68  CE2       43.8350    0.0110   25.2750 C.ar  143  TRP143      0.0810
     69  CE3       45.5480   -1.6690   24.8940 C.ar  143  TRP143      0.0012
     70  CZ2       42.8780   -0.7130   24.5540 C.ar  143  TRP143      0.0191
     71  CZ3       44.5760   -2.4000   24.1920 C.ar  143  TRP143      0.0001
     72  CH2       43.2520   -1.9270   24.0340 C.ar  143  TRP143      0.0015
     73  N         46.9970   -5.0040   24.9490 N.3   148  PRO148     -0.2116
     74  CA        47.6560   -4.6690   26.2110 C.3   148  PRO148      0.1372
     75  C         48.7900   -5.6380   26.4580 C.2   148  PRO148      0.2244
     76  O         48.6280   -6.8430   26.3080 O.2   148  PRO148     -0.2868
     77  CB        46.5660   -4.8580   27.2690 C.3   148  PRO148      0.0268
     78  CG        45.5920   -5.7960   26.6610 C.3   148  PRO148      0.0207
     79  CD        45.7660   -5.7940   25.1720 C.3   148  PRO148      0.0892
     80  N         48.6920   -8.7140   31.2850 N.3   182  LYS182     -0.1245
     81  CA        48.8110   -7.6500   32.2830 C.3   182  LYS182      0.1561
     82  C         48.8860   -8.2560   33.6700 C.2   182  LYS182      0.2260
     83  O         48.6950   -9.4680   33.8140 O.2   182  LYS182     -0.2867
     84  CB        47.6610   -6.6250   32.1730 C.3   182  LYS182      0.0271
     85  CG        46.2480   -7.2400   32.2900 C.3   182  LYS182      0.0035
     86  CD        45.1340   -6.1700   32.2960 C.3   182  LYS182      0.0206
     87  CE        45.0690   -5.4160   31.0050 C.3   182  LYS182      0.1093
     88  NZ        44.0350   -4.3490   31.0040 N.3   182  LYS182     -0.1314
     89  N         45.3360  -11.9500   34.1380 N.3   210  GLU210     -0.1245
     90  CA        43.9900  -11.3910   34.3860 C.3   210  GLU210      0.1567
     91  C         42.8780  -12.4730   34.4230 C.2   210  GLU210      0.2260
     92  O         42.0900  -12.5570   35.3910 O.2   210  GLU210     -0.2867
     93  CB        43.6990  -10.3250   33.3230 C.3   210  GLU210      0.0388
     94  CG        42.3420   -9.6680   33.3910 C.3   210  GLU210      0.1160
     95  CD        42.0040   -8.7920   32.2100 C.2   210  GLU210      0.3649
     96  OE1       42.5910   -8.9020   31.1130 O.co2 210  GLU210     -0.2457
     97  OE2       41.0970   -7.9420   32.3770 O.co2 210  GLU210     -0.2457
     98  N         37.9780    2.4580   39.5500 N.3   346  ASP346     -0.1239
     99  CA        38.7110    3.0900   38.4570 C.3   346  ASP346      0.1674
    100  C         38.6950    4.6440   38.5000 C.2   346  ASP346      0.2266
    101  O         38.8590    5.2950   37.4860 O.2   346  ASP346     -0.2867
    102  CB        38.3100    2.5990   37.0470 C.3   346  ASP346      0.1410
    103  CG        38.6000    1.1400   36.7440 C.2   346  ASP346      0.3668
    104  OD1       39.1080    0.3730   37.5900 O.co2 346  ASP346     -0.2456
    105  OD2       38.3340    0.7660   35.5390 O.co2 346  ASP346     -0.2456
@<TRIPOS>BOND
     1    72    71   ar
     2    72    70   ar
     3    71    69   ar
     4    70    68   ar
     5    61    62    2
     6    61    60    1
     7    69    66   ar
     8    73    79    1
     9    73    74    1
    10    79    78    1
    11    68    66   ar
    12    68    67   ar
    13    66    64   ar
    14    60    59    1
    15    60    63    1
    16    67    65   ar
    17    34    33    2
    18    74    75    1
    19    74    77    1
    20    64    65   ar
    21    64    63    1
    22    76    75    2
    23    78    77    1
    24    33    32    1
    25    26    25    2
    26    32    31    1
    27    25    31   am
    28    25    24    1
    29    23    24    1
    30    24    27    1
    31    43    41   ar
    32    58    56    1
    33    54    55    2
    34    54    53    1
    35    27    29    1
    36    27    28    1
    37    41    42   ar
    38    41    40    1
    39    88    87    1
    40    87    86    1
    41    53    56    1
    42    53    52    1
    43    96    95   ar
    44    56    57    1
    45    40    39    1
    46    80    81    1
    47    28    30    1
    48    84    81    1
    49    84    85    1
    50    95    97   ar
    51    95    94    1
    52    22    20    1
    53    81    82    1
    54    85    86    1
    55    35    36    1
    56    39    36    1
    57    36    37    1
    58    93    94    1
    59    93    90    1
    60    20    21    1
    61    20    19    2
    62    82    83    2
    63    19    18    1
    64    89    90    1
    65    38    37    2
    66    37    44   am
    67    90    91    1
    68    91    92    2
    69    51    49   ar
    70    18    17    1
    71    44    45    1
    72   105   103   ar
    73    17    16    1
    74    11     9   ar
    75    11    10   ar
    76    49    50   ar
    77    49    48    1
    78    48    45    1
    79     9     7   ar
    80    10     8   ar
    81    45    46    1
    82   103   102    1
    83   103   104   ar
    84    47    46    2
    85   102    99    1
    86    16    13    1
    87    14    13    1
    88    14    15    2
    89    13    12    1
    90   101   100    2
    91     7     6   ar
    92     8     6   ar
    93     6     5    1
    94    99   100    1
    95    99    98    1
    96     5     2    1
    97     1     2    1
    98     4     3    2
    99     3     2    1
