@<TRIPOS>MOLECULE
tmp/5a7vA01.pdb
 126 116 0 0 0
SMALL
GASTEIGER

@<TRIPOS>ATOM
      1  N         44.4300    2.6820   40.5680 N.3    57  ASN57      -0.1240
      2  CA        45.3470    1.5350   40.3610 C.3    57  ASN57       0.1653
      3  C         46.8300    1.8520   40.5800 C.2    57  ASN57       0.2266
      4  O         47.5550    2.0820   39.6120 O.2    57  ASN57      -0.2867
      5  CB        45.0700    0.9300   39.0050 C.3    57  ASN57       0.1155
      6  CG        43.6840    0.2890   38.9350 C.2    57  ASN57       0.2627
      7  OD1       42.8890    0.3830   39.8720 O.2    57  ASN57      -0.2716
      8  ND2       43.3930   -0.2920   37.8000 N.am   57  ASN57      -0.0877
      9  N         48.0910    5.4980   38.8400 N.3    72  ARG72      -0.1245
     10  CA        47.6150    5.6000   37.4640 C.3    72  ARG72       0.1563
     11  C         46.7370    6.8520   37.3400 C.2    72  ARG72       0.2260
     12  O         45.7220    6.9290   38.0130 O.2    72  ARG72      -0.2867
     13  CB        46.8250    4.3490   37.0860 C.3    72  ARG72       0.0307
     14  CG        46.3230    4.3620   35.6600 C.3    72  ARG72       0.0489
     15  CD        45.4780    3.1480   35.2980 C.3    72  ARG72       0.2205
     16  NE        44.9270    3.2440   33.9840 N.pl3  72  ARG72      -0.0865
     17  CZ        44.1510    2.3180   33.4090 C.cat  72  ARG72       0.5346
     18  NH1       43.9710    1.1140   33.9740 N.pl3  72  ARG72       0.1354
     19  NH2       43.5190    2.6040   32.2740 N.pl3  72  ARG72       0.1354
     20  N         36.2180    3.5550   28.8840 N.3    81  ILE81      -0.1245
     21  CA        37.2540    2.8360   29.6160 C.3    81  ILE81       0.1561
     22  C         38.3340    2.3990   28.6410 C.2    81  ILE81       0.2260
     23  O         38.0730    1.8420   27.5840 O.2    81  ILE81      -0.2867
     24  CB        36.6850    1.6290   30.3980 C.3    81  ILE81       0.0252
     25  CG1       35.9470    2.1420   31.6590 C.3    81  ILE81       0.0019
     26  CG2       37.7810    0.6500   30.8330 C.3    81  ILE81       0.0019
     27  CD1       35.1960    1.0650   32.3830 C.3    81  ILE81       0.0001
     28  N         48.5690    0.6680   35.5080 N.3   125  ASP125     -0.1239
     29  CA        48.4870   -0.4040   36.5030 C.3   125  ASP125      0.1674
     30  C         49.8510   -0.9460   36.9760 C.2   125  ASP125      0.2266
     31  O         50.1530   -2.1390   36.8760 O.2   125  ASP125     -0.2867
     32  CB        47.6090   -1.5620   36.0220 C.3   125  ASP125      0.1410
     33  CG        46.1610   -1.1950   35.6720 C.2   125  ASP125      0.3668
     34  OD1       45.7410   -0.0670   35.9330 O.co2 125  ASP125     -0.2456
     35  OD2       45.5000   -2.1300   35.1490 O.co2 125  ASP125     -0.2456
     36  N         48.6920   -8.7140   31.2850 N.3   182  LYS182     -0.1231
     37  CA        48.8110   -7.6500   32.2830 C.3   182  LYS182      0.1693
     38  C         48.8860   -8.2560   33.6700 C.2   182  LYS182      0.2592
     39  O         48.6950   -9.4680   33.8140 O.2   182  LYS182     -0.2718
     40  CB        47.6610   -6.6250   32.1730 C.3   182  LYS182      0.0285
     41  CG        46.2480   -7.2400   32.2900 C.3   182  LYS182      0.0035
     42  CD        45.1340   -6.1700   32.2960 C.3   182  LYS182      0.0206
     43  CE        45.0690   -5.4160   31.0050 C.3   182  LYS182      0.1093
     44  NZ        44.0350   -4.3490   31.0040 N.3   182  LYS182     -0.1314
     45  N         49.1790   -7.4340   34.6540 N.am  183  SER183     -0.1952
     46  CA        49.0390   -7.7620   36.0910 C.3   183  SER183      0.1924
     47  C         50.0920   -8.7710   36.5750 C.2   183  SER183      0.2314
     48  O         49.8150   -9.9670   36.7060 O.2   183  SER183     -0.2863
     49  CB        47.6070   -8.2020   36.4130 C.3   183  SER183      0.2116
     50  OG        46.7280   -7.1280   36.1120 O.3   183  SER183     -0.2180
     51  N         45.3360  -11.9500   34.1380 N.3   210  GLU210     -0.1245
     52  CA        43.9900  -11.3910   34.3860 C.3   210  GLU210      0.1567
     53  C         42.8780  -12.4730   34.4230 C.2   210  GLU210      0.2260
     54  O         42.0900  -12.5570   35.3910 O.2   210  GLU210     -0.2867
     55  CB        43.6990  -10.3250   33.3230 C.3   210  GLU210      0.0388
     56  CG        42.3420   -9.6680   33.3910 C.3   210  GLU210      0.1160
     57  CD        42.0040   -8.7920   32.2100 C.2   210  GLU210      0.3649
     58  OE1       42.5910   -8.9020   31.1130 O.co2 210  GLU210     -0.2457
     59  OE2       41.0970   -7.9420   32.3770 O.co2 210  GLU210     -0.2457
     60  N         37.1270  -13.4730   36.6150 N.3   249  LEU249     -0.1245
     61  CA        38.5960  -13.1970   36.5100 C.3   249  LEU249      0.1561
     62  C         39.2080  -13.5380   37.8540 C.2   249  LEU249      0.2260
     63  O         38.5650  -13.4100   38.9210 O.2   249  LEU249     -0.2867
     64  CB        38.8650  -11.7230   36.2360 C.3   249  LEU249      0.0270
     65  CG        38.3080  -11.1210   34.9800 C.3   249  LEU249      0.0019
     66  CD1       38.5560   -9.6030   34.9830 C.3   249  LEU249      0.0001
     67  CD2       38.8520  -11.7500   33.7230 C.3   249  LEU249      0.0001
     68  N         42.7430  -12.0640   38.9320 N.3   251  GLU251     -0.1245
     69  CA        43.7310  -11.1420   38.3730 C.3   251  GLU251      0.1567
     70  C         44.7110  -10.7400   39.4630 C.2   251  GLU251      0.2260
     71  O         44.3730  -10.2470   40.5250 O.2   251  GLU251     -0.2867
     72  CB        43.0360   -9.8920   37.8400 C.3   251  GLU251      0.0388
     73  CG        44.0290   -8.8430   37.2990 C.3   251  GLU251      0.1160
     74  CD        43.4200   -7.7790   36.4350 C.2   251  GLU251      0.3649
     75  OE1       42.1480   -7.6110   36.4960 O.co2 251  GLU251     -0.2457
     76  OE2       44.1570   -7.1420   35.6580 O.co2 251  GLU251     -0.2457
     77  N         34.6160   -6.0530   41.4040 N.3   285  TYR285     -0.1241
     78  CA        35.9690   -6.5760   41.7420 C.3   285  TYR285      0.1605
     79  C         36.1610   -6.5150   43.2530 C.2   285  TYR285      0.2264
     80  O         36.0910   -5.4370   43.8600 O.2   285  TYR285     -0.2867
     81  CB        37.0870   -5.8040   41.0640 C.3   285  TYR285      0.0534
     82  CG        37.2780   -6.0220   39.6090 C.ar  285  TYR285     -0.0201
     83  CD1       36.3450   -5.6060   38.6440 C.ar  285  TYR285     -0.0009
     84  CD2       38.4590   -6.6170   39.1320 C.ar  285  TYR285     -0.0009
     85  CE1       36.5780   -5.7680   37.2920 C.ar  285  TYR285      0.0417
     86  CE2       38.6950   -6.7730   37.7910 C.ar  285  TYR285      0.0417
     87  CZ        37.7820   -6.3170   36.8620 C.ar  285  TYR285      0.1957
     88  OH        38.0190   -6.4350   35.5060 O.3   285  TYR285     -0.2866
     89  N         34.4070    2.7830   36.6600 N.3   321  TYR321     -0.1241
     90  CA        33.9480    1.4050   36.5600 C.3   321  TYR321      0.1605
     91  C         32.6810    1.2910   37.4250 C.2   321  TYR321      0.2264
     92  O         32.7430    1.2840   38.6540 O.2   321  TYR321     -0.2867
     93  CB        35.0400    0.4090   36.9960 C.3   321  TYR321      0.0534
     94  CG        34.6450   -1.0410   36.8000 C.ar  321  TYR321     -0.0201
     95  CD1       34.7410   -1.6620   35.5360 C.ar  321  TYR321     -0.0009
     96  CD2       34.1320   -1.7780   37.8740 C.ar  321  TYR321     -0.0009
     97  CE1       34.3230   -2.9660   35.3410 C.ar  321  TYR321      0.0417
     98  CE2       33.7070   -3.0980   37.6900 C.ar  321  TYR321      0.0417
     99  CZ        33.7880   -3.6890   36.4290 C.ar  321  TYR321      0.1957
    100  OH        33.3790   -4.9820   36.1980 O.3   321  TYR321     -0.2866
    101  N         35.0270   -1.3810   42.2550 N.3   325  THR325     -0.1218
    102  CA        36.2610   -2.1640   42.5150 C.3   325  THR325      0.1862
    103  C         36.8580   -1.7350   43.8230 C.2   325  THR325      0.2287
    104  O         36.7860   -0.5350   44.1770 O.2   325  THR325     -0.2866
    105  CB        37.3780   -1.9880   41.4360 C.3   325  THR325      0.1770
    106  OG1       38.0130   -0.7220   41.6660 O.3   325  THR325     -0.2211
    107  CG2       36.9060   -2.1050   40.0120 C.3   325  THR325      0.0375
    108  N         40.5770   -2.4690   43.7560 N.3   327  PHE327     -0.1241
    109  CA        41.5610   -3.1600   42.9110 C.3   327  PHE327      0.1605
    110  C         42.9370   -3.0830   43.5920 C.2   327  PHE327      0.2264
    111  O         43.6060   -2.0560   43.5420 O.2   327  PHE327     -0.2867
    112  CB        41.5930   -2.5510   41.5170 C.3   327  PHE327      0.0534
    113  CG        42.3100   -3.3910   40.5120 C.ar  327  PHE327     -0.0203
    114  CD1       41.6910   -4.4880   39.9020 C.ar  327  PHE327     -0.0042
    115  CD2       43.6710   -3.1380   40.2210 C.ar  327  PHE327     -0.0042
    116  CE1       42.3690   -5.2950   39.0250 C.ar  327  PHE327     -0.0003
    117  CE2       44.3270   -3.9390   39.3250 C.ar  327  PHE327     -0.0003
    118  CZ        43.7130   -5.0020   38.7220 C.ar  327  PHE327     -0.0000
    119  N         37.9780    2.4580   39.5500 N.3   346  ASP346     -0.1239
    120  CA        38.7110    3.0900   38.4570 C.3   346  ASP346      0.1674
    121  C         38.6950    4.6440   38.5000 C.2   346  ASP346      0.2266
    122  O         38.8590    5.2950   37.4860 O.2   346  ASP346     -0.2867
    123  CB        38.3100    2.5990   37.0470 C.3   346  ASP346      0.1410
    124  CG        38.6000    1.1400   36.7440 C.2   346  ASP346      0.3668
    125  OD1       39.1080    0.3730   37.5900 O.co2 346  ASP346     -0.2456
    126  OD2       38.3340    0.7660   35.5390 O.co2 346  ASP346     -0.2456
@<TRIPOS>BOND
     1    23    22    2
     2    22    21    1
     3    20    21    1
     4    21    24    1
     5    24    26    1
     6    24    25    1
     7    44    43    1
     8    43    42    1
     9    58    57   ar
    10    36    37    1
    11    25    27    1
    12    40    37    1
    13    40    41    1
    14    57    59   ar
    15    57    56    1
    16    19    17    1
    17    37    38    1
    18    41    42    1
    19    55    56    1
    20    55    52    1
    21    17    18    1
    22    17    16    2
    23    38    39    2
    24    38    45   am
    25    67    65    1
    26    16    15    1
    27    51    52    1
    28    52    53    1
    29    53    54    2
    30    45    46    1
    31    65    66    1
    32    65    64    1
    33    35    33   ar
    34    15    14    1
    35    97    95   ar
    36    97    99   ar
    37    88    87    1
    38    28    29    1
    39    95    94   ar
    40   126   124   ar
    41    76    74   ar
    42    14    13    1
    43    33    34   ar
    44    33    32    1
    45    32    29    1
    46    46    49    1
    47    46    47    1
    48    50    49    1
    49   100    99    1
    50    64    61    1
    51    99    98   ar
    52    74    75   ar
    53    74    73    1
    54    29    30    1
    55    61    60    1
    56    61    62    1
    57    90    89    1
    58    90    93    1
    59    90    91    1
    60    47    48    2
    61   124   123    1
    62   124   125   ar
    63    94    93    1
    64    94    96   ar
    65    87    85   ar
    66    87    86   ar
    67    31    30    2
    68   123   120    1
    69    13    10    1
    70    85    83   ar
    71    73    72    1
    72    11    10    1
    73    11    12    2
    74    91    92    2
    75    10     9    1
    76   122   121    2
    77    98    96   ar
    78    86    84   ar
    79     8     6   am
    80    72    69    1
    81    62    63    2
    82    69    68    1
    83    69    70    1
    84   120   121    1
    85   120   119    1
    86    83    82   ar
    87   118   116   ar
    88   118   117   ar
    89     6     5    1
    90     6     7    2
    91     5     2    1
    92   116   114   ar
    93    84    82   ar
    94   117   115   ar
    95    70    71    2
    96    82    81    1
    97     4     3    2
    98   114   113   ar
    99   107   105    1
   100   115   113   ar
   101     2     1    1
   102     2     3    1
   103   113   112    1
   104    81    78    1
   105    77    78    1
   106   105   106    1
   107   105   102    1
   108   112   109    1
   109    78    79    1
   110   101   102    1
   111   102   103    1
   112   109   110    1
   113   109   108    1
   114    79    80    2
   115   111   110    2
   116   103   104    2
