@<TRIPOS>MOLECULE
tmp/5a7wB00.pdb
 168 160 0 0 0
SMALL
GASTEIGER

@<TRIPOS>ATOM
      1  N        -55.7480  -60.1680    4.2620 N.3    64  ILE64      -0.1245
      2  CA       -55.5970  -59.3500    5.4630 C.3    64  ILE64       0.1561
      3  C        -56.3430  -58.0300    5.2800 C.2    64  ILE64       0.2260
      4  O        -56.0480  -57.2850    4.3480 O.2    64  ILE64      -0.2867
      5  CB       -54.0950  -59.0700    5.7410 C.3    64  ILE64       0.0252
      6  CG1      -53.3950  -60.2970    6.3450 C.3    64  ILE64       0.0019
      7  CG2      -53.9100  -57.8470    6.6100 C.3    64  ILE64       0.0019
      8  CD1      -53.8870  -60.6840    7.7140 C.3    64  ILE64       0.0001
      9  N        -54.1770  -55.8660   11.5500 N.3    79  ASN79      -0.1240
     10  CA       -54.3180  -56.6880   10.3540 C.3    79  ASN79       0.1653
     11  C        -55.2460  -57.9140   10.5510 C.2    79  ASN79       0.2266
     12  O        -54.7760  -59.0020   10.8910 O.2    79  ASN79      -0.2867
     13  CB       -52.9190  -57.1350    9.8740 C.3    79  ASN79       0.1155
     14  CG       -52.0130  -55.9450    9.4590 C.2    79  ASN79       0.2627
     15  OD1      -52.1680  -55.3560    8.3770 O.2    79  ASN79      -0.2716
     16  ND2      -51.0480  -55.6100   10.3180 N.am   79  ASN79      -0.0877
     17  N        -55.2470  -56.7440    1.8540 N.3   125  TYR125     -0.1241
     18  CA       -53.9160  -56.9640    1.3010 C.3   125  TYR125      0.1605
     19  C        -53.6130  -58.4560    1.2460 C.2   125  TYR125      0.2264
     20  O        -53.6280  -59.1400    2.2560 O.2   125  TYR125     -0.2867
     21  CB       -52.8870  -56.1630    2.1220 C.3   125  TYR125      0.0534
     22  CG       -51.4700  -56.0960    1.5770 C.ar  125  TYR125     -0.0201
     23  CD1      -51.2540  -55.8180    0.2450 C.ar  125  TYR125     -0.0009
     24  CD2      -50.3650  -56.0490    2.4250 C.ar  125  TYR125     -0.0009
     25  CE1      -49.9810  -55.6820   -0.2740 C.ar  125  TYR125      0.0417
     26  CE2      -49.0710  -55.8910    1.9120 C.ar  125  TYR125      0.0417
     27  CZ       -48.8970  -55.6990    0.5510 C.ar  125  TYR125      0.1957
     28  OH       -47.6600  -55.5230   -0.0410 O.3   125  TYR125     -0.2866
     29  N        -51.2340  -60.5990    1.3910 N.3   127  ALA127     -0.1231
     30  CA       -49.8460  -60.6880    1.8320 C.3   127  ALA127      0.1694
     31  C        -49.4650  -62.1150    2.2330 C.2   127  ALA127      0.2592
     32  O        -50.3340  -62.9610    2.4380 O.2   127  ALA127     -0.2718
     33  CB       -49.6180  -59.7290    2.9970 C.3   127  ALA127      0.0304
     34  N        -48.1620  -62.3600    2.3560 N.am  128  ASP128     -0.1974
     35  CA       -47.6340  -63.6320    2.8320 C.3   128  ASP128      0.1709
     36  C        -48.2090  -64.8560    2.1310 C.2   128  ASP128      0.2293
     37  O        -48.8060  -65.7270    2.7730 O.2   128  ASP128     -0.2864
     38  CB       -47.8340  -63.7610    4.3430 C.3   128  ASP128      0.1436
     39  CG       -46.9070  -62.8440    5.1300 C.2   128  ASP128      0.3671
     40  OD1      -46.3720  -61.8860    4.5290 O.co2 128  ASP128     -0.2456
     41  OD2      -46.7010  -63.0860    6.3420 O.co2 128  ASP128     -0.2456
     42  N        -46.9390  -60.9260   -2.7720 N.3   170  TYR170     -0.1241
     43  CA       -47.6980  -59.8650   -2.1430 C.3   170  TYR170      0.1605
     44  C        -48.6020  -59.2220   -3.1800 C.2   170  TYR170      0.2264
     45  O        -48.1400  -58.5070   -4.0500 O.2   170  TYR170     -0.2867
     46  CB       -46.7650  -58.8260   -1.5040 C.3   170  TYR170      0.0534
     47  CG       -46.1240  -59.2980   -0.2310 C.ar  170  TYR170     -0.0201
     48  CD1      -44.9360  -60.0290   -0.2450 C.ar  170  TYR170     -0.0009
     49  CD2      -46.7170  -59.0270    0.9970 C.ar  170  TYR170     -0.0009
     50  CE1      -44.3560  -60.4740    0.9340 C.ar  170  TYR170      0.0417
     51  CE2      -46.1500  -59.4670    2.1870 C.ar  170  TYR170      0.0417
     52  CZ       -44.9640  -60.1860    2.1520 C.ar  170  TYR170      0.1957
     53  OH       -44.3950  -60.6250    3.3380 O.3   170  TYR170     -0.2866
     54  N        -47.0890  -51.3410    4.2160 N.3   178  PHE178     -0.1241
     55  CA       -46.2600  -52.1140    5.1150 C.3   178  PHE178      0.1605
     56  C        -45.6950  -51.1260    6.1110 C.2   178  PHE178      0.2264
     57  O        -45.3170  -50.0000    5.7320 O.2   178  PHE178     -0.2867
     58  CB       -45.1620  -52.9120    4.3710 C.3   178  PHE178      0.0534
     59  CG       -44.4360  -52.1530    3.2710 C.ar  178  PHE178     -0.0203
     60  CD1      -45.0580  -51.8490    2.0610 C.ar  178  PHE178     -0.0042
     61  CD2      -43.0890  -51.8100    3.4270 C.ar  178  PHE178     -0.0042
     62  CE1      -44.3720  -51.1830    1.0550 C.ar  178  PHE178     -0.0003
     63  CE2      -42.3840  -51.1370    2.4290 C.ar  178  PHE178     -0.0003
     64  CZ       -43.0180  -50.8280    1.2370 C.ar  178  PHE178     -0.0000
     65  N        -40.2530  -51.3270    9.6270 N.3   181  HIS181     -0.1241
     66  CA       -39.6090  -52.5070   10.1760 C.3   181  HIS181      0.1621
     67  C        -38.2720  -52.6670    9.5020 C.2   181  HIS181      0.2264
     68  O        -38.0800  -52.1350    8.4290 O.2   181  HIS181     -0.2867
     69  CB       -40.4580  -53.7520    9.9230 C.3   181  HIS181      0.0745
     70  CG       -40.5720  -54.0900    8.4670 C.ar  181  HIS181      0.0817
     71  ND1      -41.4460  -53.4420    7.6130 N.ar  181  HIS181     -0.2268
     72  CD2      -39.8560  -54.9400    7.6940 C.ar  181  HIS181      0.1154
     73  CE1      -41.2890  -53.9040    6.3860 C.ar  181  HIS181      0.1986
     74  NE2      -40.3370  -54.8260    6.4110 N.ar  181  HIS181     -0.2212
     75  N        -35.8020  -56.2060    8.4190 N.3   183  GLU183     -0.1231
     76  CA       -36.1240  -57.5890    8.1040 C.3   183  GLU183      0.1699
     77  C        -35.8100  -58.4770    9.3040 C.2   183  GLU183      0.2592
     78  O        -35.0640  -58.0750   10.2100 O.2   183  GLU183     -0.2718
     79  CB       -35.3680  -58.0570    6.8640 C.3   183  GLU183      0.0402
     80  CG       -35.7150  -57.2820    5.6120 C.3   183  GLU183      0.1161
     81  CD       -37.2120  -57.3610    5.2160 C.2   183  GLU183      0.3649
     82  OE1      -37.8050  -58.4700    5.2210 O.co2 183  GLU183     -0.2457
     83  OE2      -37.7930  -56.3030    4.8620 O.co2 183  GLU183     -0.2457
     84  N        -36.4070  -59.6680    9.3270 N.am  184  ASP184     -0.1974
     85  CA       -36.1680  -60.6200   10.4010 C.3   184  ASP184      0.1709
     86  C        -34.6720  -60.9010   10.4540 C.2   184  ASP184      0.2293
     87  O        -34.0340  -61.0220    9.4170 O.2   184  ASP184     -0.2864
     88  CB       -36.9640  -61.9210   10.1780 C.3   184  ASP184      0.1436
     89  CG       -38.4480  -61.7940   10.5620 C.2   184  ASP184      0.3671
     90  OD1      -38.7890  -60.9330   11.4130 O.co2 184  ASP184     -0.2456
     91  OD2      -39.2760  -62.5610   10.0060 O.co2 184  ASP184     -0.2456
     92  N        -33.2510  -58.0210    2.1430 N.3   189  SER189     -0.1217
     93  CA       -34.4180  -58.5000    1.4460 C.3   189  SER189      0.1889
     94  C        -34.3000  -58.0830   -0.0020 C.2   189  SER189      0.2288
     95  O        -33.5040  -57.2050   -0.3620 O.2   189  SER189     -0.2866
     96  CB       -35.7100  -57.9880    2.0850 C.3   189  SER189      0.2089
     97  OG       -35.9980  -56.6500    1.7250 O.3   189  SER189     -0.2183
     98  N        -37.1010  -57.5700   -3.4130 N.3   191  ASN191     -0.1240
     99  CA       -38.5280  -57.3900   -3.7010 C.3   191  ASN191      0.1653
    100  C        -38.6410  -57.0420   -5.1770 C.2   191  ASN191      0.2266
    101  O        -38.1250  -56.0130   -5.6240 O.2   191  ASN191     -0.2867
    102  CB       -39.1320  -56.2960   -2.7850 C.3   191  ASN191      0.1155
    103  CG       -40.6670  -56.0840   -2.9650 C.2   191  ASN191      0.2627
    104  OD1      -41.1470  -55.7210   -4.0410 O.2   191  ASN191     -0.2716
    105  ND2      -41.4090  -56.1840   -1.8590 N.am  191  ASN191     -0.0877
    106  N        -45.3250  -49.2480   -6.4080 N.3   199  LYS199     -0.1245
    107  CA       -45.1880  -49.4200   -4.9780 C.3   199  LYS199      0.1561
    108  C        -44.2280  -48.3420   -4.4700 C.2   199  LYS199      0.2260
    109  O        -43.1350  -48.2340   -4.9940 O.2   199  LYS199     -0.2867
    110  CB       -44.6580  -50.8300   -4.6850 C.3   199  LYS199      0.0271
    111  CG       -44.5170  -51.1800   -3.2430 C.3   199  LYS199      0.0035
    112  CD       -43.7420  -52.5060   -3.1060 C.3   199  LYS199      0.0206
    113  CE       -44.6460  -53.7030   -3.4520 C.3   199  LYS199      0.1093
    114  NZ       -45.7130  -53.7360   -2.4230 N.3   199  LYS199     -0.1314
    115  N        -41.8550  -46.4380   -1.4390 N.3   201  TRP201     -0.1241
    116  CA       -41.0420  -46.8480   -0.2990 C.3   201  TRP201      0.1605
    117  C        -40.4810  -45.6240    0.4340 C.2   201  TRP201      0.2264
    118  O        -40.1160  -44.6690   -0.1950 O.2   201  TRP201     -0.2867
    119  CB       -39.8610  -47.7150   -0.7530 C.3   201  TRP201      0.0550
    120  CG       -40.1930  -48.9940   -1.4300 C.ar  201  TRP201      0.0003
    121  CD1      -40.8040  -49.1480   -2.6270 C.ar  201  TRP201      0.0946
    122  CD2      -39.8630  -50.3210   -0.9720 C.ar  201  TRP201      0.0152
    123  NE1      -40.8920  -50.4860   -2.9510 N.ar  201  TRP201     -0.2442
    124  CE2      -40.3220  -51.2230   -1.9460 C.ar  201  TRP201      0.0810
    125  CE3      -39.2280  -50.8230    0.1650 C.ar  201  TRP201      0.0012
    126  CZ2      -40.2030  -52.5950   -1.8060 C.ar  201  TRP201      0.0191
    127  CZ3      -39.0950  -52.1870    0.2960 C.ar  201  TRP201      0.0001
    128  CH2      -39.5820  -53.0570   -0.6850 C.ar  201  TRP201      0.0015
    129  N        -43.2600  -56.0820   15.3410 N.3   233  HIS233     -0.1226
    130  CA       -44.6490  -56.5120   15.1400 C.3   233  HIS233      0.1752
    131  C        -45.1900  -55.9760   13.8270 C.2   233  HIS233      0.2595
    132  O        -46.2270  -56.4310   13.3570 O.2   233  HIS233     -0.2718
    133  CB       -45.5500  -56.0340   16.2760 C.3   233  HIS233      0.0759
    134  CG       -45.0950  -56.4730   17.6290 C.ar  233  HIS233      0.0818
    135  ND1      -45.5460  -55.8900   18.7920 N.ar  233  HIS233     -0.2268
    136  CD2      -44.2280  -57.4400   18.0040 C.ar  233  HIS233      0.1154
    137  CE1      -44.9690  -56.4750   19.8290 C.ar  233  HIS233      0.1986
    138  NE2      -44.1690  -57.4220   19.3760 N.ar  233  HIS233     -0.2212
    139  N        -44.4870  -54.9990   13.2460 N.am  234  LYS234     -0.1980
    140  CA       -44.8600  -54.4270   11.9610 C.3   234  LYS234      0.1596
    141  C        -46.2640  -53.8380   12.0140 C.2   234  LYS234      0.2287
    142  O        -47.0690  -54.0170   11.0930 O.2   234  LYS234     -0.2864
    143  CB       -44.7540  -55.4770   10.8430 C.3   234  LYS234      0.0298
    144  CG       -43.3170  -55.8640   10.4790 C.3   234  LYS234      0.0038
    145  CD       -43.1830  -57.3290   10.1050 C.3   234  LYS234      0.0206
    146  CE       -41.7220  -57.7350    9.9240 C.3   234  LYS234      0.1093
    147  NZ       -41.1710  -58.4980   11.0890 N.3   234  LYS234     -0.1314
    148  N        -37.6760  -49.5660    6.9120 N.3   269  HIS269     -0.1241
    149  CA       -38.4170  -49.1440    5.7340 C.3   269  HIS269      0.1621
    150  C        -39.9170  -49.3470    5.8800 C.2   269  HIS269      0.2264
    151  O        -40.3890  -50.0500    6.7660 O.2   269  HIS269     -0.2867
    152  CB       -37.8970  -49.8500    4.4610 C.3   269  HIS269      0.0745
    153  CG       -37.8770  -51.3290    4.5550 C.ar  269  HIS269      0.0817
    154  ND1      -36.9770  -52.0060    5.3450 N.ar  269  HIS269     -0.2268
    155  CD2      -38.6650  -52.2780    3.9860 C.ar  269  HIS269      0.1154
    156  CE1      -37.1920  -53.3080    5.2400 C.ar  269  HIS269      0.1986
    157  NE2      -38.2020  -53.5000    4.4110 N.ar  269  HIS269     -0.2212
    158  N        -46.0850  -58.4380   -6.0960 N.3   279  ALA279     -0.1245
    159  CA       -44.6630  -58.4310   -5.8420 C.3   279  ALA279      0.1562
    160  C        -44.2480  -59.7490   -5.1920 C.2   279  ALA279      0.2260
    161  O        -44.9910  -60.3180   -4.4150 O.2   279  ALA279     -0.2867
    162  CB       -44.2750  -57.2630   -4.9360 C.3   279  ALA279      0.0290
    163  N        -40.9750  -61.6070   -2.9940 N.3   281  SER281     -0.1217
    164  CA       -39.9210  -61.2190   -2.0590 C.3   281  SER281      0.1889
    165  C        -39.3030  -62.3600   -1.2300 C.2   281  SER281      0.2288
    166  O        -40.0100  -63.2970   -0.8650 O.2   281  SER281     -0.2866
    167  CB       -40.5010  -60.1580   -1.1100 C.3   281  SER281      0.2089
    168  OG       -39.6860  -59.9800    0.0350 O.3   281  SER281     -0.2183
@<TRIPOS>BOND
     1   106   107    1
     2   158   159    1
     3   159   160    1
     4   159   162    1
     5   101   100    2
     6   160   161    2
     7   100    99    1
     8   109   108    2
     9   107   110    1
    10   107   108    1
    11   110   111    1
    12    45    44    2
    13   104   103    2
    14    99    98    1
    15    99   102    1
    16   113   112    1
    17   113   114    1
    18   111   112    1
    19    44    43    1
    20   163   164    1
    21   103   102    1
    22   103   105   am
    23   123   121   ar
    24   123   124   ar
    25    42    43    1
    26   121   120   ar
    27    43    46    1
    28   164   165    1
    29   164   167    1
    30   124   126   ar
    31   124   122   ar
    32   126   128   ar
    33    46    47    1
    34   115   116    1
    35   120   122   ar
    36   120   119    1
    37   165   166    2
    38   167   168    1
    39   122   125   ar
    40   119   116    1
    41   128   127   ar
    42    95    94    2
    43   116   117    1
    44    25    23   ar
    45    25    27   ar
    46    48    47   ar
    47    48    50   ar
    48    47    49   ar
    49   118   117    2
    50    28    27    1
    51    94    93    1
    52   125   127   ar
    53    23    22   ar
    54    27    26   ar
    55    50    52   ar
    56    49    51   ar
    57    62    64   ar
    58    62    60   ar
    59    64    63   ar
    60    19    18    1
    61    19    20    2
    62    18    17    1
    63    18    21    1
    64    29    30    1
    65    93    96    1
    66    93    92    1
    67    22    21    1
    68    22    24   ar
    69    97    96    1
    70    30    31    1
    71    30    33    1
    72    26    24   ar
    73    60    59   ar
    74    36    37    2
    75    36    35    1
    76    52    51   ar
    77    52    53    1
    78    31    34   am
    79    31    32    2
    80    34    35    1
    81    63    61   ar
    82    35    38    1
    83    59    61   ar
    84    59    58    1
    85   155   157   ar
    86   155   153   ar
    87    54    55    1
    88     1     2    1
    89    38    39    1
    90     4     3    2
    91    58    55    1
    92   157   156   ar
    93   152   153    1
    94   152   149    1
    95    40    39   ar
    96   153   154   ar
    97    83    81   ar
    98    55    56    1
    99    39    41   ar
   100    81    82   ar
   101    81    80    1
   102   156   154   ar
   103     3     2    1
   104     2     5    1
   105    80    79    1
   106    57    56    2
   107   149   150    1
   108   149   148    1
   109     5     6    1
   110     5     7    1
   111   150   151    2
   112     6     8    1
   113    73    74   ar
   114    73    71   ar
   115    74    72   ar
   116    79    76    1
   117    71    70   ar
   118    72    70   ar
   119    76    75    1
   120    76    77    1
   121    15    14    2
   122    68    67    2
   123    70    69    1
   124    77    84   am
   125    77    78    2
   126    84    85    1
   127    87    86    2
   128    14    13    1
   129    14    16   am
   130    67    66    1
   131    65    66    1
   132    13    10    1
   133    69    66    1
   134   146   145    1
   135   146   147    1
   136    91    89   ar
   137   145   144    1
   138    88    85    1
   139    88    89    1
   140    10    11    1
   141    10     9    1
   142    85    86    1
   143   144   143    1
   144    11    12    2
   145    89    90   ar
   146   143   140    1
   147   142   141    2
   148   140   141    1
   149   140   139    1
   150   139   131   am
   151   132   131    2
   152   131   130    1
   153   130   129    1
   154   130   133    1
   155   133   134    1
   156   134   136   ar
   157   134   135   ar
   158   136   138   ar
   159   135   137   ar
   160   138   137   ar
