@<TRIPOS>MOLECULE
tmp/5a7yB00.pdb
 130 125 0 0 0
SMALL
GASTEIGER

@<TRIPOS>ATOM
      1  N         52.6980   18.7720   54.6250 N.3   112  GLN112     -0.1245
      2  CA        51.9270   19.4630   55.6660 C.3   112  GLN112      0.1566
      3  C         52.6950   19.5700   56.9430 C.2   112  GLN112      0.2260
      4  O         52.7040   20.6220   57.5850 O.2   112  GLN112     -0.2867
      5  CB        50.6070   18.7480   55.9120 C.3   112  GLN112      0.0367
      6  CG        49.5320   19.2370   54.9700 C.3   112  GLN112      0.0905
      7  CD        48.1930   18.5900   55.2320 C.2   112  GLN112      0.2608
      8  OE1       47.7790   18.3260   56.3900 O.2   112  GLN112     -0.2717
      9  NE2       47.5000   18.3480   54.1770 N.am  112  GLN112     -0.0878
     10  N         43.6900   16.0720   69.3530 N.3   159  LEU159     -0.1231
     11  CA        42.7820   16.6590   68.3920 C.3   159  LEU159      0.1693
     12  C         42.1180   15.6200   67.5260 C.2   159  LEU159      0.2592
     13  O         42.7530   14.8420   66.8860 O.2   159  LEU159     -0.2718
     14  CB        43.4760   17.6870   67.5810 C.3   159  LEU159      0.0284
     15  CG        43.2690   18.7750   68.5570 C.3   159  LEU159      0.0019
     16  CD1       44.0230   18.5040   69.8090 C.3   159  LEU159      0.0001
     17  CD2       43.5240   20.1390   68.0410 C.3   159  LEU159      0.0001
     18  N         40.8090   15.5950   67.5370 N.am  160  ASP160     -0.1960
     19  CA        40.0820   14.5010   66.9310 C.3   160  ASP160      0.1825
     20  C         38.7780   15.0270   66.3750 C.2   160  ASP160      0.2464
     21  O         37.9680   15.5980   67.1150 O.2   160  ASP160     -0.2730
     22  CB        39.7870   13.4350   67.9760 C.3   160  ASP160      0.1450
     23  CG        38.8890   12.3140   67.4490 C.2   160  ASP160      0.3671
     24  OD1       38.6620   12.2430   66.2230 O.co2 160  ASP160     -0.2456
     25  OD2       38.4600   11.4730   68.2730 O.co2 160  ASP160     -0.2456
     26  N         38.5730   14.8560   65.0650 N.am  161  PRO161     -0.2715
     27  CA        37.4150   15.4670   64.4330 C.3   161  PRO161      0.1536
     28  C         36.1790   14.6790   64.7320 C.2   161  PRO161      0.2598
     29  O         35.0950   15.1170   64.4060 O.2   161  PRO161     -0.2715
     30  CB        37.7650   15.4050   62.9410 C.3   161  PRO161      0.0310
     31  CG        38.6990   14.2510   62.8060 C.3   161  PRO161      0.0237
     32  CD        39.4810   14.2380   64.0720 C.3   161  PRO161      0.0939
     33  N         36.3370   13.5360   65.3770 N.am  162  TYR162     -0.1974
     34  CA        35.2240   12.8230   65.9760 C.3   162  TYR162      0.1639
     35  C         35.1180   12.9620   67.5100 C.2   162  TYR162      0.2290
     36  O         34.4030   12.1990   68.1460 O.2   162  TYR162     -0.2864
     37  CB        35.3330   11.3470   65.6280 C.3   162  TYR162      0.0560
     38  CG        34.7870   11.0040   64.2850 C.ar  162  TYR162     -0.0198
     39  CD1       35.5010   11.2670   63.1060 C.ar  162  TYR162     -0.0009
     40  CD2       33.5550   10.4080   64.1850 C.ar  162  TYR162     -0.0009
     41  CE1       34.9650   10.9360   61.8670 C.ar  162  TYR162      0.0417
     42  CE2       33.0260   10.0700   62.9650 C.ar  162  TYR162      0.0417
     43  CZ        33.7200   10.3410   61.8080 C.ar  162  TYR162      0.1957
     44  OH        33.1130    9.9650   60.6230 O.3   162  TYR162     -0.2866
     45  N         48.2390   15.9300   67.3420 N.3   180  ILE180     -0.1231
     46  CA        47.5510   16.0180   66.0760 C.3   180  ILE180      0.1692
     47  C         48.0090   14.8870   65.1670 C.2   180  ILE180      0.2593
     48  O         49.1980   14.6320   65.0650 O.2   180  ILE180     -0.2718
     49  CB        47.9370   17.3230   65.3860 C.3   180  ILE180      0.0266
     50  CG1       47.6350   18.4930   66.3060 C.3   180  ILE180      0.0019
     51  CG2       47.2280   17.4350   64.0620 C.3   180  ILE180      0.0020
     52  CD1       48.0960   19.8370   65.7780 C.3   180  ILE180      0.0001
     53  N         47.0710   14.2410   64.4690 N.am  181  GLY181     -0.1942
     54  CA        47.3720   13.0900   63.5870 C.3   181  GLY181      0.2014
     55  C         47.8720   13.5500   62.2290 C.2   181  GLY181      0.2639
     56  O         47.9340   14.7520   61.9890 O.2   181  GLY181     -0.2714
     57  N         48.2340   12.5990   61.3540 N.am  182  GLY182     -0.1954
     58  CA        48.1680   12.7620   59.8730 C.3   182  GLY182      0.1869
     59  C         47.4990   11.6260   59.1060 C.2   182  GLY182      0.2309
     60  O         46.6110   11.8490   58.2450 O.2   182  GLY182     -0.2863
     61  N         39.4170   16.1710   71.5370 N.3   195  VAL195     -0.1231
     62  CA        38.8460   17.4770   71.3840 C.3   195  VAL195      0.1692
     63  C         38.6230   17.7730   69.8900 C.2   195  VAL195      0.2592
     64  O         39.5060   17.5470   69.0360 O.2   195  VAL195     -0.2718
     65  CB        39.8060   18.5120   71.9450 C.3   195  VAL195      0.0266
     66  CG1       39.4060   19.8800   71.4710 C.3   195  VAL195      0.0020
     67  CG2       39.8250   18.4880   73.4640 C.3   195  VAL195      0.0020
     68  N         37.4490   18.2900   69.5860 N.am  196  LYS196     -0.1966
     69  CA        37.0250   18.5080   68.2540 C.3   196  LYS196      0.1728
     70  C         36.8650   19.9890   68.0580 C.2   196  LYS196      0.2616
     71  O         36.1880   20.6390   68.8720 O.2   196  LYS196     -0.2715
     72  CB        35.6740   17.8630   68.0500 C.3   196  LYS196      0.0311
     73  CG        34.9300   18.4410   66.8670 C.3   196  LYS196      0.0038
     74  CD        33.4910   18.0540   66.8990 C.3   196  LYS196      0.0206
     75  CE        33.3840   16.5760   66.5910 C.3   196  LYS196      0.1093
     76  NZ        31.9890   16.1840   66.2550 N.3   196  LYS196     -0.1314
     77  N         37.4410   20.5250   66.9710 N.am  197  ILE197     -0.1977
     78  CA        37.2590   21.9280   66.6590 C.3   197  ILE197      0.1596
     79  C         36.0340   22.1120   65.7200 C.2   197  ILE197      0.2287
     80  O         36.0030   21.5520   64.6370 O.2   197  ILE197     -0.2864
     81  CB        38.4810   22.5080   66.0140 C.3   197  ILE197      0.0276
     82  CG1       39.6820   22.2970   66.9190 C.3   197  ILE197      0.0022
     83  CG2       38.2660   23.9860   65.7580 C.3   197  ILE197      0.0022
     84  CD1       41.0300   22.5920   66.2790 C.3   197  ILE197      0.0001
     85  N         31.9970   21.0270   61.9040 N.3   203  ILE203     -0.1245
     86  CA        33.4160   21.0200   61.4690 C.3   203  ILE203      0.1561
     87  C         33.6030   21.3120   60.0060 C.2   203  ILE203      0.2260
     88  O         34.7340   21.3890   59.5050 O.2   203  ILE203     -0.2867
     89  CB        34.1370   19.6770   61.7050 C.3   203  ILE203      0.0252
     90  CG1       33.3980   18.5540   60.9750 C.3   203  ILE203      0.0019
     91  CG2       34.2530   19.3740   63.1850 C.3   203  ILE203      0.0019
     92  CD1       34.2120   17.2800   60.9530 C.3   203  ILE203      0.0001
     93  N         36.0110   24.0950   58.7630 N.3   206  VAL206     -0.1231
     94  CA        37.2170   24.0730   59.5650 C.3   206  VAL206      0.1678
     95  C         38.4020   23.4950   58.7720 C.2   206  VAL206      0.2434
     96  O         38.4160   22.3240   58.4470 O.2   206  VAL206     -0.2733
     97  CB        36.9730   23.2700   60.8450 C.3   206  VAL206      0.0265
     98  CG1       38.1660   23.2600   61.7430 C.3   206  VAL206      0.0020
     99  CG2       35.8150   23.8810   61.5970 C.3   206  VAL206      0.0020
    100  N         39.4270   24.3080   58.4980 N.am  207  PRO207     -0.2718
    101  CA        40.6160   23.7640   57.7860 C.3   207  PRO207      0.1535
    102  C         41.0420   22.4500   58.3800 C.2   207  PRO207      0.2598
    103  O         41.1630   22.3530   59.6080 O.2   207  PRO207     -0.2715
    104  CB        41.6890   24.8080   58.0680 C.3   207  PRO207      0.0310
    105  CG        40.9300   26.0680   58.3010 C.3   207  PRO207      0.0237
    106  CD        39.6990   25.6460   59.0620 C.3   207  PRO207      0.0939
    107  N         41.2500   21.4340   57.5720 N.am  208  ASP208     -0.1972
    108  CA        41.7260   20.1720   58.1230 C.3   208  ASP208      0.1709
    109  C         43.2480   19.8920   57.9400 C.2   208  ASP208      0.2293
    110  O         43.7340   18.7850   58.2310 O.2   208  ASP208     -0.2864
    111  CB        40.9270   19.0270   57.5490 C.3   208  ASP208      0.1436
    112  CG        41.3010   18.7230   56.1540 C.2   208  ASP208      0.3671
    113  OD1       42.0750   19.5200   55.5920 O.co2 208  ASP208     -0.2456
    114  OD2       40.8360   17.6990   55.6100 O.co2 208  ASP208     -0.2456
    115  N         47.0620   19.8440   58.7320 N.3   210  ILE210     -0.1245
    116  CA        47.8220   19.7110   59.9530 C.3   210  ILE210      0.1561
    117  C         48.3870   21.0360   60.3840 C.2   210  ILE210      0.2260
    118  O         48.3460   21.3770   61.5850 O.2   210  ILE210     -0.2867
    119  CB        48.9410   18.6850   59.7840 C.3   210  ILE210      0.0252
    120  CG1       48.3450   17.2830   59.6800 C.3   210  ILE210      0.0019
    121  CG2       49.8790   18.7650   60.9590 C.3   210  ILE210      0.0019
    122  CD1       49.3290   16.2360   59.2320 C.3   210  ILE210      0.0001
    123  N         45.5250   23.5490   61.5950 N.3   213  ILE213     -0.1245
    124  CA        45.0970   23.2160   62.9470 C.3   213  ILE213      0.1561
    125  C         46.0370   23.7590   64.0090 C.2   213  ILE213      0.2260
    126  O         45.6540   24.4260   64.9570 O.2   213  ILE213     -0.2867
    127  CB        45.0040   21.6960   63.1350 C.3   213  ILE213      0.0252
    128  CG1       43.8340   21.1290   62.3600 C.3   213  ILE213      0.0019
    129  CG2       44.8490   21.3350   64.6050 C.3   213  ILE213      0.0019
    130  CD1       42.4750   21.5980   62.8550 C.3   213  ILE213      0.0001
@<TRIPOS>BOND
     1     9     7   am
     2     1     2    1
     3     6     7    1
     4     6     5    1
     5     7     8    2
     6   113   112   ar
     7   114   112   ar
     8     2     5    1
     9     2     3    1
    10   112   111    1
    11     3     4    2
    12   111   108    1
    13   107   108    1
    14   107   102   am
    15   101   104    1
    16   101   102    1
    17   101   100    1
    18   109   108    1
    19   109   110    2
    20   104   105    1
    21    60    59    2
    22   105   106    1
    23   102   103    2
    24    96    95    2
    25   100    95   am
    26   100   106    1
    27   115   116    1
    28    93    94    1
    29    95    94    1
    30    59    58    1
    31   122   120    1
    32    88    87    2
    33    94    97    1
    34   120   119    1
    35   119   116    1
    36   119   121    1
    37    58    57    1
    38   116   117    1
    39    87    86    1
    40   117   118    2
    41    44    43    1
    42    97    99    1
    43    97    98    1
    44    92    90    1
    45    90    89    1
    46    57    55   am
    47    86    89    1
    48    86    85    1
    49   123   124    1
    50    89    91    1
    51    43    41   ar
    52    43    42   ar
    53    41    39   ar
    54    56    55    2
    55    55    54    1
    56   128   130    1
    57   128   127    1
    58    31    30    1
    59    31    32    1
    60    30    27    1
    61   124   127    1
    62   124   125    1
    63    42    40   ar
    64    39    38   ar
    65   127   129    1
    66    54    53    1
    67   125   126    2
    68    51    49    1
    69    32    26    1
    70    40    38   ar
    71    38    37    1
    72    29    28    2
    73    27    28    1
    74    27    26    1
    75    53    47   am
    76    80    79    2
    77    28    33   am
    78    26    20   am
    79    48    47    2
    80    47    46    1
    81    33    34    1
    82    49    46    1
    83    49    50    1
    84    37    34    1
    85    79    78    1
    86    83    81    1
    87    52    50    1
    88    34    35    1
    89    81    78    1
    90    81    82    1
    91    46    45    1
    92    24    23   ar
    93    76    75    1
    94    84    82    1
    95    20    19    1
    96    20    21    2
    97    75    74    1
    98    78    77    1
    99    73    74    1
   100    73    72    1
   101    13    12    2
   102    19    18    1
   103    19    22    1
   104    77    70   am
   105    23    22    1
   106    23    25   ar
   107    35    36    2
   108    12    18   am
   109    12    11    1
   110    14    11    1
   111    14    15    1
   112    17    15    1
   113    72    69    1
   114    70    69    1
   115    70    71    2
   116    69    68    1
   117    11    10    1
   118    15    16    1
   119    64    63    2
   120    68    63   am
   121    63    62    1
   122    62    61    1
   123    62    65    1
   124    66    65    1
   125    65    67    1
