@<TRIPOS>MOLECULE
tmp/5a80B00.pdb
 221 213 0 0 0
SMALL
GASTEIGER

@<TRIPOS>ATOM
      1  N        -55.8960  -60.0070    4.2610 N.3    63  ILE63      -0.1245
      2  CA       -55.7480  -59.2080    5.4690 C.3    63  ILE63       0.1561
      3  C        -56.4270  -57.8700    5.2490 C.2    63  ILE63       0.2260
      4  O        -55.9960  -57.0900    4.4030 O.2    63  ILE63      -0.2867
      5  CB       -54.2530  -59.0030    5.7990 C.3    63  ILE63       0.0252
      6  CG1      -53.5780  -60.3370    6.1440 C.3    63  ILE63       0.0019
      7  CG2      -54.0590  -58.0100    6.9130 C.3    63  ILE63       0.0019
      8  CD1      -54.0740  -60.9820    7.4190 C.3    63  ILE63       0.0001
      9  N        -51.8500  -50.0110   13.0400 N.3    76  GLN76      -0.1245
     10  CA       -52.5230  -50.7750   12.0060 C.3    76  GLN76       0.1566
     11  C        -52.8870  -52.1590   12.5050 C.2    76  GLN76       0.2260
     12  O        -52.0170  -52.9110   12.9260 O.2    76  GLN76      -0.2867
     13  CB       -51.6230  -50.8870   10.7660 C.3    76  GLN76       0.0367
     14  CG       -52.1730  -51.8230    9.7020 C.3    76  GLN76       0.0905
     15  CD       -51.4130  -51.7420    8.3890 C.2    76  GLN76       0.2608
     16  OE1      -51.7740  -50.9690    7.5020 O.2    76  GLN76      -0.2717
     17  NE2      -50.3500  -52.5350    8.2620 N.am   76  GLN76      -0.0878
     18  N        -54.1680  -55.8370   11.6160 N.3    78  ASN78      -0.1240
     19  CA       -54.1880  -56.7130   10.4550 C.3    78  ASN78       0.1653
     20  C        -55.0880  -57.9140   10.6760 C.2    78  ASN78       0.2266
     21  O        -54.6310  -58.9930   11.0580 O.2    78  ASN78      -0.2867
     22  CB       -52.7720  -57.1580   10.1060 C.3    78  ASN78       0.1155
     23  CG       -51.9260  -56.0180    9.5900 C.2    78  ASN78       0.2627
     24  OD1      -52.3880  -55.2070    8.7810 O.2    78  ASN78      -0.2716
     25  ND2      -50.6800  -55.9350   10.0580 N.am   78  ASN78      -0.0877
     26  N        -55.2790  -56.7710    1.7450 N.3   124  TYR124     -0.1241
     27  CA       -53.9240  -56.9890    1.2660 C.3   124  TYR124      0.1605
     28  C        -53.6660  -58.4830    1.1830 C.2   124  TYR124      0.2264
     29  O        -53.7320  -59.1750    2.1840 O.2   124  TYR124     -0.2867
     30  CB       -52.9250  -56.2990    2.2080 C.3   124  TYR124      0.0534
     31  CG       -51.5280  -56.0810    1.6650 C.ar  124  TYR124     -0.0201
     32  CD1      -51.2700  -56.1270    0.3050 C.ar  124  TYR124     -0.0009
     33  CD2      -50.4860  -55.7050    2.5140 C.ar  124  TYR124     -0.0009
     34  CE1      -49.9910  -55.8770   -0.2010 C.ar  124  TYR124      0.0417
     35  CE2      -49.2070  -55.4510    2.0130 C.ar  124  TYR124      0.0417
     36  CZ       -48.9710  -55.5440    0.6530 C.ar  124  TYR124      0.1957
     37  OH       -47.7180  -55.2820    0.1260 O.3   124  TYR124     -0.2866
     38  N        -51.2340  -60.4680    1.3400 N.3   126  ALA126     -0.1231
     39  CA       -49.8360  -60.5630    1.7610 C.3   126  ALA126      0.1694
     40  C        -49.4090  -61.9670    2.1780 C.2   126  ALA126      0.2592
     41  O        -50.2450  -62.8010    2.5410 O.2   126  ALA126     -0.2718
     42  CB       -49.5830  -59.5840    2.9260 C.3   126  ALA126      0.0304
     43  N        -48.0990  -62.2050    2.1380 N.am  127  ASP127     -0.1974
     44  CA       -47.4850  -63.4070    2.7090 C.3   127  ASP127      0.1709
     45  C        -47.9310  -64.7200    2.0580 C.2   127  ASP127      0.2293
     46  O        -48.1410  -65.7240    2.7530 O.2   127  ASP127     -0.2864
     47  CB       -47.7610  -63.4770    4.2160 C.3   127  ASP127      0.1436
     48  CG       -46.9230  -62.4860    5.0150 C.2   127  ASP127      0.3671
     49  OD1      -46.7560  -61.3340    4.5500 O.co2 127  ASP127     -0.2456
     50  OD2      -46.4220  -62.8640    6.1020 O.co2 127  ASP127     -0.2456
     51  N        -42.1210  -65.0490   -0.9800 N.3   167  TYR167     -0.1241
     52  CA       -43.4710  -64.6420   -0.6040 C.3   167  TYR167      0.1605
     53  C        -44.0490  -63.7930   -1.7280 C.2   167  TYR167      0.2264
     54  O        -43.3160  -63.0830   -2.4150 O.2   167  TYR167     -0.2867
     55  CB       -43.4700  -63.8200    0.6830 C.3   167  TYR167      0.0534
     56  CG       -43.6830  -64.5380    2.0050 C.ar  167  TYR167     -0.0201
     57  CD1      -43.9460  -65.9060    2.0740 C.ar  167  TYR167     -0.0009
     58  CD2      -43.6310  -63.8170    3.2010 C.ar  167  TYR167     -0.0009
     59  CE1      -44.1390  -66.5320    3.3080 C.ar  167  TYR167      0.0417
     60  CE2      -43.8260  -64.4240    4.4230 C.ar  167  TYR167      0.0417
     61  CZ       -44.0760  -65.7760    4.4800 C.ar  167  TYR167      0.1957
     62  OH       -44.2580  -66.3500    5.7220 O.3   167  TYR167     -0.2866
     63  N        -47.0020  -60.8100   -2.7350 N.3   169  TYR169     -0.1241
     64  CA       -47.8400  -59.7810   -2.1440 C.3   169  TYR169      0.1605
     65  C        -48.7480  -59.2020   -3.1910 C.2   169  TYR169      0.2264
     66  O        -48.2720  -58.5670   -4.1160 O.2   169  TYR169     -0.2867
     67  CB       -46.9970  -58.6560   -1.5390 C.3   169  TYR169      0.0534
     68  CG       -46.1730  -59.0650   -0.3560 C.ar  169  TYR169     -0.0201
     69  CD1      -44.9720  -59.7450   -0.5290 C.ar  169  TYR169     -0.0009
     70  CD2      -46.5830  -58.7640    0.9380 C.ar  169  TYR169     -0.0009
     71  CE1      -44.2090  -60.1260    0.5540 C.ar  169  TYR169      0.0417
     72  CE2      -45.8300  -59.1340    2.0210 C.ar  169  TYR169      0.0417
     73  CZ       -44.6410  -59.8180    1.8260 C.ar  169  TYR169      0.1957
     74  OH       -43.8710  -60.1990    2.9110 O.3   169  TYR169     -0.2866
     75  N        -50.6130  -51.0990    2.9710 N.3   176  SER176     -0.1202
     76  CA       -49.3950  -50.5380    3.5580 C.3   176  SER176      0.2020
     77  C        -48.4960  -51.5860    4.1560 C.2   176  SER176      0.2619
     78  O        -48.9620  -52.6320    4.6170 O.2   176  SER176     -0.2717
     79  CB       -49.7190  -49.5460    4.6730 C.3   176  SER176      0.2103
     80  OG       -50.8660  -48.7730    4.4050 O.3   176  SER176     -0.2182
     81  N        -47.2020  -51.2910    4.1820 N.am  177  PHE177     -0.1961
     82  CA       -46.3290  -52.0160    5.0880 C.3   177  PHE177      0.1771
     83  C        -45.7780  -51.0090    6.0990 C.2   177  PHE177      0.2619
     84  O        -45.2530  -49.9590    5.7320 O.2   177  PHE177     -0.2715
     85  CB       -45.2160  -52.7850    4.3480 C.3   177  PHE177      0.0574
     86  CG       -44.4790  -51.9930    3.2860 C.ar  177  PHE177     -0.0200
     87  CD1      -45.0750  -51.6980    2.0690 C.ar  177  PHE177     -0.0042
     88  CD2      -43.1500  -51.6140    3.4860 C.ar  177  PHE177     -0.0042
     89  CE1      -44.3910  -50.9880    1.0880 C.ar  177  PHE177     -0.0003
     90  CE2      -42.4550  -50.9160    2.5030 C.ar  177  PHE177     -0.0003
     91  CZ       -43.0800  -50.5950    1.3040 C.ar  177  PHE177     -0.0000
     92  N        -45.9420  -51.3280    7.3770 N.am  178  ALA178     -0.1977
     93  CA       -45.5280  -50.4440    8.4640 C.3   178  ALA178      0.1597
     94  C        -44.0000  -50.3710    8.6060 C.2   178  ALA178      0.2287
     95  O        -43.2810  -51.1470    7.9810 O.2   178  ALA178     -0.2864
     96  CB       -46.1590  -50.9170    9.7660 C.3   178  ALA178      0.0319
     97  N        -40.4130  -51.0680    9.7060 N.3   180  HIS180     -0.1226
     98  CA       -39.7220  -52.2360   10.2330 C.3   180  HIS180      0.1752
     99  C        -38.3600  -52.4180    9.5800 C.2   180  HIS180      0.2597
    100  O        -38.1240  -51.9150    8.4890 O.2   180  HIS180     -0.2718
    101  CB       -40.5650  -53.4940    9.9990 C.3   180  HIS180      0.0759
    102  CG       -40.6370  -53.9030    8.5590 C.ar  180  HIS180      0.0818
    103  ND1      -41.4620  -53.2810    7.6450 N.ar  180  HIS180     -0.2268
    104  CD2      -39.9740  -54.8660    7.8710 C.ar  180  HIS180      0.1154
    105  CE1      -41.3050  -53.8420    6.4570 C.ar  180  HIS180      0.1986
    106  NE2      -40.4130  -54.8120    6.5700 N.ar  180  HIS180     -0.2212
    107  N        -37.4750  -53.1550   10.2440 N.am  181  THR181     -0.1939
    108  CA       -36.3460  -53.7960    9.5670 C.3   181  THR181      0.2028
    109  C        -36.7060  -55.2700    9.2710 C.2   181  THR181      0.2642
    110  O        -37.7520  -55.7600    9.7110 O.2   181  THR181     -0.2714
    111  CB       -35.0610  -53.7260   10.4210 C.3   181  THR181      0.1808
    112  OG1      -35.2630  -54.3910   11.6760 O.3   181  THR181     -0.2208
    113  CG2      -34.7060  -52.2850   10.7160 C.3   181  THR181      0.0379
    114  N        -35.8590  -55.9830    8.5300 N.am  182  GLU182     -0.1963
    115  CA       -36.1280  -57.3940    8.2430 C.3   182  GLU182      0.1733
    116  C        -35.7930  -58.2670    9.4520 C.2   182  GLU182      0.2616
    117  O        -35.0820  -57.8140   10.3500 O.2   182  GLU182     -0.2715
    118  CB       -35.3310  -57.8470    7.0310 C.3   182  GLU182      0.0429
    119  CG       -35.6360  -57.0230    5.7800 C.3   182  GLU182      0.1163
    120  CD       -37.1100  -57.0900    5.3880 C.2   182  GLU182      0.3649
    121  OE1      -37.6210  -58.2320    5.2530 O.co2 182  GLU182     -0.2457
    122  OE2      -37.7600  -56.0090    5.2310 O.co2 182  GLU182     -0.2457
    123  N        -36.3160  -59.5010    9.4860 N.am  183  ASP183     -0.1971
    124  CA       -35.9750  -60.4510   10.5470 C.3   183  ASP183      0.1709
    125  C        -34.4530  -60.6030   10.6460 C.2   183  ASP183      0.2293
    126  O        -33.7730  -60.6180    9.6300 O.2   183  ASP183     -0.2864
    127  CB       -36.6180  -61.8250   10.2900 C.3   183  ASP183      0.1436
    128  CG       -38.1210  -61.8210   10.4970 C.2   183  ASP183      0.3671
    129  OD1      -38.5820  -61.3780   11.5710 O.co2 183  ASP183     -0.2456
    130  OD2      -38.8440  -62.2550    9.5720 O.co2 183  ASP183     -0.2456
    131  N        -33.1210  -57.5690    2.2320 N.3   188  SER188     -0.1217
    132  CA       -34.3760  -57.8740    1.5890 C.3   188  SER188      0.1889
    133  C        -34.2500  -57.6400    0.0830 C.2   188  SER188      0.2288
    134  O        -33.4780  -56.7790   -0.3600 O.2   188  SER188     -0.2866
    135  CB       -35.4800  -56.9820    2.1690 C.3   188  SER188      0.2089
    136  OG       -36.7530  -57.5680    2.0240 O.3   188  SER188     -0.2183
    137  N        -37.0490  -57.2220   -3.3500 N.3   190  ASN190     -0.1240
    138  CA       -38.4590  -57.1200   -3.6910 C.3   190  ASN190      0.1653
    139  C        -38.5660  -56.8780   -5.1930 C.2   190  ASN190      0.2266
    140  O        -37.9380  -55.9730   -5.7230 O.2   190  ASN190     -0.2867
    141  CB       -39.1250  -56.0040   -2.8530 C.3   190  ASN190      0.1155
    142  CG       -40.6230  -55.8380   -3.1380 C.2   190  ASN190      0.2627
    143  OD1      -41.0120  -55.5100   -4.2550 O.2   190  ASN190     -0.2716
    144  ND2      -41.4620  -56.0120   -2.1090 N.am  190  ASN190     -0.0877
    145  N        -45.3800  -49.1340   -6.3220 N.3   198  LYS198     -0.1245
    146  CA       -45.2800  -49.2890   -4.8800 C.3   198  LYS198      0.1561
    147  C        -44.3440  -48.2020   -4.3490 C.2   198  LYS198      0.2260
    148  O        -43.2080  -48.1060   -4.8020 O.2   198  LYS198     -0.2867
    149  CB       -44.7660  -50.6960   -4.5210 C.3   198  LYS198      0.0271
    150  CG       -44.5890  -50.9120   -3.0260 C.3   198  LYS198      0.0035
    151  CD       -43.8460  -52.2220   -2.6990 C.3   198  LYS198      0.0206
    152  CE       -44.5750  -53.4630   -3.2390 C.3   198  LYS198      0.1093
    153  NZ       -45.9010  -53.5670   -2.5910 N.3   198  LYS198     -0.1314
    154  N        -42.0300  -46.2530   -1.4070 N.3   200  TRP200     -0.1241
    155  CA       -41.2060  -46.6190   -0.2650 C.3   200  TRP200      0.1605
    156  C        -40.6750  -45.3930    0.4670 C.2   200  TRP200      0.2264
    157  O        -40.2840  -44.4180   -0.1650 O.2   200  TRP200     -0.2867
    158  CB       -40.0120  -47.4520   -0.7120 C.3   200  TRP200      0.0550
    159  CG       -40.3090  -48.7710   -1.3790 C.ar  200  TRP200      0.0003
    160  CD1      -40.8980  -48.9750   -2.6080 C.ar  200  TRP200      0.0946
    161  CD2      -39.9620  -50.0760   -0.8830 C.ar  200  TRP200      0.0152
    162  NE1      -40.9520  -50.3330   -2.8870 N.ar  200  TRP200     -0.2442
    163  CE2      -40.3850  -51.0220   -1.8470 C.ar  200  TRP200      0.0810
    164  CE3      -39.3400  -50.5330    0.2840 C.ar  200  TRP200      0.0012
    165  CZ2      -40.2210  -52.3830   -1.6680 C.ar  200  TRP200      0.0191
    166  CZ3      -39.1660  -51.8820    0.4520 C.ar  200  TRP200      0.0001
    167  CH2      -39.6060  -52.7980   -0.5190 C.ar  200  TRP200      0.0015
    168  N        -43.4910  -55.9010   15.2020 N.3   232  HIS232     -0.1226
    169  CA       -44.9030  -56.2630   15.0370 C.3   232  HIS232      0.1752
    170  C        -45.5000  -55.7130   13.7410 C.2   232  HIS232      0.2596
    171  O        -46.5750  -56.1510   13.3140 O.2   232  HIS232     -0.2718
    172  CB       -45.7330  -55.7620   16.2240 C.3   232  HIS232      0.0759
    173  CG       -45.2420  -56.2510   17.5490 C.ar  232  HIS232      0.0818
    174  ND1      -45.6210  -55.6750   18.7430 N.ar  232  HIS232     -0.2268
    175  CD2      -44.3960  -57.2580   17.8690 C.ar  232  HIS232      0.1154
    176  CE1      -45.0360  -56.3130   19.7420 C.ar  232  HIS232      0.1986
    177  NE2      -44.2860  -57.2750   19.2370 N.ar  232  HIS232     -0.2212
    178  N        -44.8130  -54.7450   13.1300 N.am  233  LYS233     -0.1966
    179  CA       -45.2510  -54.1500   11.8570 C.3   233  LYS233      0.1728
    180  C        -46.6830  -53.6480   11.9360 C.2   233  LYS233      0.2616
    181  O        -47.4990  -53.9100   11.0560 O.2   233  LYS233     -0.2715
    182  CB       -45.0890  -55.1510   10.7100 C.3   233  LYS233      0.0311
    183  CG       -43.6250  -55.6400   10.5840 C.3   233  LYS233      0.0038
    184  CD       -43.4220  -56.7480    9.5600 C.3   233  LYS233      0.0206
    185  CE       -42.0400  -57.4050    9.7570 C.3   233  LYS233      0.1093
    186  NZ       -41.9180  -58.2210   11.0240 N.3   233  LYS233     -0.1314
    187  N        -46.9680  -52.9140   13.0060 N.am  234  MET234     -0.1977
    188  CA       -48.2540  -52.2710   13.1960 C.3   234  MET234      0.1605
    189  C        -48.1340  -50.7510   13.2530 C.2   234  MET234      0.2287
    190  O        -49.1480  -50.0530   13.3730 O.2   234  MET234     -0.2864
    191  CB       -48.9090  -52.7760   14.4840 C.3   234  MET234      0.0413
    192  CG       -49.2350  -54.2520   14.4660 C.3   234  MET234      0.0598
    193  SD       -49.7130  -54.8590   16.1010 S.3   234  MET234     -0.1393
    194  CE       -51.1430  -53.8360   16.4680 C.3   234  MET234      0.0692
    195  N        -37.8270  -49.2960    6.8500 N.3   268  HIS268     -0.1241
    196  CA       -38.6090  -48.8720    5.6940 C.3   268  HIS268      0.1621
    197  C        -40.0930  -49.0970    5.8970 C.2   268  HIS268      0.2264
    198  O        -40.5250  -49.8330    6.7970 O.2   268  HIS268     -0.2867
    199  CB       -38.1440  -49.5900    4.4140 C.3   268  HIS268      0.0745
    200  CG       -38.2060  -51.0770    4.5060 C.ar  268  HIS268      0.0817
    201  ND1      -37.2980  -51.8120    5.2380 N.ar  268  HIS268     -0.2268
    202  CD2      -39.0810  -51.9700    3.9810 C.ar  268  HIS268      0.1154
    203  CE1      -37.6010  -53.0960    5.1420 C.ar  268  HIS268      0.1986
    204  NE2      -38.6750  -53.2190    4.3790 N.ar  268  HIS268     -0.2212
    205  N        -40.8740  -61.3300   -2.8300 N.3   280  SER280     -0.1217
    206  CA       -39.7130  -61.0000   -2.0170 C.3   280  SER280      0.1889
    207  C        -39.1810  -62.1540   -1.1890 C.2   280  SER280      0.2288
    208  O        -39.8690  -63.1420   -0.9400 O.2   280  SER280     -0.2866
    209  CB       -40.0380  -59.8330   -1.0780 C.3   280  SER280      0.2089
    210  OG       -41.3270  -59.9890   -0.5280 O.3   280  SER280     -0.2183
    211  N        -43.6080  -62.4500   21.7610 N.3   301  ARG301     -0.1245
    212  CA       -44.2020  -63.5700   21.0370 C.3   301  ARG301      0.1563
    213  C        -43.2040  -64.7280   20.9330 C.2   301  ARG301      0.2260
    214  O        -41.9890  -64.5100   20.9270 O.2   301  ARG301     -0.2867
    215  CB       -44.6530  -63.1470   19.6360 C.3   301  ARG301      0.0307
    216  CG       -45.5730  -61.9360   19.5820 C.3   301  ARG301      0.0489
    217  CD       -46.2960  -61.8610   18.2260 C.3   301  ARG301      0.2205
    218  NE       -47.0140  -60.5990   18.0190 N.pl3 301  ARG301     -0.0865
    219  CZ       -47.0640  -59.9230   16.8670 C.cat 301  ARG301      0.5346
    220  NH1      -46.4500  -60.3850   15.7760 N.pl3 301  ARG301      0.1354
    221  NH2      -47.7540  -58.7840   16.8020 N.pl3 301  ARG301      0.1354
@<TRIPOS>BOND
     1   145   146    1
     2   140   139    2
     3   139   138    1
     4   146   149    1
     5   146   147    1
     6   148   147    2
     7   149   150    1
     8   143   142    2
     9    66    65    2
    10   138   137    1
    11   138   141    1
    12   152   151    1
    13   152   153    1
    14    65    64    1
    15   142   141    1
    16   142   144   am
    17   150   151    1
    18   162   160   ar
    19   162   163   ar
    20   205   206    1
    21    63    64    1
    22   160   159   ar
    23    54    53    2
    24    64    67    1
    25   206   207    1
    26   206   209    1
    27   163   165   ar
    28   163   161   ar
    29    53    52    1
    30   165   167   ar
    31    67    68    1
    32   154   155    1
    33   159   161   ar
    34   159   158    1
    35   207   208    2
    36   209   210    1
    37    51    52    1
    38   161   164   ar
    39   158   155    1
    40    52    55    1
    41    69    68   ar
    42    69    71   ar
    43   167   166   ar
    44   134   133    2
    45    68    70   ar
    46   155   156    1
    47    34    32   ar
    48    34    36   ar
    49   157   156    2
    50   133   132    1
    51    37    36    1
    52   164   166   ar
    53    32    31   ar
    54    71    73   ar
    55    36    35   ar
    56    55    56    1
    57    70    72   ar
    58    89    91   ar
    59    89    87   ar
    60    28    27    1
    61    28    29    2
    62    27    26    1
    63    27    30    1
    64    91    90   ar
    65    38    39    1
    66   132   135    1
    67   132   131    1
    68    31    30    1
    69    31    33   ar
    70    39    40    1
    71    39    42    1
    72    73    72   ar
    73    73    74    1
    74    56    57   ar
    75    56    58   ar
    76    35    33   ar
    77   136   135    1
    78    45    44    1
    79    45    46    2
    80    87    86   ar
    81    57    59   ar
    82    43    40   am
    83    43    44    1
    84    40    41    2
    85    90    88   ar
    86    44    47    1
    87    75    76    1
    88    58    60   ar
    89    86    88   ar
    90    86    85    1
    91    59    61   ar
    92    76    77    1
    93    76    79    1
    94   202   204   ar
    95   202   200   ar
    96    77    81   am
    97    77    78    2
    98    81    82    1
    99    47    48    1
   100     1     2    1
   101    85    82    1
   102   204   203   ar
   103     4     3    2
   104    80    79    1
   105   199   200    1
   106   199   196    1
   107    60    61   ar
   108    61    62    1
   109   200   201   ar
   110    49    48   ar
   111    48    50   ar
   112    82    83    1
   113   203   201   ar
   114   122   120   ar
   115     3     2    1
   116   121   120   ar
   117   120   119    1
   118     2     5    1
   119   196   197    1
   120   196   195    1
   121    84    83    2
   122   119   118    1
   123     5     6    1
   124     5     7    1
   125   197   198    2
   126    83    92   am
   127     6     8    1
   128   105   106   ar
   129   105   103   ar
   130   106   104   ar
   131   118   115    1
   132    92    93    1
   133    16    15    2
   134   103   102   ar
   135   104   102   ar
   136    95    94    2
   137   115   114    1
   138   115   116    1
   139    17    15   am
   140    15    14    1
   141    93    94    1
   142    93    96    1
   143   100    99    2
   144   114   109   am
   145   102   101    1
   146    24    23    2
   147   109   108    1
   148   109   110    2
   149   116   123   am
   150   116   117    2
   151   123   124    1
   152   184   185    1
   153   184   183    1
   154   108   107    1
   155   108   111    1
   156   130   128   ar
   157    99    98    1
   158    99   107   am
   159    23    25   am
   160    23    22    1
   161   126   125    2
   162    14    13    1
   163    97    98    1
   164   185   186    1
   165   101    98    1
   166    22    19    1
   167   127   128    1
   168   127   124    1
   169   111   113    1
   170   111   112    1
   171    19    20    1
   172    19    18    1
   173   128   129   ar
   174   124   125    1
   175   183   182    1
   176    20    21    2
   177   182   179    1
   178    13    10    1
   179   181   180    2
   180   179   180    1
   181   179   178    1
   182   180   187   am
   183    10    11    1
   184    10     9    1
   185    11    12    2
   186   187   188    1
   187   178   170   am
   188   188   189    1
   189   188   191    1
   190   189   190    2
   191   171   170    2
   192   170   169    1
   193   192   191    1
   194   192   193    1
   195   169   168    1
   196   169   172    1
   197   220   219    1
   198   193   194    1
   199   172   173    1
   200   221   219    1
   201   219   218    2
   202   173   175   ar
   203   173   174   ar
   204   175   177   ar
   205   218   217    1
   206   217   216    1
   207   174   176   ar
   208   177   176   ar
   209   216   215    1
   210   215   212    1
   211   214   213    2
   212   213   212    1
   213   212   211    1
