@<TRIPOS>MOLECULE
tmp/5a81A00.pdb
 144 136 0 0 0
SMALL
GASTEIGER

@<TRIPOS>ATOM
      1  N        -24.8780   43.9090    0.5420 N.3    29  ARG29      -0.1231
      2  CA       -25.0230   45.3520    0.7150 C.3    29  ARG29       0.1694
      3  C        -24.8020   45.7650    2.1710 C.2    29  ARG29       0.2592
      4  O        -24.1450   46.7670    2.4350 O.2    29  ARG29      -0.2718
      5  CB       -26.4040   45.8200    0.2390 C.3    29  ARG29       0.0321
      6  CG       -26.5620   47.3370    0.1870 C.3    29  ARG29       0.0489
      7  CD       -28.0160   47.7770    0.2840 C.3    29  ARG29       0.2205
      8  NE       -28.7230   47.1030    1.3780 N.pl3  29  ARG29      -0.0865
      9  CZ       -28.5290   47.3260    2.6820 C.cat  29  ARG29       0.5346
     10  NH1      -27.6420   48.2230    3.1130 N.pl3  29  ARG29       0.1354
     11  NH2      -29.2310   46.6360    3.5720 N.pl3  29  ARG29       0.1354
     12  N        -25.3390   44.9880    3.1080 N.am   30  VAL30      -0.1966
     13  CA       -25.1920   45.2750    4.5500 C.3    30  VAL30       0.1727
     14  C        -23.7310   45.3350    5.0320 C.2    30  VAL30       0.2616
     15  O        -23.4320   45.9920    6.0310 O.2    30  VAL30      -0.2715
     16  CB       -25.9880   44.2570    5.4040 C.3    30  VAL30       0.0290
     17  CG1      -25.4080   42.8580    5.2640 C.3    30  VAL30       0.0023
     18  CG2      -26.0400   44.6790    6.8670 C.3    30  VAL30       0.0023
     19  N        -22.8260   44.6580    4.3300 N.am   31  PHE31      -0.1974
     20  CA       -21.4070   44.6580    4.6940 C.3    31  PHE31       0.1639
     21  C        -20.5660   45.6850    3.9240 C.2    31  PHE31       0.2290
     22  O        -19.3470   45.7160    4.0900 O.2    31  PHE31      -0.2864
     23  CB       -20.8120   43.2570    4.4870 C.3    31  PHE31       0.0560
     24  CG       -21.6090   42.1620    5.1250 C.ar   31  PHE31      -0.0200
     25  CD1      -21.7890   42.1320    6.5030 C.ar   31  PHE31      -0.0042
     26  CD2      -22.1840   41.1630    4.3570 C.ar   31  PHE31      -0.0042
     27  CE1      -22.5310   41.1300    7.0970 C.ar   31  PHE31      -0.0003
     28  CE2      -22.9260   40.1550    4.9480 C.ar   31  PHE31      -0.0003
     29  CZ       -23.1010   40.1400    6.3200 C.ar   31  PHE31      -0.0000
     30  N        -21.4620   50.3320   10.1990 N.3    35  VAL35      -0.1245
     31  CA       -22.7640   50.4000   10.8580 C.3    35  VAL35       0.1561
     32  C        -22.9880   51.8110   11.4020 C.2    35  VAL35       0.2260
     33  O        -22.1210   52.3570   12.0850 O.2    35  VAL35      -0.2867
     34  CB       -22.8590   49.3810   12.0160 C.3    35  VAL35       0.0252
     35  CG1      -24.1720   49.5380   12.7690 C.3    35  VAL35       0.0019
     36  CG2      -22.7140   47.9590   11.4870 C.3    35  VAL35       0.0019
     37  N        -28.5090   54.2300   14.2010 N.3    39  GLU39      -0.1231
     38  CA       -29.4190   53.1070   13.9680 C.3    39  GLU39       0.1699
     39  C        -29.1540   51.9530   14.9340 C.2    39  GLU39       0.2592
     40  O        -30.0920   51.3350   15.4350 O.2    39  GLU39      -0.2718
     41  CB       -29.2980   52.6070   12.5290 C.3    39  GLU39       0.0402
     42  CG       -29.7600   53.6080   11.4810 C.3    39  GLU39       0.1161
     43  CD       -29.2690   53.2600   10.0870 C.2    39  GLU39       0.3649
     44  OE1      -29.2660   52.0590    9.7390 O.co2  39  GLU39      -0.2457
     45  OE2      -28.8870   54.1850    9.3380 O.co2  39  GLU39      -0.2457
     46  N        -27.8760   51.6700   15.1890 N.am   40  VAL40      -0.1980
     47  CA       -27.4690   50.5580   16.0540 C.3    40  VAL40       0.1595
     48  C        -26.4660   51.0490   17.1110 C.2    40  VAL40       0.2287
     49  O        -25.2580   50.8910   16.9350 O.2    40  VAL40      -0.2864
     50  CB       -26.8390   49.4170   15.2260 C.3    40  VAL40       0.0276
     51  CG1      -26.7350   48.1550   16.0600 C.3    40  VAL40       0.0022
     52  CG2      -27.6520   49.1460   13.9690 C.3    40  VAL40       0.0022
     53  N        -23.6630   48.6340   18.8660 N.3    43  TYR43      -0.1241
     54  CA       -22.7400   47.9070   17.9910 C.3    43  TYR43       0.1605
     55  C        -21.2910   48.1650   18.3820 C.2    43  TYR43       0.2264
     56  O        -20.5140   47.2250   18.5390 O.2    43  TYR43      -0.2867
     57  CB       -22.9510   48.2680   16.5110 C.3    43  TYR43       0.0534
     58  CG       -22.2520   47.3090   15.5720 C.ar   43  TYR43      -0.0201
     59  CD1      -22.8690   46.1270   15.1650 C.ar   43  TYR43      -0.0009
     60  CD2      -20.9640   47.5660   15.1150 C.ar   43  TYR43      -0.0009
     61  CE1      -22.2290   45.2390   14.3140 C.ar   43  TYR43       0.0417
     62  CE2      -20.3140   46.6840   14.2660 C.ar   43  TYR43       0.0417
     63  CZ       -20.9470   45.5250   13.8690 C.ar   43  TYR43       0.1957
     64  OH       -20.2970   44.6520   13.0350 O.3    43  TYR43      -0.2866
     65  N        -20.6330   39.5200   12.3380 N.3    82  ALA82      -0.1245
     66  CA       -22.0580   39.3350   12.0640 C.3    82  ALA82       0.1562
     67  C        -22.6350   38.1580   12.8540 C.2    82  ALA82       0.2260
     68  O        -23.7720   38.2270   13.3240 O.2    82  ALA82      -0.2867
     69  CB       -22.3020   39.1420   10.5670 C.3    82  ALA82       0.0290
     70  N        -22.7340   39.4700   16.6340 N.3    85  TYR85      -0.1227
     71  CA       -23.7160   40.5050   16.9470 C.3    85  TYR85       0.1736
     72  C        -25.1670   40.0710   16.7130 C.2    85  TYR85       0.2595
     73  O        -26.0690   40.6030   17.3540 O.2    85  TYR85      -0.2718
     74  CB       -23.4270   41.8000   16.1820 C.3    85  TYR85       0.0548
     75  CG       -24.3080   42.9380   16.6400 C.ar   85  TYR85      -0.0200
     76  CD1      -24.0810   43.5650   17.8610 C.ar   85  TYR85      -0.0009
     77  CD2      -25.3930   43.3610   15.8770 C.ar   85  TYR85      -0.0009
     78  CE1      -24.8970   44.5960   18.3010 C.ar   85  TYR85       0.0417
     79  CE2      -26.2150   44.3900   16.3090 C.ar   85  TYR85       0.0417
     80  CZ       -25.9600   45.0030   17.5210 C.ar   85  TYR85       0.1957
     81  OH       -26.7680   46.0240   17.9600 O.3    85  TYR85      -0.2866
     82  N        -25.3870   39.1060   15.8200 N.am   86  ASN86      -0.1974
     83  CA       -26.7410   38.6520   15.4690 C.3    86  ASN86       0.1688
     84  C        -26.8820   37.1430   15.6710 C.2    86  ASN86       0.2292
     85  O        -26.9840   36.4000   14.6980 O.2    86  ASN86      -0.2864
     86  CB       -27.0700   38.9960   14.0050 C.3    86  ASN86       0.1181
     87  CG       -26.5950   40.3790   13.5950 C.2    86  ASN86       0.2629
     88  OD1      -27.3560   41.3430   13.6290 O.2    86  ASN86      -0.2716
     89  ND2      -25.3280   40.4790   13.1950 N.am   86  ASN86      -0.0877
     90  N        -29.3480   35.4050   17.3000 N.3    88  ASP88      -0.1239
     91  CA       -30.6950   34.9180   17.6290 C.3    88  ASP88       0.1674
     92  C        -31.3230   34.0390   16.5610 C.2    88  ASP88       0.2266
     93  O        -30.8690   33.9960   15.4160 O.2    88  ASP88      -0.2867
     94  CB       -31.6510   36.0890   17.8870 C.3    88  ASP88       0.1410
     95  CG       -31.3450   36.8340   19.1720 C.2    88  ASP88       0.3668
     96  OD1      -30.2570   36.6390   19.7550 O.co2  88  ASP88      -0.2456
     97  OD2      -32.2090   37.6300   19.5930 O.co2  88  ASP88      -0.2456
     98  N        -34.2430   34.7030   15.3930 N.3    90  ASP90      -0.1239
     99  CA       -35.1830   35.5230   14.6230 C.3    90  ASP90       0.1674
    100  C        -34.7510   35.5990   13.1530 C.2    90  ASP90       0.2266
    101  O        -33.5500   35.5520   12.8590 O.2    90  ASP90      -0.2867
    102  CB       -35.3790   36.9220   15.2400 C.3    90  ASP90       0.1410
    103  CG       -34.1740   37.8350   15.0740 C.2    90  ASP90       0.3668
    104  OD1      -33.8920   38.2780   13.9370 O.co2  90  ASP90      -0.2456
    105  OD2      -33.5280   38.1500   16.0980 O.co2  90  ASP90      -0.2456
    106  N        -34.4600   37.9470   10.9070 N.3    92  GLY92      -0.1210
    107  CA       -33.4810   38.9920   10.5890 C.3    92  GLY92       0.1956
    108  C        -32.0550   38.5710   10.8980 C.2    92  GLY92       0.2611
    109  O        -31.1740   38.6670   10.0420 O.2    92  GLY92      -0.2717
    110  N        -31.8350   38.0970   12.1230 N.am   93  ASP93      -0.1973
    111  CA       -30.5410   37.5420   12.5280 C.3    93  ASP93       0.1709
    112  C        -30.1040   36.3790   11.6340 C.2    93  ASP93       0.2293
    113  O        -28.9440   36.3180   11.2160 O.2    93  ASP93      -0.2864
    114  CB       -30.5710   37.0740   13.9870 C.3    93  ASP93       0.1436
    115  CG       -30.5010   38.2250   14.9740 C.2    93  ASP93       0.3671
    116  OD1      -31.0320   39.3150   14.6770 O.co2  93  ASP93      -0.2456
    117  OD2      -29.9050   38.0370   16.0550 O.co2  93  ASP93      -0.2456
    118  N        -30.9940   35.7210    8.5660 N.3    95  LEU95      -0.1231
    119  CA       -30.7200   36.2190    7.2150 C.3    95  LEU95       0.1693
    120  C        -29.3080   36.8060    7.1160 C.2    95  LEU95       0.2591
    121  O        -28.5720   36.5230    6.1660 O.2    95  LEU95      -0.2718
    122  CB       -31.7470   37.2960    6.8320 C.3    95  LEU95       0.0284
    123  CG       -31.5940   37.9730    5.4640 C.3    95  LEU95       0.0019
    124  CD1      -31.6060   36.9450    4.3560 C.3    95  LEU95       0.0001
    125  CD2      -32.7050   38.9900    5.2580 C.3    95  LEU95       0.0001
    126  N        -28.9290   37.6200    8.0900 N.am   96  ILE96      -0.1980
    127  CA       -27.6090   38.2540    8.0480 C.3    96  ILE96       0.1595
    128  C        -26.4930   37.2400    8.3180 C.2    96  ILE96       0.2287
    129  O        -25.4240   37.3470    7.7260 O.2    96  ILE96      -0.2864
    130  CB       -27.5090   39.4990    8.9620 C.3    96  ILE96       0.0276
    131  CG1      -26.2460   40.3020    8.6270 C.3    96  ILE96       0.0022
    132  CG2      -27.5490   39.1220   10.4370 C.3    96  ILE96       0.0022
    133  CD1      -26.2030   41.6660    9.2860 C.3    96  ILE96       0.0001
    134  N        -26.0090   35.4820    5.0050 N.3    99  ARG99      -0.1245
    135  CA       -25.2940   36.3430    4.0600 C.3    99  ARG99       0.1563
    136  C        -23.8210   36.4710    4.4210 C.2    99  ARG99       0.2260
    137  O        -22.9760   36.5290    3.5390 O.2    99  ARG99      -0.2867
    138  CB       -25.9110   37.7390    4.0180 C.3    99  ARG99       0.0307
    139  CG       -27.2850   37.7810    3.3780 C.3    99  ARG99       0.0489
    140  CD       -27.9750   39.0930    3.6840 C.3    99  ARG99       0.2205
    141  NE       -29.1190   39.3000    2.8110 N.pl3  99  ARG99      -0.0865
    142  CZ       -29.9550   40.3330    2.8850 C.cat  99  ARG99       0.5346
    143  NH1      -29.7890   41.2840    3.7900 N.pl3  99  ARG99       0.1354
    144  NH2      -30.9710   40.4060    2.0380 N.pl3  99  ARG99       0.1354
@<TRIPOS>BOND
     1     6     5    1
     2     6     7    1
     3     5     2    1
     4     7     8    1
     5     1     2    1
     6     2     3    1
     7     8     9    2
     8   144   142    1
     9     3     4    2
    10     3    12   am
    11     9    10    1
    12     9    11    1
    13   141   142    2
    14   141   140    1
    15   142   143    1
    16    12    13    1
    17   139   140    1
    18   139   138    1
    19   137   136    2
    20    21    22    2
    21    21    20    1
    22   138   135    1
    23   135   136    1
    24   135   134    1
    25    19    20    1
    26    19    14   am
    27   124   123    1
    28    26    28   ar
    29    26    24   ar
    30    23    20    1
    31    23    24    1
    32    13    14    1
    33    13    16    1
    34    28    29   ar
    35    14    15    2
    36    24    25   ar
    37   125   123    1
    38    17    16    1
    39    16    18    1
    40   123   122    1
    41   121   120    2
    42    29    27   ar
    43    25    27   ar
    44   122   119    1
    45   120   119    1
    46   120   126   am
    47   119   118    1
    48   129   128    2
    49   127   126    1
    50   127   128    1
    51   127   130    1
    52   131   130    1
    53   131   133    1
    54   130   132    1
    55    45    43   ar
    56    44    43   ar
    57   109   108    2
    58    43    42    1
    59    30    31    1
    60    69    66    1
    61   107   108    1
    62   107   106    1
    63    31    32    1
    64    31    34    1
    65   108   110   am
    66   113   112    2
    67    32    33    2
    68    42    41    1
    69    36    34    1
    70   112   111    1
    71    34    35    1
    72    66    65    1
    73    66    67    1
    74   110   111    1
    75   111   114    1
    76    41    38    1
    77    67    68    2
    78   101   100    2
    79    64    63    1
    80   100    99    1
    81    89    87   am
    82    87    88    2
    83    87    86    1
    84    63    62   ar
    85    63    61   ar
    86   104   103   ar
    87    38    37    1
    88    38    39    1
    89    52    50    1
    90   114   115    1
    91    86    83    1
    92    62    60   ar
    93    61    59   ar
    94    99   102    1
    95    99    98    1
    96   116   115   ar
    97    85    84    2
    98    39    46   am
    99    39    40    2
   100   115   117   ar
   101   103   102    1
   102   103   105   ar
   103    60    58   ar
   104    59    58   ar
   105    46    47    1
   106    50    47    1
   107    50    51    1
   108    93    92    2
   109    83    84    1
   110    83    82    1
   111    58    57    1
   112    82    72   am
   113    77    79   ar
   114    77    75   ar
   115    47    48    1
   116    74    75    1
   117    74    71    1
   118    79    80   ar
   119    57    54    1
   120    92    91    1
   121    70    71    1
   122    75    76   ar
   123    72    71    1
   124    72    73    2
   125    49    48    2
   126    90    91    1
   127    80    81    1
   128    80    78   ar
   129    91    94    1
   130    76    78   ar
   131    94    95    1
   132    54    55    1
   133    54    53    1
   134    55    56    2
   135    95    97   ar
   136    95    96   ar
