@<TRIPOS>MOLECULE
tmp/5a82A00.pdb
 153 144 0 0 0
SMALL
GASTEIGER

@<TRIPOS>ATOM
      1  N        -24.8680   43.6660    0.5270 N.3    29  ARG29      -0.1231
      2  CA       -25.0480   45.1070    0.7150 C.3    29  ARG29       0.1694
      3  C        -24.8140   45.5240    2.1620 C.2    29  ARG29       0.2592
      4  O        -24.1820   46.5470    2.4220 O.2    29  ARG29      -0.2718
      5  CB       -26.4530   45.5360    0.2880 C.3    29  ARG29       0.0321
      6  CG       -26.6870   47.0340    0.4020 C.3    29  ARG29       0.0489
      7  CD       -28.1400   47.3580    0.7180 C.3    29  ARG29       0.2205
      8  NE       -28.6020   46.6830    1.9290 N.pl3  29  ARG29      -0.0865
      9  CZ       -28.3130   47.0800    3.1650 C.cat  29  ARG29       0.5346
     10  NH1      -27.5590   48.1510    3.3660 N.pl3  29  ARG29       0.1354
     11  NH2      -28.7780   46.4000    4.2030 N.pl3  29  ARG29       0.1354
     12  N        -25.3110   44.7150    3.0950 N.am   30  VAL30      -0.1966
     13  CA       -25.1860   44.9920    4.5300 C.3    30  VAL30       0.1727
     14  C        -23.7240   45.0820    4.9980 C.2    30  VAL30       0.2616
     15  O        -23.4280   45.7720    5.9730 O.2    30  VAL30      -0.2715
     16  CB       -25.9480   43.9400    5.3720 C.3    30  VAL30       0.0290
     17  CG1      -25.3260   42.5560    5.2180 C.3    30  VAL30       0.0023
     18  CG2      -26.0080   44.3610    6.8380 C.3    30  VAL30       0.0023
     19  N        -22.8240   44.4060    4.2860 N.am   31  PHE31      -0.1974
     20  CA       -21.3920   44.4040    4.6170 C.3    31  PHE31       0.1639
     21  C        -20.5610   45.4410    3.8540 C.2    31  PHE31       0.2290
     22  O        -19.3450   45.4740    4.0110 O.2    31  PHE31      -0.2864
     23  CB       -20.8060   43.0110    4.3470 C.3    31  PHE31       0.0560
     24  CG       -21.5710   41.9000    4.9990 C.ar   31  PHE31      -0.0200
     25  CD1      -21.7500   41.8850    6.3740 C.ar   31  PHE31      -0.0042
     26  CD2      -22.1140   40.8690    4.2410 C.ar   31  PHE31      -0.0042
     27  CE1      -22.4660   40.8680    6.9850 C.ar   31  PHE31      -0.0003
     28  CE2      -22.8230   39.8440    4.8470 C.ar   31  PHE31      -0.0003
     29  CZ       -23.0050   39.8460    6.2190 C.ar   31  PHE31      -0.0000
     30  N        -20.6820   48.8830    3.9440 N.3    33  LYS33      -0.1245
     31  CA       -20.3420   50.0960    4.6920 C.3    33  LYS33       0.1561
     32  C        -20.3580   49.8180    6.1890 C.2    33  LYS33       0.2260
     33  O        -20.9830   48.8560    6.6320 O.2    33  LYS33      -0.2867
     34  CB       -21.3410   51.2140    4.3730 C.3    33  LYS33       0.0271
     35  CG       -21.4330   51.5950    2.9000 C.3    33  LYS33       0.0035
     36  CD       -20.1030   52.1200    2.3780 C.3    33  LYS33       0.0206
     37  CE       -20.1840   52.5850    0.9310 C.3    33  LYS33       0.1093
     38  NZ       -18.9090   53.2310    0.4970 N.3    33  LYS33      -0.1314
     39  N        -21.4370   49.9580   10.0940 N.3    35  VAL35      -0.1245
     40  CA       -22.7440   50.0530   10.7450 C.3    35  VAL35       0.1561
     41  C        -22.9840   51.4850   11.2270 C.2    35  VAL35       0.2260
     42  O        -22.1100   52.0880   11.8460 O.2    35  VAL35      -0.2867
     43  CB       -22.8440   49.0890   11.9490 C.3    35  VAL35       0.0252
     44  CG1      -24.1690   49.2700   12.6720 C.3    35  VAL35       0.0019
     45  CG2      -22.6800   47.6450   11.4950 C.3    35  VAL35       0.0019
     46  N        -28.6250   53.7890   13.7630 N.3    39  GLU39      -0.1231
     47  CA       -29.4670   52.6070   13.5790 C.3    39  GLU39       0.1699
     48  C        -29.1820   51.5590   14.6540 C.2    39  GLU39       0.2592
     49  O        -30.1090   51.0290   15.2660 O.2    39  GLU39      -0.2718
     50  CB       -29.2510   52.0010   12.1870 C.3    39  GLU39       0.0402
     51  CG       -30.1290   50.7900   11.8830 C.3    39  GLU39       0.1161
     52  CD       -29.9230   50.2360   10.4820 C.2    39  GLU39       0.3649
     53  OE1      -28.9620   50.6500    9.7970 O.co2  39  GLU39      -0.2457
     54  OE2      -30.7260   49.3740   10.0630 O.co2  39  GLU39      -0.2457
     55  N        -27.9010   51.2640   14.8740 N.am   40  VAL40      -0.1980
     56  CA       -27.4780   50.2140   15.8050 C.3    40  VAL40       0.1595
     57  C        -26.4780   50.7800   16.8210 C.2    40  VAL40       0.2287
     58  O        -25.2670   50.6920   16.6150 O.2    40  VAL40      -0.2864
     59  CB       -26.8340   49.0350   15.0430 C.3    40  VAL40       0.0276
     60  CG1      -26.6560   47.8420   15.9620 C.3    40  VAL40       0.0022
     61  CG2      -27.6740   48.6500   13.8350 C.3    40  VAL40       0.0022
     62  N        -23.6630   48.4720   18.7240 N.3    43  TYR43      -0.1241
     63  CA       -22.7420   47.7010   17.8790 C.3    43  TYR43       0.1605
     64  C        -21.2890   47.9530   18.2720 C.2    43  TYR43       0.2264
     65  O        -20.5270   47.0080   18.4750 O.2    43  TYR43      -0.2867
     66  CB       -22.9510   48.0190   16.3930 C.3    43  TYR43       0.0534
     67  CG       -22.2430   47.0480   15.4690 C.ar   43  TYR43      -0.0201
     68  CD1      -22.8480   45.8560   15.0840 C.ar   43  TYR43      -0.0009
     69  CD2      -20.9610   47.3160   14.9950 C.ar   43  TYR43      -0.0009
     70  CE1      -22.2020   44.9610   14.2450 C.ar   43  TYR43       0.0417
     71  CE2      -20.3040   46.4280   14.1570 C.ar   43  TYR43       0.0417
     72  CZ       -20.9280   45.2540   13.7850 C.ar   43  TYR43       0.1957
     73  OH       -20.2770   44.3670   12.9600 O.3    43  TYR43      -0.2866
     74  N        -20.5950   39.2360   12.2560 N.3    82  ALA82      -0.1245
     75  CA       -22.0160   39.0350   11.9570 C.3    82  ALA82       0.1562
     76  C        -22.6030   37.8860   12.7800 C.2    82  ALA82       0.2260
     77  O        -23.7180   37.9970   13.2920 O.2    82  ALA82      -0.2867
     78  CB       -22.2160   38.7930   10.4680 C.3    82  ALA82       0.0290
     79  N        -22.7290   39.2360   16.6020 N.3    85  TYR85      -0.1227
     80  CA       -23.6990   40.2790   16.9080 C.3    85  TYR85       0.1736
     81  C        -25.1460   39.8420   16.6600 C.2    85  TYR85       0.2595
     82  O        -26.0590   40.3550   17.3100 O.2    85  TYR85      -0.2718
     83  CB       -23.4020   41.5620   16.1240 C.3    85  TYR85       0.0548
     84  CG       -24.3030   42.6930   16.5480 C.ar   85  TYR85      -0.0200
     85  CD1      -24.0700   43.3850   17.7320 C.ar   85  TYR85      -0.0009
     86  CD2      -25.4200   43.0400   15.7920 C.ar   85  TYR85      -0.0009
     87  CE1      -24.9120   44.4070   18.1420 C.ar   85  TYR85       0.0417
     88  CE2      -26.2650   44.0590   16.1910 C.ar   85  TYR85       0.0417
     89  CZ       -26.0090   44.7370   17.3650 C.ar   85  TYR85       0.1957
     90  OH       -26.8490   45.7470   17.7600 O.3    85  TYR85      -0.2866
     91  N        -25.3500   38.8930   15.7450 N.am   86  ASN86      -0.1974
     92  CA       -26.6970   38.4240   15.3870 C.3    86  ASN86       0.1688
     93  C        -26.8650   36.9210   15.6170 C.2    86  ASN86       0.2292
     94  O        -27.0080   36.1630   14.6610 O.2    86  ASN86      -0.2864
     95  CB       -26.9970   38.7470   13.9190 C.3    86  ASN86       0.1181
     96  CG       -26.5840   40.1480   13.5310 C.2    86  ASN86       0.2629
     97  OD1      -27.3450   41.1030   13.6880 O.2    86  ASN86      -0.2716
     98  ND2      -25.3730   40.2770   13.0030 N.am   86  ASN86      -0.0877
     99  N        -29.3080   35.1630   17.2080 N.3    88  ASP88      -0.1239
    100  CA       -30.6420   34.6750   17.5770 C.3    88  ASP88       0.1674
    101  C        -31.2690   33.7910   16.5100 C.2    88  ASP88       0.2266
    102  O        -30.8030   33.7340   15.3710 O.2    88  ASP88      -0.2867
    103  CB       -31.5880   35.8450   17.8650 C.3    88  ASP88       0.1410
    104  CG       -31.0840   36.7580   18.9710 C.2    88  ASP88       0.3668
    105  OD1      -30.0450   36.4430   19.5900 O.co2  88  ASP88      -0.2456
    106  OD2      -31.7340   37.7970   19.2200 O.co2  88  ASP88      -0.2456
    107  N        -34.2230   34.3350   15.3240 N.3    90  ASP90      -0.1239
    108  CA       -35.1650   35.1400   14.5410 C.3    90  ASP90       0.1674
    109  C        -34.7100   35.2520   13.0830 C.2    90  ASP90       0.2266
    110  O        -33.5060   35.2170   12.8080 O.2    90  ASP90      -0.2867
    111  CB       -35.3910   36.5300   15.1690 C.3    90  ASP90       0.1410
    112  CG       -34.1690   37.4410   15.0830 C.2    90  ASP90       0.3668
    113  OD1      -33.8780   37.9840   13.9940 O.co2  90  ASP90      -0.2456
    114  OD2      -33.5180   37.6530   16.1260 O.co2  90  ASP90      -0.2456
    115  N        -34.4440   37.6400   10.9060 N.3    92  GLY92      -0.1210
    116  CA       -33.4980   38.7210   10.6330 C.3    92  GLY92       0.1956
    117  C        -32.0650   38.2880   10.9010 C.2    92  GLY92       0.2611
    118  O        -31.1930   38.4110   10.0340 O.2    92  GLY92      -0.2717
    119  N        -31.8350   37.7610   12.1020 N.am   93  ASP93      -0.1973
    120  CA       -30.5220   37.2480   12.4860 C.3    93  ASP93       0.1709
    121  C        -30.0920   36.0930   11.5910 C.2    93  ASP93       0.2293
    122  O        -28.9450   36.0470   11.1560 O.2    93  ASP93      -0.2864
    123  CB       -30.5110   36.8100   13.9600 C.3    93  ASP93       0.1436
    124  CG       -30.3780   37.9870   14.9200 C.2    93  ASP93       0.3671
    125  OD1      -30.7620   39.1170   14.5470 O.co2  93  ASP93      -0.2456
    126  OD2      -29.8700   37.7840   16.0450 O.co2  93  ASP93      -0.2456
    127  N        -30.9580   35.4690    8.5030 N.3    95  LEU95      -0.1231
    128  CA       -30.6710   35.9790    7.1640 C.3    95  LEU95       0.1693
    129  C        -29.2600   36.5550    7.0880 C.2    95  LEU95       0.2591
    130  O        -28.4790   36.1840    6.2050 O.2    95  LEU95      -0.2718
    131  CB       -31.6970   37.0500    6.7650 C.3    95  LEU95       0.0284
    132  CG       -31.4890   37.7650    5.4220 C.3    95  LEU95       0.0019
    133  CD1      -31.4410   36.7860    4.2570 C.3    95  LEU95       0.0001
    134  CD2      -32.5810   38.8020    5.2080 C.3    95  LEU95       0.0001
    135  N        -28.9330   37.4570    8.0080 N.am   96  ILE96      -0.1980
    136  CA       -27.6120   38.0870    7.9930 C.3    96  ILE96       0.1595
    137  C        -26.5050   37.0570    8.2400 C.2    96  ILE96       0.2287
    138  O        -25.4550   37.1330    7.6060 O.2    96  ILE96      -0.2864
    139  CB       -27.5020   39.2950    8.9600 C.3    96  ILE96       0.0276
    140  CG1      -26.2060   40.0700    8.6890 C.3    96  ILE96       0.0022
    141  CG2      -27.5800   38.8580   10.4180 C.3    96  ILE96       0.0022
    142  CD1      -26.0990   41.3850    9.4360 C.3    96  ILE96       0.0001
    143  N        -25.9810   35.2710    4.9850 N.3    99  ARG99      -0.1245
    144  CA       -25.2640   36.1820    4.0920 C.3    99  ARG99       0.1563
    145  C        -23.7860   36.2870    4.4530 C.2    99  ARG99       0.2260
    146  O        -22.9280   36.3320    3.5680 O.2    99  ARG99      -0.2867
    147  CB       -25.8970   37.5690    4.1390 C.3    99  ARG99       0.0307
    148  CG       -27.2360   37.6300    3.4340 C.3    99  ARG99       0.0489
    149  CD       -27.9420   38.9410    3.6960 C.3    99  ARG99       0.2205
    150  NE       -29.0550   39.1190    2.7740 N.pl3  99  ARG99      -0.0865
    151  CZ       -29.9100   40.1380    2.7960 C.cat  99  ARG99       0.5346
    152  NH1      -29.7910   41.1040    3.6970 N.pl3  99  ARG99       0.1354
    153  NH2      -30.8910   40.1870    1.9010 N.pl3  99  ARG99       0.1354
@<TRIPOS>BOND
     1     5     6    1
     2     5     2    1
     3     6     7    1
     4    38    37    1
     5     1     2    1
     6     2     3    1
     7     7     8    1
     8    37    36    1
     9   153   151    1
    10     8     9    2
    11     3     4    2
    12     3    12   am
    13    36    35    1
    14   150   151    2
    15   150   149    1
    16   151   152    1
    17    35    34    1
    18    12    13    1
    19     9    10    1
    20     9    11    1
    21   148   149    1
    22   148   147    1
    23   146   145    2
    24    21    22    2
    25    21    20    1
    26    30    31    1
    27   144   147    1
    28   144   145    1
    29   144   143    1
    30    26    28   ar
    31    26    24   ar
    32   133   132    1
    33    19    20    1
    34    19    14   am
    35    23    20    1
    36    23    24    1
    37    34    31    1
    38    13    14    1
    39    13    16    1
    40    31    32    1
    41    28    29   ar
    42    14    15    2
    43    24    25   ar
    44   134   132    1
    45    17    16    1
    46    16    18    1
    47   132   131    1
    48    32    33    2
    49   130   129    2
    50    29    27   ar
    51    25    27   ar
    52   131   128    1
    53   129   128    1
    54   129   135   am
    55   128   127    1
    56   138   137    2
    57   136   135    1
    58   136   137    1
    59   136   139    1
    60   140   139    1
    61   140   142    1
    62   139   141    1
    63    53    52   ar
    64   118   117    2
    65    54    52   ar
    66    39    40    1
    67    78    75    1
    68    52    51    1
    69   116   117    1
    70   116   115    1
    71    40    41    1
    72    40    43    1
    73   117   119   am
    74   122   121    2
    75    41    42    2
    76    45    43    1
    77   121   120    1
    78    51    50    1
    79    43    44    1
    80    75    74    1
    81    75    76    1
    82   119   120    1
    83    50    47    1
    84   120   123    1
    85    76    77    2
    86   110   109    2
    87    73    72    1
    88    98    96   am
    89   109   108    1
    90    96    97    2
    91    96    95    1
    92    47    46    1
    93    47    48    1
    94    72    71   ar
    95    72    70   ar
    96    61    59    1
    97    95    92    1
    98   123   124    1
    99   113   112   ar
   100    71    69   ar
   101    70    68   ar
   102   108   111    1
   103   108   107    1
   104   125   124   ar
   105    48    55   am
   106    48    49    2
   107    94    93    2
   108    55    56    1
   109   124   126   ar
   110    69    67   ar
   111    59    56    1
   112    59    60    1
   113   112   111    1
   114   112   114   ar
   115    68    67   ar
   116   102   101    2
   117    92    93    1
   118    92    91    1
   119    67    66    1
   120    91    81   am
   121    86    88   ar
   122    86    84   ar
   123    56    57    1
   124    83    84    1
   125    83    80    1
   126    88    89   ar
   127    66    63    1
   128   101   100    1
   129    84    85   ar
   130    79    80    1
   131    58    57    2
   132    81    80    1
   133    81    82    2
   134    99   100    1
   135    89    90    1
   136    89    87   ar
   137   100   103    1
   138    85    87   ar
   139   103   104    1
   140    63    64    1
   141    63    62    1
   142    64    65    2
   143   104   106   ar
   144   104   105   ar
