@<TRIPOS>MOLECULE
tmp/5a83A00.pdb
 159 152 0 0 0
SMALL
GASTEIGER

@<TRIPOS>ATOM
      1  N        -24.8790   43.6630    0.5180 N.3    29  ARG29      -0.1231
      2  CA       -25.0390   45.1070    0.6800 C.3    29  ARG29       0.1694
      3  C        -24.8430   45.5380    2.1270 C.2    29  ARG29       0.2592
      4  O        -24.2410   46.5770    2.3910 O.2    29  ARG29      -0.2718
      5  CB       -26.4170   45.5620    0.1920 C.3    29  ARG29       0.0321
      6  CG       -26.5100   47.0640   -0.0290 C.3    29  ARG29       0.0489
      7  CD       -27.8200   47.4610   -0.6900 C.3    29  ARG29       0.2205
      8  NE       -28.7160   48.1660    0.2230 N.pl3  29  ARG29      -0.0865
      9  CZ       -28.5780   49.4390    0.5920 C.cat  29  ARG29       0.5346
     10  NH1      -27.5640   50.1760    0.1420 N.pl3  29  ARG29       0.1354
     11  NH2      -29.4580   49.9790    1.4300 N.pl3  29  ARG29       0.1354
     12  N        -25.3470   44.7250    3.0530 N.am   30  VAL30      -0.1966
     13  CA       -25.2320   44.9880    4.4910 C.3    30  VAL30       0.1727
     14  C        -23.7730   45.0610    4.9800 C.2    30  VAL30       0.2616
     15  O        -23.4940   45.6850    6.0040 O.2    30  VAL30      -0.2715
     16  CB       -26.0300   43.9360    5.3070 C.3    30  VAL30       0.0290
     17  CG1      -25.4460   42.5390    5.1250 C.3    30  VAL30       0.0023
     18  CG2      -26.0990   44.3200    6.7810 C.3    30  VAL30       0.0023
     19  N        -22.8520   44.4430    4.2390 N.am   31  PHE31      -0.1974
     20  CA       -21.4290   44.4440    4.5880 C.3    31  PHE31       0.1639
     21  C        -20.5990   45.4760    3.8080 C.2    31  PHE31       0.2290
     22  O        -19.3800   45.5300    3.9790 O.2    31  PHE31      -0.2864
     23  CB       -20.8330   43.0450    4.3610 C.3    31  PHE31       0.0560
     24  CG       -21.6180   41.9370    5.0110 C.ar   31  PHE31      -0.0200
     25  CD1      -21.8260   41.9290    6.3860 C.ar   31  PHE31      -0.0042
     26  CD2      -22.1530   40.9050    4.2510 C.ar   31  PHE31      -0.0042
     27  CE1      -22.5600   40.9150    6.9900 C.ar   31  PHE31      -0.0003
     28  CE2      -22.8800   39.8850    4.8490 C.ar   31  PHE31      -0.0003
     29  CZ       -23.0830   39.8900    6.2200 C.ar   31  PHE31      -0.0000
     30  N        -19.4830   50.6910    6.8490 N.3    34  PRO34      -0.2102
     31  CA       -19.6200   50.5970    8.3070 C.3    34  PRO34       0.1504
     32  C        -21.0860   50.6770    8.7410 C.2    34  PRO34       0.2576
     33  O        -21.8910   51.3140    8.0640 O.2    34  PRO34      -0.2718
     34  CB       -18.8370   51.8170    8.8190 C.3    34  PRO34       0.0282
     35  CG       -17.8730   52.1480    7.7260 C.3    34  PRO34       0.0208
     36  CD       -18.5780   51.7840    6.4470 C.3    34  PRO34       0.0893
     37  N        -21.4300   50.0290    9.8490 N.am   35  VAL35      -0.1966
     38  CA       -22.8070   50.0560   10.3480 C.3    35  VAL35       0.1727
     39  C        -23.2340   51.4850   10.6780 C.2    35  VAL35       0.2616
     40  O        -22.4190   52.2960   11.1080 O.2    35  VAL35      -0.2715
     41  CB       -22.9980   49.1750   11.6040 C.3    35  VAL35       0.0290
     42  CG1      -22.6630   47.7220   11.2980 C.3    35  VAL35       0.0023
     43  CG2      -22.1600   49.6910   12.7670 C.3    35  VAL35       0.0023
     44  N        -24.5070   51.7880   10.4470 N.am   36  ASP36      -0.1971
     45  CA       -25.0860   53.0650   10.8550 C.3    36  ASP36       0.1709
     46  C        -25.3360   52.9950   12.3650 C.2    36  ASP36       0.2293
     47  O        -26.1510   52.1880   12.8100 O.2    36  ASP36      -0.2864
     48  CB       -26.3950   53.3180   10.0910 C.3    36  ASP36       0.1436
     49  CG       -27.0910   54.6160   10.4980 C.2    36  ASP36       0.3671
     50  OD1      -26.4880   55.4540   11.2000 O.co2  36  ASP36      -0.2456
     51  OD2      -28.2620   54.7950   10.1060 O.co2  36  ASP36      -0.2456
     52  N        -28.9450   52.8550   13.7090 N.3    39  GLU39      -0.1231
     53  CA       -29.6740   51.5920   13.5910 C.3    39  GLU39       0.1699
     54  C        -29.1780   50.5200   14.5630 C.2    39  GLU39       0.2592
     55  O        -29.9430   49.6340   14.9470 O.2    39  GLU39      -0.2718
     56  CB       -29.6180   51.0650   12.1540 C.3    39  GLU39       0.0402
     57  CG       -30.3730   51.9390   11.1610 C.3    39  GLU39       0.1161
     58  CD       -31.1090   51.1430   10.0990 C.2    39  GLU39       0.3649
     59  OE1      -31.7180   50.1030   10.4370 O.co2  39  GLU39      -0.2457
     60  OE2      -31.0940   51.5690    8.9240 O.co2  39  GLU39      -0.2457
     61  N        -27.9070   50.6000   14.9550 N.am   40  VAL40      -0.1980
     62  CA       -27.3210   49.6400   15.8940 C.3    40  VAL40       0.1595
     63  C        -26.4390   50.3680   16.9210 C.2    40  VAL40       0.2287
     64  O        -25.2110   50.3220   16.8350 O.2    40  VAL40      -0.2864
     65  CB       -26.5160   48.5460   15.1540 C.3    40  VAL40       0.0276
     66  CG1      -27.4550   47.6070   14.4110 C.3    40  VAL40       0.0022
     67  CG2      -25.5060   49.1630   14.1940 C.3    40  VAL40       0.0022
     68  N        -23.5560   48.5020   18.7720 N.3    43  TYR43      -0.1241
     69  CA       -22.6030   47.7720   17.9220 C.3    43  TYR43       0.1605
     70  C        -21.1560   48.0840   18.2990 C.2    43  TYR43       0.2264
     71  O        -20.3540   47.1690   18.4840 O.2    43  TYR43      -0.2867
     72  CB       -22.8310   48.0820   16.4360 C.3    43  TYR43       0.0534
     73  CG       -22.1570   47.0940   15.5020 C.ar   43  TYR43      -0.0201
     74  CD1      -22.7880   45.9050   15.1500 C.ar   43  TYR43      -0.0009
     75  CD2      -20.8870   47.3440   14.9790 C.ar   43  TYR43      -0.0009
     76  CE1      -22.1830   44.9930   14.3020 C.ar   43  TYR43       0.0417
     77  CE2      -20.2690   46.4370   14.1240 C.ar   43  TYR43       0.0417
     78  CZ       -20.9230   45.2640   13.7900 C.ar   43  TYR43       0.1957
     79  OH       -20.3300   44.3520   12.9550 O.3    43  TYR43      -0.2866
     80  N        -20.6100   39.2930   12.2610 N.3    82  ALA82      -0.1245
     81  CA       -22.0350   39.1050   11.9800 C.3    82  ALA82       0.1562
     82  C        -22.6210   37.9630   12.8100 C.2    82  ALA82       0.2260
     83  O        -23.7240   38.0860   13.3350 O.2    82  ALA82      -0.2867
     84  CB       -22.2650   38.8630   10.4890 C.3    82  ALA82       0.0290
     85  N        -22.6980   39.3410   16.5530 N.3    85  TYR85      -0.1227
     86  CA       -23.6800   40.3860   16.8390 C.3    85  TYR85       0.1736
     87  C        -25.1310   39.9510   16.5990 C.2    85  TYR85       0.2595
     88  O        -26.0410   40.4830   17.2300 O.2    85  TYR85      -0.2718
     89  CB       -23.3800   41.6510   16.0320 C.3    85  TYR85       0.0548
     90  CG       -24.2600   42.8120   16.4290 C.ar   85  TYR85      -0.0200
     91  CD1      -24.0160   43.5280   17.6010 C.ar   85  TYR85      -0.0009
     92  CD2      -25.3570   43.1780   15.6520 C.ar   85  TYR85      -0.0009
     93  CE1      -24.8320   44.5840   17.9790 C.ar   85  TYR85       0.0417
     94  CE2      -26.1760   44.2320   16.0200 C.ar   85  TYR85       0.0417
     95  CZ       -25.9100   44.9320   17.1820 C.ar   85  TYR85       0.1957
     96  OH       -26.7230   45.9800   17.5420 O.3    85  TYR85      -0.2866
     97  N        -25.3400   38.9860   15.7040 N.am   86  ASN86      -0.1974
     98  CA       -26.6870   38.5320   15.3370 C.3    86  ASN86       0.1688
     99  C        -26.8530   37.0320   15.5810 C.2    86  ASN86       0.2292
    100  O        -27.0270   36.2690   14.6340 O.2    86  ASN86      -0.2864
    101  CB       -26.9600   38.8400   13.8550 C.3    86  ASN86       0.1181
    102  CG       -26.5690   40.2520   13.4630 C.2    86  ASN86       0.2629
    103  OD1      -27.3660   41.1790   13.5710 O.2    86  ASN86      -0.2716
    104  ND2      -25.3380   40.4160   12.9800 N.am   86  ASN86      -0.0877
    105  N        -29.2430   35.2450   17.1600 N.3    88  ASP88      -0.1239
    106  CA       -30.5630   34.7400   17.5490 C.3    88  ASP88       0.1674
    107  C        -31.2340   33.8930   16.4790 C.2    88  ASP88       0.2266
    108  O        -30.7870   33.8430   15.3300 O.2    88  ASP88      -0.2867
    109  CB       -31.4860   35.8990   17.9410 C.3    88  ASP88       0.1410
    110  CG       -30.9760   36.6750   19.1460 C.2    88  ASP88       0.3668
    111  OD1      -30.0600   36.1840   19.8400 O.co2  88  ASP88      -0.2456
    112  OD2      -31.5010   37.7800   19.4030 O.co2  88  ASP88      -0.2456
    113  N        -34.2320   34.4420   15.3080 N.3    90  ASP90      -0.1239
    114  CA       -35.1860   35.2190   14.5110 C.3    90  ASP90       0.1674
    115  C        -34.7310   35.2980   13.0500 C.2    90  ASP90       0.2266
    116  O        -33.5310   35.2450   12.7740 O.2    90  ASP90      -0.2867
    117  CB       -35.4200   36.6270   15.0840 C.3    90  ASP90       0.1410
    118  CG       -34.1860   37.5030   15.0300 C.2    90  ASP90       0.3668
    119  OD1      -33.3430   37.3900   15.9390 O.co2  90  ASP90      -0.2456
    120  OD2      -34.0650   38.3210   14.0890 O.co2  90  ASP90      -0.2456
    121  N        -34.4360   37.6690   10.8650 N.3    92  GLY92      -0.1210
    122  CA       -33.4850   38.7390   10.5760 C.3    92  GLY92       0.1956
    123  C        -32.0450   38.3370   10.8610 C.2    92  GLY92       0.2611
    124  O        -31.1670   38.4960   10.0110 O.2    92  GLY92      -0.2717
    125  N        -31.8110   37.8060   12.0590 N.am   93  ASP93      -0.1973
    126  CA       -30.4920   37.3070   12.4500 C.3    93  ASP93       0.1709
    127  C        -30.0420   36.1520   11.5560 C.2    93  ASP93       0.2293
    128  O        -28.8900   36.1110   11.1250 O.2    93  ASP93      -0.2864
    129  CB       -30.4870   36.8510   13.9160 C.3    93  ASP93       0.1436
    130  CG       -30.3560   38.0100   14.8960 C.2    93  ASP93       0.3671
    131  OD1      -30.7620   39.1430   14.5640 O.co2  93  ASP93      -0.2456
    132  OD2      -29.8350   37.7830   16.0080 O.co2  93  ASP93      -0.2456
    133  N        -30.9410   35.4780    8.4900 N.3    95  LEU95      -0.1231
    134  CA       -30.6570   36.0030    7.1530 C.3    95  LEU95       0.1693
    135  C        -29.2450   36.5900    7.0700 C.2    95  LEU95       0.2591
    136  O        -28.4770   36.2250    6.1850 O.2    95  LEU95      -0.2718
    137  CB       -31.6900   37.0620    6.7520 C.3    95  LEU95       0.0284
    138  CG       -31.5090   37.7680    5.4010 C.3    95  LEU95       0.0019
    139  CD1      -31.4230   36.7700    4.2550 C.3    95  LEU95       0.0001
    140  CD2      -32.6380   38.7660    5.1750 C.3    95  LEU95       0.0001
    141  N        -28.9060   37.4950    7.9840 N.am   96  ILE96      -0.1980
    142  CA       -27.5900   38.1390    7.9480 C.3    96  ILE96       0.1595
    143  C        -26.4590   37.1280    8.2110 C.2    96  ILE96       0.2287
    144  O        -25.3960   37.2260    7.5970 O.2    96  ILE96      -0.2864
    145  CB       -27.5010   39.3680    8.8920 C.3    96  ILE96       0.0276
    146  CG1      -26.2180   40.1640    8.6080 C.3    96  ILE96       0.0022
    147  CG2      -27.5860   38.9500   10.3560 C.3    96  ILE96       0.0022
    148  CD1      -26.1460   41.5020    9.3240 C.3    96  ILE96       0.0001
    149  N        -25.9540   35.2840    4.9530 N.3    99  ARG99      -0.1245
    150  CA       -25.2370   36.1780    4.0400 C.3    99  ARG99       0.1563
    151  C        -23.7620   36.3350    4.4080 C.2    99  ARG99       0.2260
    152  O        -22.9050   36.4430    3.5250 O.2    99  ARG99      -0.2867
    153  CB       -25.8920   37.5560    4.0310 C.3    99  ARG99       0.0307
    154  CG       -27.2340   37.5870    3.3230 C.3    99  ARG99       0.0489
    155  CD       -27.9910   38.8580    3.6430 C.3    99  ARG99       0.2205
    156  NE       -29.0850   39.0730    2.7010 N.pl3  99  ARG99      -0.0865
    157  CZ       -29.9650   40.0660    2.7760 C.cat  99  ARG99       0.5346
    158  NH1      -29.8980   40.9590    3.7570 N.pl3  99  ARG99       0.1354
    159  NH2      -30.9240   40.1620    1.8590 N.pl3  99  ARG99       0.1354
@<TRIPOS>BOND
     1     7     6    1
     2     7     8    1
     3     6     5    1
     4    10     9    1
     5     5     2    1
     6     8     9    2
     7     1     2    1
     8     9    11    1
     9     2     3    1
    10   159   157    1
    11     3     4    2
    12     3    12   am
    13   156   157    2
    14   156   155    1
    15   157   158    1
    16    12    13    1
    17   154   155    1
    18   154   153    1
    19   152   151    2
    20    21    22    2
    21    21    20    1
    22   153   150    1
    23   150   151    1
    24   150   149    1
    25    19    20    1
    26    19    14   am
    27    26    28   ar
    28    26    24   ar
    29   139   138    1
    30    23    20    1
    31    23    24    1
    32    13    14    1
    33    13    16    1
    34    28    29   ar
    35    14    15    2
    36    24    25   ar
    37    17    16    1
    38   140   138    1
    39    16    18    1
    40   138   137    1
    41   136   135    2
    42    29    27   ar
    43    25    27   ar
    44    36    30    1
    45    36    35    1
    46   137   134    1
    47    30    31    1
    48   135   134    1
    49   135   141   am
    50   134   133    1
    51   144   143    2
    52    35    34    1
    53   142   141    1
    54   142   143    1
    55   142   145    1
    56    33    32    2
    57    31    32    1
    58    31    34    1
    59   146   145    1
    60   146   148    1
    61    32    37   am
    62   145   147    1
    63    60    58   ar
    64    37    38    1
    65   124   123    2
    66    48    49    1
    67    48    45    1
    68    58    59   ar
    69    58    57    1
    70    51    49   ar
    71    38    39    1
    72    38    41    1
    73    44    39   am
    74    44    45    1
    75    84    81    1
    76    49    50   ar
    77   122   123    1
    78   122   121    1
    79    39    40    2
    80    45    46    1
    81   123   125   am
    82   128   127    2
    83    57    56    1
    84    42    41    1
    85   127   126    1
    86    41    43    1
    87    81    80    1
    88    81    82    1
    89   125   126    1
    90    56    53    1
    91    46    47    2
    92   126   129    1
    93   116   115    2
    94    82    83    2
    95    79    78    1
    96   104   102   am
    97   115   114    1
    98   102   103    2
    99   102   101    1
   100    53    52    1
   101    53    54    1
   102    78    77   ar
   103    78    76   ar
   104   101    98    1
   105   129   130    1
   106   120   118   ar
   107    77    75   ar
   108    67    65    1
   109    76    74   ar
   110    66    65    1
   111   114   117    1
   112   114   113    1
   113    54    55    2
   114    54    61   am
   115   131   130   ar
   116   100    99    2
   117   130   132   ar
   118    61    62    1
   119    75    73   ar
   120   118   117    1
   121   118   119   ar
   122    74    73   ar
   123    65    62    1
   124   108   107    2
   125    98    99    1
   126    98    97    1
   127    73    72    1
   128    92    94   ar
   129    92    90   ar
   130    97    87   am
   131    62    63    1
   132    94    95   ar
   133    89    90    1
   134    89    86    1
   135    90    91   ar
   136    72    69    1
   137   107   106    1
   138    85    86    1
   139    87    86    1
   140    87    88    2
   141    64    63    2
   142   105   106    1
   143    95    96    1
   144    95    93   ar
   145   106   109    1
   146    91    93   ar
   147    69    70    1
   148    69    68    1
   149   109   110    1
   150    70    71    2
   151   110   112   ar
   152   110   111   ar
