@<TRIPOS>MOLECULE
tmp/5a85A00.pdb
 134 131 0 0 0
SMALL
GASTEIGER

@<TRIPOS>ATOM
      1  N          7.3510   -3.0850   12.8450 N.3    40  TRP40      -0.1228
      2  CA         8.7050   -3.3080   13.3790 C.3    40  TRP40       0.1722
      3  C          9.6540   -2.1210   13.4300 C.2    40  TRP40       0.2437
      4  O         10.4080   -1.9930   14.4000 O.2    40  TRP40      -0.2733
      5  CB         9.3540   -4.5290   12.7210 C.3    40  TRP40       0.0563
      6  CG         9.6250   -4.3710   11.2520 C.ar   40  TRP40       0.0003
      7  CD1        8.7890   -4.7010   10.1870 C.ar   40  TRP40       0.0946
      8  CD2       10.8300   -3.8270   10.6360 C.ar   40  TRP40       0.0152
      9  NE1        9.3860   -4.4090    8.9910 N.ar   40  TRP40      -0.2442
     10  CE2       10.6110   -3.8800    9.1900 C.ar   40  TRP40       0.0810
     11  CE3       12.0270   -3.3170   11.1180 C.ar   40  TRP40       0.0012
     12  CZ2       11.5600   -3.4400    8.2940 C.ar   40  TRP40       0.0191
     13  CZ3       12.9810   -2.8810   10.1980 C.ar   40  TRP40       0.0001
     14  CH2       12.7480   -2.9370    8.8190 C.ar   40  TRP40       0.0015
     15  N          9.6280   -1.2150   12.4290 N.am   41  PRO41      -0.2718
     16  CA        10.5060   -0.0430   12.5680 C.3    41  PRO41       0.1535
     17  C         10.1020    0.9060   13.7070 C.2    41  PRO41       0.2598
     18  O         10.8910    1.7750   14.0990 O.2    41  PRO41      -0.2715
     19  CB        10.3580    0.6720   11.2140 C.3    41  PRO41       0.0310
     20  CG         9.7250   -0.3260   10.2990 C.3    41  PRO41       0.0237
     21  CD         8.8290   -1.1230   11.1940 C.3    41  PRO41       0.0939
     22  N          8.8810    0.7360   14.2190 N.am   42  PHE42      -0.1974
     23  CA         8.3300    1.5800   15.2770 C.3    42  PHE42       0.1639
     24  C          8.2890    0.8760   16.6400 C.2    42  PHE42       0.2290
     25  O          7.7760    1.4370   17.5990 O.2    42  PHE42      -0.2864
     26  CB         6.9140    2.0200   14.8950 C.3    42  PHE42       0.0560
     27  CG         6.8310    2.6820   13.5540 C.ar   42  PHE42      -0.0200
     28  CD1        7.0910    4.0370   13.4180 C.ar   42  PHE42      -0.0042
     29  CD2        6.4910    1.9530   12.4280 C.ar   42  PHE42      -0.0042
     30  CE1        7.0210    4.6520   12.1810 C.ar   42  PHE42      -0.0003
     31  CE2        6.4170    2.5600   11.1900 C.ar   42  PHE42      -0.0003
     32  CZ         6.6850    3.9060   11.0640 C.ar   42  PHE42      -0.0000
     33  N         14.2760    4.9390   17.7290 N.3    46  VAL46      -0.1245
     34  CA        15.1260    5.0230   16.5490 C.3    46  VAL46       0.1561
     35  C         16.5930    5.0060   16.9850 C.2    46  VAL46       0.2260
     36  O         17.0310    5.8730   17.7460 O.2    46  VAL46      -0.2867
     37  CB        14.8390    6.2920   15.7250 C.3    46  VAL46       0.0252
     38  CG1       15.8830    6.4700   14.6250 C.3    46  VAL46       0.0019
     39  CG2       13.4350    6.2330   15.1300 C.3    46  VAL46       0.0019
     40  N         21.3010    2.5600   12.6460 N.3    51  LEU51      -0.1245
     41  CA        20.6140    2.8690   11.3890 C.3    51  LEU51       0.1561
     42  C         21.3820    3.8800   10.5350 C.2    51  LEU51       0.2260
     43  O         20.9650    4.1890    9.4160 O.2    51  LEU51      -0.2867
     44  CB        19.2030    3.4030   11.6640 C.3    51  LEU51       0.0270
     45  CG        18.2420    2.4380   12.3590 C.3    51  LEU51       0.0019
     46  CD1       16.9870    3.1660   12.8270 C.3    51  LEU51       0.0001
     47  CD2       17.8880    1.2850   11.4300 C.3    51  LEU51       0.0001
     48  N         21.7590    7.2240   10.9760 N.3    53  LEU53      -0.1245
     49  CA        20.9900    8.4450   10.7810 C.3    53  LEU53       0.1561
     50  C         21.5100    9.5030   11.7590 C.2    53  LEU53       0.2260
     51  O         20.8430    9.8180   12.7410 O.2    53  LEU53      -0.2867
     52  CB        19.4970    8.1780   11.0050 C.3    53  LEU53       0.0270
     53  CG        18.8390    7.1700   10.0590 C.3    53  LEU53       0.0019
     54  CD1       17.4250    6.8500   10.5250 C.3    53  LEU53       0.0001
     55  CD2       18.8310    7.6890    8.6270 C.3    53  LEU53       0.0001
     56  N         19.1340   12.4000   12.8450 N.3    56  TYR56      -0.1241
     57  CA        17.7740   12.1090   13.3030 C.3    56  TYR56       0.1605
     58  C         17.4070   12.9380   14.5310 C.2    56  TYR56       0.2264
     59  O         16.3640   13.6040   14.5520 O.2    56  TYR56      -0.2867
     60  CB        17.5560   10.6130   13.5920 C.3    56  TYR56       0.0534
     61  CG        16.1050   10.3290   13.9180 C.ar   56  TYR56      -0.0201
     62  CD1       15.1630   10.1840   12.9040 C.ar   56  TYR56      -0.0009
     63  CD2       15.6590   10.2710   15.2370 C.ar   56  TYR56      -0.0009
     64  CE1       13.8260    9.9620   13.1900 C.ar   56  TYR56       0.0417
     65  CE2       14.3210   10.0460   15.5320 C.ar   56  TYR56       0.0417
     66  CZ        13.4060    9.8900   14.5050 C.ar   56  TYR56       0.1957
     67  OH        12.0670    9.6770   14.7780 O.3    56  TYR56      -0.2866
     68  N          7.7070   10.7180   12.1580 N.3    95  CYS95      -0.1235
     69  CA         7.9380    9.9790   10.9210 C.3    95  CYS95       0.1677
     70  C          7.6470   10.8690    9.7120 C.2    95  CYS95       0.2270
     71  O          8.4340   10.9110    8.7620 O.2    95  CYS95      -0.2867
     72  CB         7.0750    8.7130   10.8850 C.3    95  CYS95       0.0956
     73  SG         7.4290    7.6100    9.5010 S.3    95  CYS95      -0.0801
     74  N         10.5570   13.7180    9.5720 N.3    98  TYR98      -0.1227
     75  CA        11.9300   13.3170    9.2500 C.3    98  TYR98       0.1736
     76  C         12.0760   12.7510    7.8330 C.2    98  TYR98       0.2595
     77  O         13.0690   13.0190    7.1550 O.2    98  TYR98      -0.2718
     78  CB        12.4600   12.3010   10.2650 C.3    98  TYR98       0.0548
     79  CG        13.8690   11.8550    9.9610 C.ar   98  TYR98      -0.0200
     80  CD1       14.9500   12.6940   10.2110 C.ar   98  TYR98      -0.0009
     81  CD2       14.1230   10.6080    9.4000 C.ar   98  TYR98      -0.0009
     82  CE1       16.2450   12.2980    9.9240 C.ar   98  TYR98       0.0417
     83  CE2       15.4160   10.2010    9.1080 C.ar   98  TYR98       0.0417
     84  CZ        16.4760   11.0490    9.3750 C.ar   98  TYR98       0.1957
     85  OH        17.7680   10.6550    9.0890 O.3    98  TYR98      -0.2866
     86  N         11.0920   11.9700    7.4000 N.am   99  ASN99      -0.1960
     87  CA        11.1530   11.2830    6.1120 C.3    99  ASN99       0.1819
     88  C         10.3580   12.0420    5.0530 C.2    99  ASN99       0.2621
     89  O          9.3320   12.6460    5.3630 O.2    99  ASN99      -0.2715
     90  CB        10.6200    9.8540    6.2650 C.3    99  ASN99       0.1195
     91  CG        11.2930    9.0980    7.4010 C.2    99  ASN99       0.2630
     92  OD1       12.4110    8.5930    7.2540 O.2    99  ASN99      -0.2716
     93  ND2       10.6110    9.0100    8.5440 N.am   99  ASN99      -0.0877
     94  N         10.8270   12.0150    3.8050 N.am  100  LYS100     -0.1977
     95  CA        10.1560   12.7540    2.7280 C.3   100  LYS100      0.1596
     96  C          8.8270   12.0930    2.3410 C.2   100  LYS100      0.2287
     97  O          8.6820   10.8740    2.4730 O.2   100  LYS100     -0.2864
     98  CB        11.0650   12.9010    1.5000 C.3   100  LYS100      0.0298
     99  CG        11.3710   11.6050    0.7670 C.3   100  LYS100      0.0038
    100  CD        12.2890   11.8430   -0.4230 C.3   100  LYS100      0.0206
    101  CE        12.7330   10.5340   -1.0580 C.3   100  LYS100      0.1093
    102  NZ        13.5210    9.6890   -0.1160 N.3   100  LYS100     -0.1314
    103  N          7.7900    8.3090    0.8640 N.3   103  ASP103     -0.1225
    104  CA         8.7180    7.2800    1.3530 C.3   103  ASP103      0.1805
    105  C          7.9250    6.0900    1.8700 C.2   103  ASP103      0.2598
    106  O          6.8490    6.2610    2.4410 O.2   103  ASP103     -0.2718
    107  CB         9.6080    7.8110    2.4900 C.3   103  ASP103      0.1424
    108  CG        10.9630    8.3040    2.0080 C.2   103  ASP103      0.3668
    109  OD1       11.1190    8.5760    0.7970 O.co2 103  ASP103     -0.2456
    110  OD2       11.8780    8.4140    2.8560 O.co2 103  ASP103     -0.2456
    111  N          8.4600    4.8870    1.6800 N.am  104  ASP104     -0.1960
    112  CA         7.7870    3.6770    2.1520 C.3   104  ASP104      0.1840
    113  C          7.4990    3.7340    3.6540 C.2   104  ASP104      0.2621
    114  O          6.4290    3.3140    4.0900 O.2   104  ASP104     -0.2715
    115  CB         8.6130    2.4260    1.8380 C.3   104  ASP104      0.1450
    116  CG         8.5130    1.9960    0.3770 C.2   104  ASP104      0.3671
    117  OD1        7.6350    2.5000   -0.3640 O.co2 104  ASP104     -0.2456
    118  OD2        9.3160    1.1330   -0.0260 O.co2 104  ASP104     -0.2456
    119  N          8.4430    4.2560    4.4380 N.am  105  ILE105     -0.1977
    120  CA         8.2520    4.3480    5.8950 C.3   105  ILE105      0.1596
    121  C          7.0720    5.2620    6.2340 C.2   105  ILE105      0.2287
    122  O          6.3450    5.0060    7.1940 O.2   105  ILE105     -0.2864
    123  CB         9.5340    4.8140    6.6290 C.3   105  ILE105      0.0276
    124  CG1        9.4170    4.6210    8.1520 C.3   105  ILE105      0.0022
    125  CG2        9.8590    6.2620    6.3000 C.3   105  ILE105      0.0022
    126  CD1        9.3390    3.1790    8.6070 C.3   105  ILE105      0.0001
    127  N          3.9140    3.3140    5.5430 N.3   108  MET108     -0.1245
    128  CA         3.7580    2.3750    6.6540 C.3   108  MET108      0.1570
    129  C          3.1350    3.0530    7.8720 C.2   108  MET108      0.2261
    130  O          2.1750    2.5410    8.4540 O.2   108  MET108     -0.2867
    131  CB         5.1120    1.7690    7.0220 C.3   108  MET108      0.0387
    132  CG         5.6310    0.8070    5.9680 C.3   108  MET108      0.0595
    133  SD         7.3800    0.4320    6.1190 S.3   108  MET108     -0.1393
    134  CE         7.3830   -0.7870    7.4300 C.3   108  MET108      0.0692
@<TRIPOS>BOND
     1   101   100    1
     2   101   102    1
     3   100    99    1
     4   117   116   ar
     5   118   116   ar
     6   116   115    1
     7    99    98    1
     8   109   108   ar
     9   103   104    1
    10   104   105    1
    11   104   107    1
    12    98    95    1
    13   111   105   am
    14   111   112    1
    15   115   112    1
    16   105   106    2
    17   108   107    1
    18   108   110   ar
    19   112   113    1
    20    96    97    2
    21    96    95    1
    22    95    94    1
    23   113   114    2
    24   113   119   am
    25    94    88   am
    26   119   120    1
    27    88    89    2
    28    88    87    1
    29   127   128    1
    30   120   121    1
    31   120   123    1
    32   132   133    1
    33   132   131    1
    34    87    90    1
    35    87    86    1
    36   133   134    1
    37   121   122    2
    38    90    91    1
    39   125   123    1
    40   123   124    1
    41   128   131    1
    42   128   129    1
    43    77    76    2
    44    92    91    2
    45    86    76   am
    46    91    93   am
    47    76    75    1
    48   129   130    2
    49   124   126    1
    50    12    14   ar
    51    12    10   ar
    52    55    53    1
    53    71    70    2
    54    14    13   ar
    55     9    10   ar
    56     9     7   ar
    57    85    84    1
    58    83    84   ar
    59    83    81   ar
    60    10     8   ar
    61    75    74    1
    62    75    78    1
    63    84    82   ar
    64    81    79   ar
    65    43    42    2
    66    73    72    1
    67    70    69    1
    68    82    80   ar
    69    79    80   ar
    70    79    78    1
    71    53    54    1
    72    53    52    1
    73     7     6   ar
    74    13    11   ar
    75    20    21    1
    76    20    19    1
    77    42    41    1
    78     8    11   ar
    79     8     6   ar
    80    49    48    1
    81    49    52    1
    82    49    50    1
    83    72    69    1
    84    69    68    1
    85    32    31   ar
    86    32    30   ar
    87    31    29   ar
    88    21    15    1
    89    19    16    1
    90     6     5    1
    91    41    44    1
    92    41    40    1
    93    47    45    1
    94    44    45    1
    95    50    51    2
    96    30    28   ar
    97    45    46    1
    98    29    27   ar
    99    15    16    1
   100    15     3   am
   101    16    17    1
   102     5     2    1
   103     1     2    1
   104    56    57    1
   105    62    64   ar
   106    62    61   ar
   107    64    66   ar
   108    57    60    1
   109    57    58    1
   110     2     3    1
   111    28    27   ar
   112     3     4    2
   113    27    26    1
   114    60    61    1
   115    17    18    2
   116    17    22   am
   117    61    63   ar
   118    22    23    1
   119    66    67    1
   120    66    65   ar
   121    58    59    2
   122    38    37    1
   123    26    23    1
   124    39    37    1
   125    63    65   ar
   126    23    24    1
   127    37    34    1
   128    34    35    1
   129    34    33    1
   130    24    25    2
   131    35    36    2
