@<TRIPOS>MOLECULE
tmp/5a86A00.pdb
 194 186 0 0 0
SMALL
GASTEIGER

@<TRIPOS>ATOM
      1  N         30.7900    1.7810   20.8900 N.3    50  SER50      -0.1202
      2  CA        31.0830    2.3550   22.1980 C.3    50  SER50       0.2020
      3  C         30.5490    3.7880   22.3750 C.2    50  SER50       0.2619
      4  O         30.8450    4.4390   23.3820 O.2    50  SER50      -0.2717
      5  CB        32.5830    2.2880   22.4630 C.3    50  SER50       0.2103
      6  OG        33.3270    2.9810   21.4770 O.3    50  SER50      -0.2182
      7  N         29.7430    4.2650   21.4140 N.am   51  LEU51      -0.1965
      8  CA        29.1190    5.5880   21.4860 C.3    51  LEU51       0.1728
      9  C         27.5910    5.4580   21.4980 C.2    51  LEU51       0.2616
     10  O         26.8760    6.3840   21.1040 O.2    51  LEU51      -0.2715
     11  CB        29.5740    6.4960   20.3320 C.3    51  LEU51       0.0311
     12  CG        31.0810    6.6820   20.0710 C.3    51  LEU51       0.0022
     13  CD1       31.2930    7.6680   18.9650 C.3    51  LEU51       0.0001
     14  CD2       31.8560    7.1780   21.2860 C.3    51  LEU51       0.0001
     15  N         27.0970    4.3110   21.9850 N.am   52  LYS52      -0.1963
     16  CA        25.6690    4.0100   22.0470 C.3    52  LYS52       0.1728
     17  C         25.0440    4.4540   23.3480 C.2    52  LYS52       0.2616
     18  O         25.5750    4.2060   24.4350 O.2    52  LYS52      -0.2715
     19  CB        25.3840    2.5140   21.8530 C.3    52  LYS52       0.0311
     20  CG        26.0290    1.8980   20.6310 C.3    52  LYS52       0.0038
     21  CD        25.4600    0.5430   20.3260 C.3    52  LYS52       0.0206
     22  CE        24.2780    0.7170   19.4220 C.3    52  LYS52       0.1093
     23  NZ        23.8560   -0.5640   18.8210 N.3    52  LYS52      -0.1314
     24  N         23.8700    5.0580   23.2200 N.am   53  VAL53      -0.1977
     25  CA        23.0170    5.5830   24.2820 C.3    53  VAL53       0.1596
     26  C         21.6150    5.7080   23.6670 C.2    53  VAL53       0.2287
     27  O         21.4940    5.9660   22.4610 O.2    53  VAL53      -0.2864
     28  CB        23.6050    6.9530   24.7650 C.3    53  VAL53       0.0276
     29  CG1       23.4520    8.0840   23.7420 C.3    53  VAL53       0.0022
     30  CG2       23.1350    7.3370   26.1460 C.3    53  VAL53       0.0022
     31  N         18.0340    7.7890   23.6890 N.3    55  LEU55      -0.1245
     32  CA        17.7380    9.1840   23.9750 C.3    55  LEU55       0.1561
     33  C         16.2750    9.3800   24.2790 C.2    55  LEU55       0.2260
     34  O         15.4270    8.8040   23.6100 O.2    55  LEU55      -0.2867
     35  CB        18.2120   10.0140   22.7620 C.3    55  LEU55       0.0270
     36  CG        17.8460   11.4680   22.5980 C.3    55  LEU55       0.0019
     37  CD1       18.8260   12.1510   21.6230 C.3    55  LEU55       0.0001
     38  CD2       16.4420   11.5960   22.0310 C.3    55  LEU55       0.0001
     39  N         23.5170    9.2340   15.3160 N.3    81  LEU81      -0.1245
     40  CA        23.5360   10.1200   16.4790 C.3    81  LEU81       0.1561
     41  C         24.6690   11.1540   16.4930 C.2    81  LEU81       0.2260
     42  O         24.6770   12.0290   17.3560 O.2    81  LEU81      -0.2867
     43  CB        23.5480    9.2910   17.7730 C.3    81  LEU81       0.0270
     44  CG        22.1700    8.8750   18.3150 C.3    81  LEU81       0.0019
     45  CD1       22.2700    7.9500   19.4430 C.3    81  LEU81       0.0001
     46  CD2       21.3170   10.0680   18.6880 C.3    81  LEU81       0.0001
     47  N         23.6960   14.9910   16.4800 N.3    84  HIS84      -0.1226
     48  CA        23.1710   15.3740   17.8040 C.3    84  HIS84       0.1752
     49  C         24.3070   15.4920   18.8090 C.2    84  HIS84       0.2595
     50  O         24.3640   16.4600   19.5610 O.2    84  HIS84      -0.2718
     51  CB        22.1660   14.3470   18.3470 C.3    84  HIS84       0.0759
     52  CG        21.6300   14.7100   19.7050 C.ar   84  HIS84       0.0818
     53  ND1       20.7200   15.7300   19.8580 N.ar   84  HIS84      -0.2268
     54  CD2       21.9380   14.2120   20.9290 C.ar   84  HIS84       0.1154
     55  CE1       20.4930   15.8280   21.1580 C.ar   84  HIS84       0.1986
     56  NE2       21.1990   14.9320   21.8410 N.ar   84  HIS84      -0.2212
     57  N         25.2070   14.5140   18.8110 N.am   85  MET85      -0.1979
     58  CA        26.3620   14.4760   19.7020 C.3    85  MET85       0.1605
     59  C         27.2210   15.7030   19.5000 C.2    85  MET85       0.2287
     60  O         27.7210   16.2710   20.4640 O.2    85  MET85      -0.2864
     61  CB        27.2000   13.2200   19.4230 C.3    85  MET85       0.0413
     62  CG        28.1140   12.8560   20.5540 C.3    85  MET85       0.0598
     63  SD        29.4780   11.7990   20.0310 S.3    85  MET85      -0.1393
     64  CE        30.6660   13.1060   19.4100 C.3    85  MET85       0.0692
     65  N         25.4590   18.6330   21.1570 N.3    88  MET88      -0.1230
     66  CA        25.5360   18.5670   22.6220 C.3    88  MET88       0.1702
     67  C         26.9280   18.9450   23.1070 C.2    88  MET88       0.2593
     68  O         27.0590   19.7600   24.0000 O.2    88  MET88      -0.2718
     69  CB        25.1480   17.1720   23.1460 C.3    88  MET88       0.0401
     70  CG        25.3020   17.0180   24.6820 C.3    88  MET88       0.0596
     71  SD        24.5390   18.3420   25.6800 S.3    88  MET88      -0.1393
     72  CE        23.0090   17.5690   26.2600 C.3    88  MET88       0.0692
     73  N         27.9610   18.3760   22.4830 N.am   89  SER89      -0.1952
     74  CA        29.3440   18.6370   22.8410 C.3    89  SER89       0.1924
     75  C         29.7100   20.1010   22.6480 C.2    89  SER89       0.2314
     76  O         30.3920   20.6860   23.4740 O.2    89  SER89      -0.2863
     77  CB        30.2900   17.7530   22.0170 C.3    89  SER89       0.2116
     78  OG        30.1880   16.3830   22.3670 O.3    89  SER89      -0.2180
     79  N         37.2070   18.3540   26.7840 N.3   123  PHE123     -0.1241
     80  CA        36.5730   17.0480   26.9880 C.3   123  PHE123      0.1605
     81  C         36.4390   16.7500   28.4860 C.2   123  PHE123      0.2264
     82  O         35.3830   16.3260   28.9670 O.2   123  PHE123     -0.2867
     83  CB        37.3990   15.9340   26.2950 C.3   123  PHE123      0.0534
     84  CG        36.8520   14.5390   26.5220 C.ar  123  PHE123     -0.0203
     85  CD1       35.7820   14.0690   25.7840 C.ar  123  PHE123     -0.0042
     86  CD2       37.3730   13.7160   27.5190 C.ar  123  PHE123     -0.0042
     87  CE1       35.2430   12.7940   26.0270 C.ar  123  PHE123     -0.0003
     88  CE2       36.8390   12.4300   27.7420 C.ar  123  PHE123     -0.0003
     89  CZ        35.7840   11.9780   26.9840 C.ar  123  PHE123     -0.0000
     90  N         33.0730   16.2330   30.8810 N.3   127  GLN127     -0.1245
     91  CA        32.7510   14.9850   31.5490 C.3   127  GLN127      0.1566
     92  C         32.5510   15.1840   33.0470 C.2   127  GLN127      0.2260
     93  O         31.6950   14.5460   33.6460 O.2   127  GLN127     -0.2867
     94  CB        33.8020   13.9080   31.2160 C.3   127  GLN127      0.0367
     95  CG        33.8440   13.5210   29.7270 C.3   127  GLN127      0.0905
     96  CD        32.5200   13.0040   29.2140 C.2   127  GLN127      0.2608
     97  OE1       31.8130   12.2340   29.8760 O.2   127  GLN127     -0.2717
     98  NE2       32.1290   13.4390   28.0410 N.am  127  GLN127     -0.0878
     99  N         29.1300   16.5660   33.2510 N.3   130  PHE130     -0.1241
    100  CA        28.1650   15.4960   32.9900 C.3   130  PHE130      0.1605
    101  C         28.0270   14.5870   34.1880 C.2   130  PHE130      0.2264
    102  O         26.9460   14.0970   34.4710 O.2   130  PHE130     -0.2867
    103  CB        28.5860   14.6630   31.7700 C.3   130  PHE130      0.0534
    104  CG        28.2000   15.2670   30.4380 C.ar  130  PHE130     -0.0203
    105  CD1       26.9300   15.7780   30.2290 C.ar  130  PHE130     -0.0042
    106  CD2       29.0940   15.2850   29.3850 C.ar  130  PHE130     -0.0042
    107  CE1       26.5700   16.3090   28.9820 C.ar  130  PHE130     -0.0003
    108  CE2       28.7460   15.8470   28.1570 C.ar  130  PHE130     -0.0003
    109  CZ        27.4880   16.3520   27.9620 C.ar  130  PHE130     -0.0000
    110  N         22.1450   10.0190   32.1490 N.3   141  TRP141     -0.1241
    111  CA        22.5530   11.4030   32.3000 C.3   141  TRP141      0.1605
    112  C         21.2920   12.2090   32.1200 C.2   141  TRP141      0.2264
    113  O         20.7010   12.2030   31.0370 O.2   141  TRP141     -0.2867
    114  CB        23.6010   11.7790   31.2600 C.3   141  TRP141      0.0550
    115  CG        24.9370   11.1690   31.5290 C.ar  141  TRP141      0.0003
    116  CD1       25.9140   11.6680   32.3290 C.ar  141  TRP141      0.0946
    117  CD2       25.4180    9.9210   31.0260 C.ar  141  TRP141      0.0152
    118  NE1       26.9840   10.8120   32.3460 N.ar  141  TRP141     -0.2442
    119  CE2       26.7090    9.7340   31.5490 C.ar  141  TRP141      0.0810
    120  CE3       24.8870    8.9380   30.1770 C.ar  141  TRP141      0.0012
    121  CZ2       27.4650    8.5980   31.2670 C.ar  141  TRP141      0.0191
    122  CZ3       25.6540    7.8190   29.8820 C.ar  141  TRP141      0.0001
    123  CH2       26.9230    7.6600   30.4210 C.ar  141  TRP141      0.0015
    124  N         19.7600   15.4570   31.5650 N.3   143  CYS143     -0.1235
    125  CA        20.0670   16.7680   31.0190 C.3   143  CYS143      0.1677
    126  C         18.8040   17.5740   30.7570 C.2   143  CYS143      0.2270
    127  O         18.4390   17.8000   29.6100 O.2   143  CYS143     -0.2867
    128  CB        20.9260   16.6440   29.7650 C.3   143  CYS143      0.0956
    129  SG        22.3990   15.6140   29.9670 S.3   143  CYS143     -0.0801
    130  N         19.8730   10.5590   28.5650 N.3   148  TYR148     -0.1241
    131  CA        20.6800    9.6300   27.8040 C.3   148  TYR148      0.1605
    132  C         20.9010    8.4160   28.6840 C.2   148  TYR148      0.2264
    133  O         21.5070    8.5170   29.7420 O.2   148  TYR148     -0.2867
    134  CB        22.0040   10.2720   27.3690 C.3   148  TYR148      0.0534
    135  CG        21.8440   11.5700   26.6140 C.ar  148  TYR148     -0.0201
    136  CD1       21.6920   11.5800   25.2270 C.ar  148  TYR148     -0.0009
    137  CD2       21.8360   12.7860   27.2770 C.ar  148  TYR148     -0.0009
    138  CE1       21.5460   12.7750   24.5210 C.ar  148  TYR148      0.0417
    139  CE2       21.7130   13.9900   26.5800 C.ar  148  TYR148      0.0417
    140  CZ        21.5740   13.9770   25.1990 C.ar  148  TYR148      0.1957
    141  OH        21.4480   15.1550   24.5110 O.3   148  TYR148     -0.2866
    142  N         22.2610    4.3960   29.0840 N.3   150  LEU150     -0.1245
    143  CA        23.1150    3.4000   28.4180 C.3   150  LEU150      0.1561
    144  C         22.3400    2.1290   28.1260 C.2   150  LEU150      0.2260
    145  O         21.5240    1.6980   28.9490 O.2   150  LEU150     -0.2867
    146  CB        24.3270    3.0560   29.2700 C.3   150  LEU150      0.0270
    147  CG        25.1360    4.2470   29.6740 C.3   150  LEU150      0.0019
    148  CD1       25.4140    4.2380   31.1380 C.3   150  LEU150      0.0001
    149  CD2       26.3250    4.4570   28.7540 C.3   150  LEU150      0.0001
    150  N         33.8970   -0.2900   29.7640 N.3   160  GLU160     -0.1245
    151  CA        34.0900    0.9670   29.0650 C.3   160  GLU160      0.1567
    152  C         34.6890    1.9720   30.0570 C.2   160  GLU160      0.2260
    153  O         34.0370    2.3220   31.0460 O.2   160  GLU160     -0.2867
    154  CB        32.7730    1.4660   28.4650 C.3   160  GLU160      0.0388
    155  CG        32.9130    2.6190   27.5000 C.3   160  GLU160      0.1160
    156  CD        33.7190    2.3450   26.2480 C.2   160  GLU160      0.3649
    157  OE1       33.2190    1.6210   25.3590 O.co2 160  GLU160     -0.2457
    158  OE2       34.8490    2.8750   26.1530 O.co2 160  GLU160     -0.2457
    159  N         35.1800    5.2460   30.1860 N.3   162  MET162     -0.1230
    160  CA        34.3820    6.4330   30.4800 C.3   162  MET162      0.1702
    161  C         33.1790    6.1080   31.3590 C.2   162  MET162      0.2592
    162  O         32.8390    6.8900   32.2380 O.2   162  MET162     -0.2718
    163  CB        33.9630    7.1600   29.1940 C.3   162  MET162      0.0401
    164  CG        33.6160    8.6240   29.4060 C.3   162  MET162      0.0596
    165  SD        34.9150    9.6280   30.1630 S.3   162  MET162     -0.1393
    166  CE        34.1100   10.1750   31.6200 C.3   162  MET162      0.0692
    167  N         32.5570    4.9540   31.1450 N.am  163  LEU163     -0.1980
    168  CA        31.4060    4.5320   31.9400 C.3   163  LEU163      0.1596
    169  C         31.8540    4.2080   33.3630 C.2   163  LEU163      0.2287
    170  O         31.2060    4.6300   34.3160 O.2   163  LEU163     -0.2864
    171  CB        30.7740    3.2970   31.3160 C.3   163  LEU163      0.0297
    172  CG        29.4570    3.4300   30.6390 C.3   163  LEU163      0.0022
    173  CD1       29.3590    2.4170   29.5250 C.3   163  LEU163      0.0001
    174  CD2       28.3690    3.0100   31.6050 C.3   163  LEU163      0.0001
    175  N         32.4730    7.3960   35.3150 N.3   166  HIS166     -0.1241
    176  CA        31.2920    8.0500   35.8410 C.3   166  HIS166      0.1621
    177  C         30.7460    7.3890   37.0910 C.2   166  HIS166      0.2264
    178  O         30.3740    8.0940   38.0360 O.2   166  HIS166     -0.2867
    179  CB        30.2180    8.1790   34.7570 C.3   166  HIS166      0.0745
    180  CG        30.4290    9.3780   33.8530 C.ar  166  HIS166      0.0817
    181  ND1       30.2070   10.6590   34.2930 N.ar  166  HIS166     -0.2268
    182  CD2       30.8710    9.4400   32.5770 C.ar  166  HIS166      0.1154
    183  CE1       30.5320   11.4500   33.2860 C.ar  166  HIS166      0.1986
    184  NE2       30.9290   10.7600   32.2300 N.ar  166  HIS166     -0.2212
    185  N         39.5400    9.0340   23.4560 N.3   246  HIS246     -0.1241
    186  CA        38.3280    9.5050   22.7890 C.3   246  HIS246      0.1621
    187  C         38.6890   10.4220   21.6340 C.2   246  HIS246      0.2264
    188  O         38.0430   10.3680   20.5890 O.2   246  HIS246     -0.2867
    189  CB        37.3840   10.1770   23.8070 C.3   246  HIS246      0.0745
    190  CG        36.1850   10.8220   23.2110 C.ar  246  HIS246      0.0817
    191  ND1       35.0270   10.1020   22.9710 N.ar  246  HIS246     -0.2268
    192  CD2       36.0160   12.0950   22.7830 C.ar  246  HIS246      0.1154
    193  CE1       34.1820   10.9650   22.4380 C.ar  246  HIS246      0.1986
    194  NE2       34.7360   12.1780   22.3030 N.ar  246  HIS246     -0.2212
@<TRIPOS>BOND
     1    39    40    1
     2    40    41    1
     3    40    43    1
     4    47    48    1
     5    41    42    2
     6    43    44    1
     7    48    51    1
     8    48    49    1
     9    44    46    1
    10    44    45    1
    11    51    52    1
    12    49    57   am
    13    49    50    2
    14    57    58    1
    15    23    22    1
    16    13    12    1
    17    64    63    1
    18    22    21    1
    19    61    58    1
    20    61    62    1
    21    59    58    1
    22    59    60    2
    23    52    53   ar
    24    52    54   ar
    25    53    55   ar
    26    63    62    1
    27    12    11    1
    28    12    14    1
    29    21    20    1
    30    11     8    1
    31   188   187    2
    32    20    19    1
    33     1     2    1
    34    54    56   ar
    35    10     9    2
    36    65    66    1
    37    55    56   ar
    38     7     8    1
    39     7     3   am
    40     6     5    1
    41     8     9    1
    42     9    15   am
    43    37    36    1
    44   187   186    1
    45    19    16    1
    46    15    16    1
    47    77    78    1
    48    77    74    1
    49    38    36    1
    50    16    17    1
    51     2     3    1
    52     2     5    1
    53   194   193   ar
    54   194   192   ar
    55     3     4    2
    56   193   191   ar
    57    27    26    2
    58    73    74    1
    59    73    67   am
    60    36    35    1
    61    66    67    1
    62    66    69    1
    63    75    74    1
    64    75    76    2
    65    35    32    1
    66   192   190   ar
    67   186   185    1
    68   186   189    1
    69   191   190   ar
    70    67    68    2
    71    69    70    1
    72   190   189    1
    73    24    17   am
    74    24    25    1
    75    17    18    2
    76    34    33    2
    77    26    25    1
    78    31    32    1
    79    29    28    1
    80    32    33    1
    81    25    28    1
    82   141   140    1
    83   138   140   ar
    84   138   136   ar
    85    70    71    1
    86    28    30    1
    87   140   139   ar
    88   136   135   ar
    89   157   156   ar
    90    71    72    1
    91    85    87   ar
    92    85    84   ar
    93    87    89   ar
    94   158   156   ar
    95   156   155    1
    96    83    84    1
    97    83    80    1
    98    84    86   ar
    99   139   137   ar
   100   135   137   ar
   101   135   134    1
   102    79    80    1
   103    89    88   ar
   104    80    81    1
   105   134   131    1
   106   155   154    1
   107    86    88   ar
   108   131   130    1
   109   131   132    1
   110   109   108   ar
   111   109   107   ar
   112    98    96   am
   113   144   143    1
   114   144   145    2
   115   108   106   ar
   116   143   142    1
   117   143   146    1
   118   154   151    1
   119    81    82    2
   120   132   133    2
   121   149   147    1
   122   107   105   ar
   123   151   150    1
   124   151   152    1
   125   163   164    1
   126   163   160    1
   127    96    95    1
   128    96    97    2
   129   146   147    1
   130   106   104   ar
   131   164   165    1
   132   173   172    1
   133   127   126    2
   134   147   148    1
   135    95    94    1
   136   128   129    1
   137   128   125    1
   138   122   120   ar
   139   122   123   ar
   140   152   153    2
   141   165   166    1
   142   120   117   ar
   143   159   160    1
   144   105   104   ar
   145   123   121   ar
   146   104   103    1
   147   160   161    1
   148   172   171    1
   149   172   174    1
   150   126   125    1
   151    90    91    1
   152   125   124    1
   153   117   115   ar
   154   117   119   ar
   155   113   112    2
   156   167   161   am
   157   167   168    1
   158    94    91    1
   159   114   115    1
   160   114   111    1
   161   121   119   ar
   162   171   168    1
   163   161   162    2
   164   115   116   ar
   165    91    92    1
   166   119   118   ar
   167   103   100    1
   168   168   169    1
   169   112   111    1
   170   110   111    1
   171   184   182   ar
   172   184   183   ar
   173   116   118   ar
   174   182   180   ar
   175   100    99    1
   176   100   101    1
   177    92    93    2
   178   183   181   ar
   179   169   170    2
   180   180   181   ar
   181   180   179    1
   182   101   102    2
   183   179   176    1
   184   175   176    1
   185   176   177    1
   186   177   178    2
