@<TRIPOS>MOLECULE
tmp/5a89B01.pdb
 177 175 0 0 0
SMALL
GASTEIGER

@<TRIPOS>ATOM
      1  N         16.4700   -4.8450  -11.5920 N.3     8  VAL8       -0.1231
      2  CA        17.2520   -4.5810  -10.3790 C.3     8  VAL8        0.1692
      3  C         17.8650   -5.8930   -9.9490 C.2     8  VAL8        0.2592
      4  O         17.1700   -6.9040   -9.7910 O.2     8  VAL8       -0.2718
      5  CB        16.4330   -3.9130   -9.2920 C.3     8  VAL8        0.0266
      6  CG1       17.2340   -3.7870   -7.9980 C.3     8  VAL8        0.0020
      7  CG2       15.9220   -2.5980   -9.7930 C.3     8  VAL8        0.0020
      8  N         19.1920   -5.8870   -9.7880 N.am    9  VAL9       -0.1966
      9  CA        19.9600   -7.1100   -9.5020 C.3     9  VAL9        0.1727
     10  C         20.8740   -6.9340   -8.2870 C.2     9  VAL9        0.2616
     11  O         20.9470   -5.8550   -7.7080 O.2     9  VAL9       -0.2715
     12  CB        20.7110   -7.6210  -10.7510 C.3     9  VAL9        0.0290
     13  CG1       19.6950   -7.8980  -11.8500 C.3     9  VAL9        0.0023
     14  CG2       21.7950   -6.6630  -11.2140 C.3     9  VAL9        0.0023
     15  N         21.5310   -8.0230   -7.9070 N.am   10  ARG10      -0.1963
     16  CA        22.3400   -8.0760   -6.7220 C.3    10  ARG10       0.1729
     17  C         23.6860   -7.3990   -6.9010 C.2    10  ARG10       0.2617
     18  O         24.3620   -7.5940   -7.9250 O.2    10  ARG10      -0.2715
     19  CB        22.5590   -9.4930   -6.2800 C.3    10  ARG10       0.0348
     20  CG        21.2840  -10.2400   -6.0010 C.3    10  ARG10       0.0492
     21  CD        20.7900  -10.0050   -4.6070 C.3    10  ARG10       0.2205
     22  NE        19.4200  -10.5610   -4.5000 N.pl3  10  ARG10      -0.0865
     23  CZ        18.7300  -10.7150   -3.3870 C.cat  10  ARG10       0.5346
     24  NH1       19.2330  -10.3770   -2.1890 N.pl3  10  ARG10       0.1354
     25  NH2       17.5070  -11.1970   -3.4690 N.pl3  10  ARG10       0.1354
     26  N         24.0430   -6.6060   -5.9020 N.am   11  GLY11      -0.1940
     27  CA        25.3300   -5.9490   -5.7820 C.3    11  GLY11       0.2014
     28  C         26.1180   -6.5810   -4.6500 C.2    11  GLY11       0.2639
     29  O         25.9680   -7.7600   -4.3200 O.2    11  GLY11      -0.2714
     30  N         26.9680   -5.7690   -4.0310 N.am   12  ALA12      -0.1963
     31  CA        27.8110   -6.2060   -2.9400 C.3    12  ALA12       0.1728
     32  C         27.0950   -6.4660   -1.6120 C.2    12  ALA12       0.2617
     33  O         27.6550   -7.0960   -0.6800 O.2    12  ALA12      -0.2715
     34  CB        28.9110   -5.1780   -2.7740 C.3    12  ALA12       0.0334
     35  N         25.8890   -5.9670   -1.4780 N.am   13  GLY13      -0.1940
     36  CA        25.0990   -6.1260   -0.2870 C.3    13  GLY13       0.2014
     37  C         25.4550   -5.1020    0.7740 C.2    13  GLY13       0.2642
     38  O         25.1310   -5.2960    1.9130 O.2    13  GLY13      -0.2714
     39  N         26.1620   -4.0260    0.4070 N.am   14  ARG14      -0.1917
     40  CA        26.6890   -3.0920    1.4140 C.3    14  ARG14       0.1945
     41  C         25.8910   -1.8150    1.5840 C.2    14  ARG14       0.2659
     42  O         25.9880   -1.1700    2.6520 O.2    14  ARG14      -0.2711
     43  CB        28.2010   -2.7930    1.2370 C.2    14  ARG14       0.0033
     44  CG        28.5490   -1.6480    0.3800 C.2    14  ARG14       0.0179
     45  CD        30.0160   -1.2520    0.2910 C.3    14  ARG14       0.2464
     46  NE        30.8240   -2.2420   -0.3550 N.pl3  14  ARG14      -0.0815
     47  CZ        31.0080   -2.3560   -1.6700 C.cat  14  ARG14       0.5349
     48  NH1       30.4230   -1.5760   -2.5850 N.pl3  14  ARG14       0.1354
     49  NH2       31.7980   -3.3030   -2.0650 N.pl3  14  ARG14       0.1354
     50  N         25.1190   -1.4280    0.5530 N.am   15  GLY15      -0.1937
     51  CA        24.4620   -0.1180    0.5520 C.3    15  GLY15       0.2014
     52  C         23.5560    0.0790    1.7380 C.2    15  GLY15       0.2639
     53  O         23.7010    1.0260    2.5040 O.2    15  GLY15      -0.2714
     54  N         22.6210   -0.8250    1.9110 N.am   16  GLY16      -0.1939
     55  CA        21.6880   -0.6930    3.0060 C.3    16  GLY16       0.2014
     56  C         22.3330   -1.1140    4.3140 C.2    16  GLY16       0.2638
     57  O         22.3800   -0.3450    5.2860 O.2    16  GLY16      -0.2714
     58  N         22.8970   -2.3110    4.2820 N.am   17  LYS17      -0.1977
     59  CA        23.4340   -2.9600    5.5020 C.3    17  LYS17       0.1596
     60  C         24.5090   -2.1850    6.2070 C.2    17  LYS17       0.2287
     61  O         24.5450   -2.1880    7.4560 O.2    17  LYS17      -0.2864
     62  CB        24.0180   -4.2940    5.0930 C.3    17  LYS17       0.0298
     63  CG        24.4830   -5.1860    6.2050 C.3    17  LYS17       0.0038
     64  CD        25.1960   -6.3530    5.5710 C.3    17  LYS17       0.0206
     65  CE        26.5810   -6.0100    5.0370 C.3    17  LYS17       0.1093
     66  NZ        27.0760   -7.0310    4.0760 N.3    17  LYS17      -0.1314
     67  N         20.4780    2.0170    0.7530 N.3    22  PRO22      -0.2102
     68  CA        20.2630    0.9640   -0.2160 C.3    22  PRO22       0.1504
     69  C         20.1500    1.4970   -1.6440 C.2    22  PRO22       0.2576
     70  O         19.4930    2.5160   -1.8850 O.2    22  PRO22      -0.2718
     71  CB        18.9470    0.3520    0.1970 C.3    22  PRO22       0.0282
     72  CG        18.2720    1.4010    0.9640 C.3    22  PRO22       0.0208
     73  CD        19.3260    2.2130    1.6280 C.3    22  PRO22       0.0893
     74  N         20.8230    0.8080   -2.5670 N.am   23  THR23      -0.1939
     75  CA        20.7910    1.2090   -4.0010 C.3    23  THR23       0.2028
     76  C         20.2940    0.0710   -4.8750 C.2    23  THR23       0.2642
     77  O         20.8180   -1.0680   -4.7400 O.2    23  THR23      -0.2714
     78  CB        22.1470    1.6170   -4.5050 C.3    23  THR23       0.1808
     79  OG1       23.1410    0.5770   -4.3010 O.3    23  THR23      -0.2208
     80  CG2       22.5910    2.8920   -3.8200 C.3    23  THR23       0.0379
     81  N         19.3120    0.3560   -5.7320 N.am   24  ALA24      -0.1963
     82  CA        18.8210   -0.6010   -6.7230 C.3    24  ALA24       0.1728
     83  C         19.8530   -0.6220   -7.8490 C.2    24  ALA24       0.2616
     84  O         20.0690    0.3960   -8.5130 O.2    24  ALA24      -0.2715
     85  CB        17.4270   -0.1440   -7.2200 C.3    24  ALA24       0.0334
     86  N         20.5570   -1.7530   -7.9980 N.am   25  ASN25      -0.1972
     87  CA        21.6650   -1.8680   -8.9310 C.3    25  ASN25       0.1688
     88  C         21.2000   -2.3990  -10.2550 C.2    25  ASN25       0.2292
     89  O         20.4790   -3.3890  -10.2980 O.2    25  ASN25      -0.2864
     90  CB        22.7310   -2.8360   -8.4120 C.3    25  ASN25       0.1181
     91  CG        23.4750   -2.2880   -7.1930 C.2    25  ASN25       0.2629
     92  OD1       22.9320   -1.5340   -6.3950 O.2    25  ASN25      -0.2716
     93  ND2       24.7560   -2.6440   -7.0640 N.am   25  ASN25      -0.0877
     94  N          6.3750    1.0730   -2.8220 N.3    57  MET57      -0.1245
     95  CA         6.4730    1.5350   -4.2100 C.3    57  MET57       0.1570
     96  C          5.5250    0.7280   -5.0800 C.2    57  MET57       0.2261
     97  O          5.3020   -0.4520   -4.8330 O.2    57  MET57      -0.2867
     98  CB         7.8980    1.3900   -4.7120 C.3    57  MET57       0.0387
     99  CG         8.8640    2.3080   -3.9830 C.3    57  MET57       0.0595
    100  SD        10.5990    1.9970   -4.3620 S.3    57  MET57      -0.1393
    101  CE        10.6850    2.4580   -6.1010 C.3    57  MET57       0.0692
    102  N         20.5110    3.2510   -7.9470 N.3    84  SER84      -0.1202
    103  CA        19.4910    4.2230   -7.5640 C.3    84  SER84       0.2020
    104  C         19.1010    4.1070   -6.1040 C.2    84  SER84       0.2619
    105  O         18.5880    3.0590   -5.7230 O.2    84  SER84      -0.2717
    106  CB        18.2790    4.0220   -8.4450 C.3    84  SER84       0.2103
    107  OG        18.5810    4.3210   -9.7990 O.3    84  SER84      -0.2182
    108  N         19.3720    5.1300   -5.3140 N.am   85  PHE85      -0.1961
    109  CA        18.8160    5.2680   -3.9780 C.3    85  PHE85       0.1771
    110  C         17.4700    5.9600   -4.1070 C.2    85  PHE85       0.2619
    111  O         17.3930    7.1310   -4.5160 O.2    85  PHE85      -0.2715
    112  CB        19.7530    6.0680   -3.0530 C.3    85  PHE85       0.0574
    113  CG        19.1010    6.4250   -1.7650 C.ar   85  PHE85      -0.0200
    114  CD1       18.7030    5.4350   -0.8980 C.ar   85  PHE85      -0.0042
    115  CD2       18.8920    7.7250   -1.4180 C.ar   85  PHE85      -0.0042
    116  CE1       18.0320    5.7310    0.2670 C.ar   85  PHE85      -0.0003
    117  CE2       18.2770    8.0470   -0.2230 C.ar   85  PHE85      -0.0003
    118  CZ        17.8420    7.0510    0.6170 C.ar   85  PHE85      -0.0000
    119  N         16.3930    5.2630   -3.7940 N.am   86  VAL86      -0.1977
    120  CA        15.0660    5.8350   -3.9370 C.3    86  VAL86       0.1596
    121  C         14.7340    6.5800   -2.6740 C.2    86  VAL86       0.2287
    122  O         14.7300    6.0040   -1.5940 O.2    86  VAL86      -0.2864
    123  CB        13.9720    4.7830   -4.2300 C.3    86  VAL86       0.0276
    124  CG1       12.6060    5.4730   -4.3480 C.3    86  VAL86       0.0022
    125  CG2       14.2920    3.9780   -5.4760 C.3    86  VAL86       0.0022
    126  N         11.6970    5.8590    0.5790 N.3    89  ARG89      -0.1231
    127  CA        10.8920    4.6880    0.3080 C.3    89  ARG89       0.1694
    128  C         11.5860    3.4060    0.7580 C.2    89  ARG89       0.2592
    129  O         12.7850    3.3910    1.0170 O.2    89  ARG89      -0.2718
    130  CB        10.6280    4.6040   -1.1950 C.3    89  ARG89       0.0321
    131  CG         9.8140    5.7380   -1.7720 C.3    89  ARG89       0.0489
    132  CD         8.3220    5.5380   -1.5110 C.3    89  ARG89       0.2205
    133  NE         7.9060    6.0590   -0.2280 N.pl3  89  ARG89      -0.0865
    134  CZ         6.6420    6.1350    0.2200 C.cat  89  ARG89       0.5346
    135  NH1        5.6540    5.6060   -0.4770 N.pl3  89  ARG89       0.1354
    136  NH2        6.3860    6.7820    1.3560 N.pl3  89  ARG89       0.1354
    137  N         10.8260    2.3100    0.7530 N.am   90  ASP90      -0.1960
    138  CA        11.4140    1.0040    1.0620 C.3    90  ASP90       0.1840
    139  C         10.6080   -0.0490    0.3380 C.2    90  ASP90       0.2622
    140  O          9.4310   -0.2480    0.6590 O.2    90  ASP90      -0.2715
    141  CB        11.3840    0.7120    2.5820 C.3    90  ASP90       0.1450
    142  CG        11.7080   -0.6830    2.9080 C.2    90  ASP90       0.3671
    143  OD1       12.5820   -1.2910    2.2140 O.co2  90  ASP90      -0.2456
    144  OD2       11.0260   -1.2570    3.8160 O.co2  90  ASP90      -0.2456
    145  N         11.2200   -0.6860   -0.6630 N.am   91  ALA91      -0.1963
    146  CA        10.6170   -1.8200   -1.3400 C.3    91  ALA91       0.1728
    147  C         11.6720   -2.8170   -1.7660 C.2    91  ALA91       0.2616
    148  O         12.8500   -2.4790   -1.9190 O.2    91  ALA91      -0.2715
    149  CB         9.8480   -1.3910   -2.5560 C.3    91  ALA91       0.0334
    150  N         11.2330   -4.0750   -1.9140 N.am   92  ASP92      -0.1957
    151  CA        12.0540   -5.0990   -2.4620 C.3    92  ASP92       0.1840
    152  C         11.9510   -4.9850   -3.9890 C.2    92  ASP92       0.2622
    153  O         10.9430   -5.3610   -4.5800 O.2    92  ASP92      -0.2715
    154  CB        11.6080   -6.5050   -1.9720 C.3    92  ASP92       0.1450
    155  CG        12.4030   -7.6050   -2.6350 C.2    92  ASP92       0.3671
    156  OD1       13.2860   -7.3320   -3.4820 O.co2  92  ASP92      -0.2456
    157  OD2       12.1200   -8.7990   -2.3160 O.co2  92  ASP92      -0.2456
    158  N         12.9830   -4.4370   -4.6110 N.am   93  LEU93      -0.1963
    159  CA        12.9540   -4.1780   -6.0380 C.3    93  LEU93       0.1728
    160  C         13.6700   -5.2940   -6.7990 C.2    93  LEU93       0.2616
    161  O         13.6770   -5.2580   -8.0370 O.2    93  LEU93      -0.2715
    162  CB        13.6600   -2.8300   -6.3610 C.3    93  LEU93       0.0311
    163  CG        12.9640   -1.6020   -5.7650 C.3    93  LEU93       0.0022
    164  CD1       13.8240   -0.3600   -5.9230 C.3    93  LEU93       0.0001
    165  CD2       11.5700   -1.3970   -6.3960 C.3    93  LEU93       0.0001
    166  N         14.2660   -6.2750   -6.0940 N.am   94  TYR94      -0.1974
    167  CA        15.0400   -7.3010   -6.8120 C.3    94  TYR94       0.1639
    168  C         14.2150   -8.0230   -7.8390 C.2    94  TYR94       0.2290
    169  O         13.1420   -8.5130   -7.5210 O.2    94  TYR94      -0.2864
    170  CB        15.6470   -8.3250   -5.8850 C.3    94  TYR94       0.0560
    171  CG        16.7780   -7.7860   -5.0150 C.ar   94  TYR94      -0.0198
    172  CD1       18.0080   -7.4140   -5.5700 C.ar   94  TYR94      -0.0009
    173  CD2       16.6430   -7.6960   -3.6690 C.ar   94  TYR94      -0.0009
    174  CE1       19.0530   -6.9470   -4.7920 C.ar   94  TYR94       0.0417
    175  CE2       17.6890   -7.2460   -2.8750 C.ar   94  TYR94       0.0417
    176  CZ        18.8930   -6.8530   -3.4570 C.ar   94  TYR94       0.1957
    177  OH        19.8910   -6.4570   -2.5780 O.3    94  TYR94      -0.2866
@<TRIPOS>BOND
     1    13    12    1
     2     1     2    1
     3    14    12    1
     4    12     9    1
     5     2     3    1
     6     2     5    1
     7    89    88    2
     8    88    87    1
     9     3     4    2
    10     3     8   am
    11   107   106    1
    12     7     5    1
    13     8     9    1
    14     9    10    1
    15     5     6    1
    16    87    90    1
    17    87    86    1
    18    84    83    2
    19   106   103    1
    20    90    91    1
    21    10    15   am
    22    10    11    2
    23   161   160    2
    24    86    83   am
    25   102   103    1
    26    18    17    2
    27    15    16    1
    28    83    82    1
    29   168   169    2
    30   168   167    1
    31   103   104    1
    32    85    82    1
    33    91    93   am
    34    91    92    2
    35    17    16    1
    36    17    26   am
    37   167   166    1
    38   167   170    1
    39   160   166   am
    40   160   159    1
    41    82    81    1
    42    16    19    1
    43   165   163    1
    44   162   159    1
    45   162   163    1
    46    19    20    1
    47   104   105    2
    48   104   108   am
    49   101   100    1
    50   159   158    1
    51    20    21    1
    52   164   163    1
    53    26    27    1
    54   170   171    1
    55    27    28    1
    56    81    76   am
    57   172   171   ar
    58   172   174   ar
    59   125   123    1
    60   108   109    1
    61    96    97    2
    62    96    95    1
    63   171   173   ar
    64    76    77    2
    65    76    75    1
    66   174   176   ar
    67    98    95    1
    68    98    99    1
    69    28    29    2
    70    28    30   am
    71   158   152   am
    72    21    22    1
    73   153   152    2
    74   111   110    2
    75    78    79    1
    76    78    75    1
    77    78    80    1
    78    22    23    2
    79   100    99    1
    80   124   123    1
    81   123   120    1
    82    95    94    1
    83   110   109    1
    84   110   119   am
    85    30    31    1
    86    75    74    1
    87   152   151    1
    88   109   112    1
    89   120   119    1
    90   120   121    1
    91   173   175   ar
    92   156   155   ar
    93    25    23    1
    94   176   175   ar
    95   176   177    1
    96    23    24    1
    97   112   113    1
    98    31    34    1
    99    31    32    1
   100   121   122    2
   101   155   157   ar
   102   155   154    1
   103    48    47    1
   104    74    69   am
   105   149   146    1
   106   151   154    1
   107   151   150    1
   108    49    47    1
   109   148   147    2
   110   150   147   am
   111    70    69    2
   112   131   132    1
   113   131   130    1
   114   147   146    1
   115   113   115   ar
   116   113   114   ar
   117    47    46    2
   118    69    68    1
   119    32    35   am
   120    32    33    2
   121   132   133    1
   122    35    36    1
   123   115   117   ar
   124   146   145    1
   125   130   127    1
   126   114   116   ar
   127   145   139   am
   128   135   134    1
   129    46    45    1
   130    36    37    1
   131   133   134    2
   132   117   118   ar
   133    68    71    1
   134    68    67    1
   135    71    72    1
   136   134   136    1
   137   116   118   ar
   138    45    44    1
   139   127   126    1
   140   127   128    1
   141   139   140    2
   142   139   138    1
   143    44    43    2
   144    39    37   am
   145    39    40    1
   146    51    50    1
   147    51    52    1
   148    50    41   am
   149   137   128   am
   150   137   138    1
   151    67    73    1
   152   128   129    2
   153    37    38    2
   154    72    73    1
   155   138   141    1
   156    43    40    1
   157    40    41    1
   158    41    42    2
   159    52    54   am
   160    52    53    2
   161    54    55    1
   162   143   142   ar
   163   141   142    1
   164   142   144   ar
   165    55    56    1
   166    66    65    1
   167    58    56   am
   168    58    59    1
   169    56    57    2
   170    65    64    1
   171    62    59    1
   172    62    63    1
   173    59    60    1
   174    64    63    1
   175    60    61    2
