@<TRIPOS>MOLECULE
tmp/5a89B00.pdb
 231 219 0 0 0
SMALL
GASTEIGER

@<TRIPOS>ATOM
      1  N         24.0430   -6.6060   -5.9020 N.3    11  GLY11      -0.1210
      2  CA        25.3300   -5.9490   -5.7820 C.3    11  GLY11       0.1956
      3  C         26.1180   -6.5810   -4.6500 C.2    11  GLY11       0.2612
      4  O         25.9680   -7.7600   -4.3200 O.2    11  GLY11      -0.2717
      5  N         26.9680   -5.7690   -4.0310 N.am   12  ALA12      -0.1965
      6  CA        27.8110   -6.2060   -2.9400 C.3    12  ALA12       0.1728
      7  C         27.0950   -6.4660   -1.6120 C.2    12  ALA12       0.2617
      8  O         27.6550   -7.0960   -0.6800 O.2    12  ALA12      -0.2715
      9  CB        28.9110   -5.1780   -2.7740 C.3    12  ALA12       0.0334
     10  N         25.8890   -5.9670   -1.4780 N.am   13  GLY13      -0.1940
     11  CA        25.0990   -6.1260   -0.2870 C.3    13  GLY13       0.2014
     12  C         25.4550   -5.1020    0.7740 C.2    13  GLY13       0.2642
     13  O         25.1310   -5.2960    1.9130 O.2    13  GLY13      -0.2714
     14  N         26.1620   -4.0260    0.4070 N.am   14  ARG14      -0.1917
     15  CA        26.6890   -3.0920    1.4140 C.3    14  ARG14       0.1945
     16  C         25.8910   -1.8150    1.5840 C.2    14  ARG14       0.2659
     17  O         25.9880   -1.1700    2.6520 O.2    14  ARG14      -0.2711
     18  CB        28.2010   -2.7930    1.2370 C.2    14  ARG14       0.0033
     19  CG        28.5490   -1.6480    0.3800 C.2    14  ARG14       0.0179
     20  CD        30.0160   -1.2520    0.2910 C.3    14  ARG14       0.2464
     21  NE        30.8240   -2.2420   -0.3550 N.pl3  14  ARG14      -0.0815
     22  CZ        31.0080   -2.3560   -1.6700 C.cat  14  ARG14       0.5349
     23  NH1       30.4230   -1.5760   -2.5850 N.pl3  14  ARG14       0.1354
     24  NH2       31.7980   -3.3030   -2.0650 N.pl3  14  ARG14       0.1354
     25  N         25.1190   -1.4280    0.5530 N.am   15  GLY15      -0.1952
     26  CA        24.4620   -0.1180    0.5520 C.3    15  GLY15       0.1869
     27  C         23.5560    0.0790    1.7380 C.2    15  GLY15       0.2309
     28  O         23.7010    1.0260    2.5040 O.2    15  GLY15      -0.2863
     29  N         25.7850    1.2050    4.8620 N.3    19  LEU19      -0.1245
     30  CA        25.8030    2.6640    4.6290 C.3    19  LEU19       0.1561
     31  C         24.4810    3.3390    4.8820 C.2    19  LEU19       0.2260
     32  O         24.4360    4.5690    4.9360 O.2    19  LEU19      -0.2867
     33  CB        26.2710    2.9860    3.2330 C.3    19  LEU19       0.0270
     34  CG        27.5140    2.2060    2.7920 C.3    19  LEU19       0.0019
     35  CD1       27.8540    2.6370    1.3820 C.3    19  LEU19       0.0001
     36  CD2       28.6730    2.4710    3.7710 C.3    19  LEU19       0.0001
     37  N         22.1590    3.4550    2.8010 N.3    21  PHE21      -0.1241
     38  CA        21.7540    3.9820    1.5060 C.3    21  PHE21       0.1605
     39  C         21.5790    2.7900    0.5760 C.2    21  PHE21       0.2264
     40  O         22.4420    2.5330   -0.2420 O.2    21  PHE21      -0.2867
     41  CB        22.7790    4.9930    0.8970 C.3    21  PHE21       0.0534
     42  CG        22.7770    6.3510    1.5480 C.ar   21  PHE21      -0.0203
     43  CD1       21.8900    7.3210    1.1180 C.ar   21  PHE21      -0.0042
     44  CD2       23.7210    6.6780    2.5140 C.ar   21  PHE21      -0.0042
     45  CE1       21.8900    8.6040    1.7310 C.ar   21  PHE21      -0.0003
     46  CE2       23.7400    7.9470    3.1220 C.ar   21  PHE21      -0.0003
     47  CZ        22.8330    8.9110    2.6950 C.ar   21  PHE21      -0.0000
     48  N         20.8230    0.8080   -2.5670 N.3    23  THR23      -0.1218
     49  CA        20.7910    1.2090   -4.0010 C.3    23  THR23       0.1862
     50  C         20.2940    0.0710   -4.8750 C.2    23  THR23       0.2287
     51  O         20.8180   -1.0680   -4.7400 O.2    23  THR23      -0.2866
     52  CB        22.1470    1.6170   -4.5050 C.3    23  THR23       0.1770
     53  OG1       23.1410    0.5770   -4.3010 O.3    23  THR23      -0.2211
     54  CG2       22.5910    2.8920   -3.8200 C.3    23  THR23       0.0375
     55  N         20.5570   -1.7530   -7.9980 N.3    25  ASN25      -0.1240
     56  CA        21.6650   -1.8680   -8.9310 C.3    25  ASN25       0.1653
     57  C         21.2000   -2.3990  -10.2550 C.2    25  ASN25       0.2266
     58  O         20.4790   -3.3890  -10.2980 O.2    25  ASN25      -0.2867
     59  CB        22.7310   -2.8360   -8.4120 C.3    25  ASN25       0.1155
     60  CG        23.4750   -2.2880   -7.1930 C.2    25  ASN25       0.2627
     61  OD1       22.9320   -1.5340   -6.3950 O.2    25  ASN25      -0.2716
     62  ND2       24.7560   -2.6440   -7.0640 N.am   25  ASN25      -0.0877
     63  N         23.1510   -3.4750  -14.0610 N.3    27  TYR27      -0.1241
     64  CA        24.4530   -3.6380  -14.7390 C.3    27  TYR27       0.1605
     65  C         24.1420   -3.7820  -16.2080 C.2    27  TYR27       0.2264
     66  O         23.2380   -4.5450  -16.6020 O.2    27  TYR27      -0.2867
     67  CB        25.2430   -4.8500  -14.2280 C.3    27  TYR27       0.0534
     68  CG        25.6390   -4.7290  -12.7920 C.ar   27  TYR27      -0.0201
     69  CD1       24.7910   -5.1520  -11.7830 C.ar   27  TYR27      -0.0009
     70  CD2       26.8140   -4.1470  -12.4280 C.ar   27  TYR27      -0.0009
     71  CE1       25.1320   -5.0290  -10.4570 C.ar   27  TYR27       0.0417
     72  CE2       27.1670   -3.9740  -11.1020 C.ar   27  TYR27       0.0417
     73  CZ        26.3330   -4.4100  -10.1120 C.ar   27  TYR27       0.1957
     74  OH        26.7050   -4.2360   -8.7830 O.3    27  TYR27      -0.2866
     75  N         27.3480   11.3020  -10.2220 N.3    39  VAL39      -0.1245
     76  CA        26.1470   11.2660   -9.4010 C.3    39  VAL39       0.1561
     77  C         25.1140   12.1410  -10.0850 C.2    39  VAL39       0.2260
     78  O         25.4210   13.2480  -10.5220 O.2    39  VAL39      -0.2867
     79  CB        26.4370   11.7200   -7.9460 C.3    39  VAL39       0.0252
     80  CG1       25.1480   11.6830   -7.1320 C.3    39  VAL39       0.0019
     81  CG2       27.4760   10.8310   -7.3380 C.3    39  VAL39       0.0019
     82  N         18.4070    9.4200   -6.1160 N.3    66  ALA66      -0.1231
     83  CA        19.8130    9.8500   -6.2570 C.3    66  ALA66       0.1694
     84  C         20.5290    8.6610   -6.8720 C.2    66  ALA66       0.2592
     85  O         20.5330    7.5480   -6.3200 O.2    66  ALA66      -0.2718
     86  CB        20.3420   10.2300   -4.9310 C.3    66  ALA66       0.0304
     87  N         21.2060    8.9050   -7.9720 N.am   67  ILE67      -0.1966
     88  CA        21.7000    7.8520   -8.8690 C.3    67  ILE67       0.1727
     89  C         23.2170    7.9650   -9.0250 C.2    67  ILE67       0.2616
     90  O         23.7490    9.0510   -9.3010 O.2    67  ILE67      -0.2715
     91  CB        21.0470    8.0120  -10.2570 C.3    67  ILE67       0.0290
     92  CG1       19.5070    7.9070  -10.2020 C.3    67  ILE67       0.0022
     93  CG2       21.6420    6.9730  -11.2360 C.3    67  ILE67       0.0023
     94  CD1       18.8180    8.6620  -11.3090 C.3    67  ILE67       0.0001
     95  N         23.9150    6.8510   -8.8180 N.am   68  SER68      -0.1950
     96  CA        25.3580    6.7950   -9.0870 C.3    68  SER68       0.1924
     97  C         25.6290    5.9380  -10.3060 C.2    68  SER68       0.2314
     98  O         24.9790    4.9160  -10.5180 O.2    68  SER68      -0.2863
     99  CB        26.1770    6.2890   -7.8910 C.3    68  SER68       0.2116
    100  OG        26.0680    4.8900   -7.6940 O.3    68  SER68      -0.2180
    101  N         32.1170    2.3980   -8.0280 N.3    72  ASN72      -0.1226
    102  CA        32.1600    2.5030   -6.5530 C.3    72  ASN72       0.1770
    103  C         33.6020    2.4970   -6.0580 C.2    72  ASN72       0.2439
    104  O         33.9830    1.6400   -5.2600 O.2    72  ASN72      -0.2733
    105  CB        31.3500    1.3970   -5.8510 C.3    72  ASN72       0.1168
    106  CG        29.9090    1.3110   -6.3280 C.2    72  ASN72       0.2627
    107  OD1       29.3780    2.2820   -6.8500 O.2    72  ASN72      -0.2716
    108  ND2       29.2770    0.1440   -6.1450 N.am   72  ASN72      -0.0877
    109  N         34.4280    3.4030   -6.5710 N.am   73  PRO73      -0.2718
    110  CA        35.8750    3.3370   -6.3240 C.3    73  PRO73       0.1535
    111  C         36.3100    3.4370   -4.8510 C.2    73  PRO73       0.2599
    112  O         37.3920    2.9300   -4.5070 O.2    73  PRO73      -0.2715
    113  CB        36.4040    4.5220   -7.1330 C.3    73  PRO73       0.0310
    114  CG        35.2360    5.4840   -7.1560 C.3    73  PRO73       0.0237
    115  CD        34.0520    4.6070   -7.3570 C.3    73  PRO73       0.0939
    116  N         35.4830    4.0370   -3.9930 N.am   74  THR74      -0.1937
    117  CA        35.7460    4.0110   -2.5580 C.3    74  THR74       0.2028
    118  C         35.9410    2.5670   -2.0560 C.2    74  THR74       0.2642
    119  O         36.7690    2.3350   -1.1500 O.2    74  THR74      -0.2714
    120  CB        34.6440    4.7340   -1.7920 C.3    74  THR74       0.1808
    121  OG1       34.6080    6.0960   -2.2210 O.3    74  THR74      -0.2208
    122  CG2       34.9370    4.7570   -0.3040 C.3    74  THR74       0.0379
    123  N         35.1960    1.6220   -2.6720 N.am   75  PHE75      -0.1973
    124  CA        35.2010    0.2030   -2.2580 C.3    75  PHE75       0.1639
    125  C         35.9480   -0.6990   -3.2210 C.2    75  PHE75       0.2290
    126  O         36.2000   -1.8480   -2.9110 O.2    75  PHE75      -0.2864
    127  CB        33.7600   -0.2790   -2.0190 C.3    75  PHE75       0.0560
    128  CG        33.0900    0.4950   -0.9290 C.ar   75  PHE75      -0.0200
    129  CD1       33.3550    0.1970    0.4080 C.ar   75  PHE75      -0.0042
    130  CD2       32.2310    1.5590   -1.2410 C.ar   75  PHE75      -0.0042
    131  CE1       32.7480    0.9630    1.4290 C.ar   75  PHE75      -0.0003
    132  CE2       31.6380    2.2950   -0.2340 C.ar   75  PHE75      -0.0003
    133  CZ        31.9290    1.9990    1.0960 C.ar   75  PHE75      -0.0000
    134  N         35.0440   -1.6640   -6.4500 N.3    77  ASP77      -0.1239
    135  CA        34.2130   -2.6500   -7.1540 C.3    77  ASP77       0.1674
    136  C         34.6480   -2.7900   -8.6000 C.2    77  ASP77       0.2266
    137  O         35.3360   -1.9400   -9.1360 O.2    77  ASP77      -0.2867
    138  CB        32.7240   -2.3480   -7.0370 C.3    77  ASP77       0.1410
    139  CG        32.1990   -2.5480   -5.6250 C.2    77  ASP77       0.3668
    140  OD1       32.7830   -3.3090   -4.8450 O.co2  77  ASP77      -0.2456
    141  OD2       31.1620   -1.9650   -5.2880 O.co2  77  ASP77      -0.2456
    142  N         23.1590    2.8060  -10.1440 N.3    83  GLU83      -0.1245
    143  CA        22.6490    2.5280   -8.8260 C.3    83  GLU83       0.1567
    144  C         21.7320    3.6230   -8.3480 C.2    83  GLU83       0.2260
    145  O         22.1150    4.7840   -8.3460 O.2    83  GLU83      -0.2867
    146  CB        23.7700    2.3520   -7.8050 C.3    83  GLU83       0.0388
    147  CG        24.5580    1.0780   -7.9980 C.3    83  GLU83       0.1160
    148  CD        25.5790    0.8250   -6.9300 C.2    83  GLU83       0.3649
    149  OE1       25.2640    1.0960   -5.7500 O.co2  83  GLU83      -0.2457
    150  OE2       26.6410    0.2210   -7.2650 O.co2  83  GLU83      -0.2457
    151  N         19.3720    5.1300   -5.3140 N.3    85  PHE85      -0.1241
    152  CA        18.8160    5.2680   -3.9780 C.3    85  PHE85       0.1605
    153  C         17.4700    5.9600   -4.1070 C.2    85  PHE85       0.2264
    154  O         17.3930    7.1310   -4.5160 O.2    85  PHE85      -0.2867
    155  CB        19.7530    6.0680   -3.0530 C.3    85  PHE85       0.0534
    156  CG        19.1010    6.4250   -1.7650 C.ar   85  PHE85      -0.0203
    157  CD1       18.7030    5.4350   -0.8980 C.ar   85  PHE85      -0.0042
    158  CD2       18.8920    7.7250   -1.4180 C.ar   85  PHE85      -0.0042
    159  CE1       18.0320    5.7310    0.2670 C.ar   85  PHE85      -0.0003
    160  CE2       18.2770    8.0470   -0.2230 C.ar   85  PHE85      -0.0003
    161  CZ        17.8420    7.0510    0.6170 C.ar   85  PHE85      -0.0000
    162  N         27.5380   15.6850   -9.4710 N.3   107  ARG107     -0.1245
    163  CA        28.9670   15.7460   -9.2800 C.3   107  ARG107      0.1563
    164  C         29.6330   14.5520   -9.9100 C.2   107  ARG107      0.2260
    165  O         28.9850   13.5500  -10.2550 O.2   107  ARG107     -0.2867
    166  CB        29.3760   15.8100   -7.8110 C.3   107  ARG107      0.0307
    167  CG        28.9090   14.6350   -7.0180 C.3   107  ARG107      0.0489
    168  CD        29.3650   14.7010   -5.5680 C.3   107  ARG107      0.2205
    169  NE        28.8530   13.5580   -4.8490 N.pl3 107  ARG107     -0.0865
    170  CZ        29.4370   12.3740   -4.7650 C.cat 107  ARG107      0.5346
    171  NH1       30.6210   12.1390   -5.3610 N.pl3 107  ARG107      0.1354
    172  NH2       28.8820   11.4300   -4.0470 N.pl3 107  ARG107      0.1354
    173  N         32.0890   11.2880   -9.8900 N.3   109  MET109     -0.1230
    174  CA        32.3290   10.1500   -9.0150 C.3   109  MET109      0.1702
    175  C         33.6630   10.3210   -8.3260 C.2   109  MET109      0.2592
    176  O         34.5980   10.8030   -8.9570 O.2   109  MET109     -0.2718
    177  CB        32.2900    8.8780   -9.8640 C.3   109  MET109      0.0401
    178  CG        32.4050    7.6020   -9.0820 C.3   109  MET109      0.0596
    179  SD        31.1000    7.4160   -7.8720 S.3   109  MET109     -0.1393
    180  CE        29.6420    7.9570   -8.7410 C.3   109  MET109      0.0692
    181  N         33.7770    9.9530   -7.0530 N.am  110  GLU110     -0.1979
    182  CA        34.9970   10.2380   -6.3170 C.3   110  GLU110      0.1602
    183  C         35.4110    9.0730   -5.4320 C.2   110  GLU110      0.2287
    184  O         34.5690    8.4400   -4.8000 O.2   110  GLU110     -0.2864
    185  CB        34.7650   11.5360   -5.5390 C.3   110  GLU110      0.0415
    186  CG        35.9420   11.9790   -4.7460 C.3   110  GLU110      0.1163
    187  CD        35.8210   13.4180   -4.2420 C.2   110  GLU110      0.3649
    188  OE1       34.8890   14.1780   -4.6120 O.co2 110  GLU110     -0.2457
    189  OE2       36.7290   13.8360   -3.4730 O.co2 110  GLU110     -0.2457
    190  N         36.7940    8.1320   -2.1470 N.3   112  PHE112     -0.1241
    191  CA        36.9750    8.6900   -0.8270 C.3   112  PHE112      0.1605
    192  C         37.8620    7.7650    0.0050 C.2   112  PHE112      0.2264
    193  O         37.8270    6.5660   -0.1570 O.2   112  PHE112     -0.2867
    194  CB        35.6460    8.9590   -0.1430 C.3   112  PHE112      0.0534
    195  CG        34.8330   10.0120   -0.8270 C.ar  112  PHE112     -0.0203
    196  CD1       35.1050   11.3600   -0.6540 C.ar  112  PHE112     -0.0042
    197  CD2       33.7460    9.6610   -1.6220 C.ar  112  PHE112     -0.0042
    198  CE1       34.3930   12.3390   -1.3320 C.ar  112  PHE112     -0.0003
    199  CE2       32.9840   10.6550   -2.2420 C.ar  112  PHE112     -0.0003
    200  CZ        33.3130   11.9850   -2.1060 C.ar  112  PHE112     -0.0000
    201  N         32.2480    9.7960    2.5590 N.3   118  LEU118     -0.1245
    202  CA        31.2950    9.4080    1.5020 C.3   118  LEU118      0.1561
    203  C         29.8500    9.5720    1.9950 C.2   118  LEU118      0.2260
    204  O         29.0020   10.1030    1.2690 O.2   118  LEU118     -0.2867
    205  CB        31.5270    7.9570    1.0790 C.3   118  LEU118      0.0270
    206  CG        30.4830    7.3400    0.1400 C.3   118  LEU118      0.0019
    207  CD1       30.3340    8.1150   -1.1940 C.3   118  LEU118      0.0001
    208  CD2       30.8480    5.8710   -0.0730 C.3   118  LEU118      0.0001
    209  N         26.9740   11.8310    0.3500 N.3   122  MET122     -0.1245
    210  CA        25.7210   11.2090   -0.1450 C.3   122  MET122      0.1570
    211  C         24.5080   11.9270    0.4530 C.2   122  MET122      0.2261
    212  O         23.4990   12.0960   -0.2230 O.2   122  MET122     -0.2867
    213  CB        25.7210    9.7310    0.1680 C.3   122  MET122      0.0387
    214  CG        26.7190    9.0300   -0.7220 C.3   122  MET122      0.0595
    215  SD        26.8200    7.2580   -0.4070 S.3   122  MET122     -0.1393
    216  CE        25.1980    6.7630   -0.8420 C.3   122  MET122      0.0692
    217  N         24.1630   14.8860   -1.5780 N.3   125  ASP125     -0.1225
    218  CA        23.6260   14.4760   -2.8720 C.3   125  ASP125      0.1805
    219  C         22.1050   14.3490   -2.8230 C.2   125  ASP125      0.2597
    220  O         21.3990   14.7770   -3.7260 O.2   125  ASP125     -0.2718
    221  CB        24.1850   13.1410   -3.3150 C.3   125  ASP125      0.1424
    222  CG        25.6510   13.1600   -3.5810 C.2   125  ASP125      0.3668
    223  OD1       26.2410   14.2160   -3.9370 O.co2 125  ASP125     -0.2456
    224  OD2       26.2010   12.0620   -3.4730 O.co2 125  ASP125     -0.2456
    225  N         21.6020   13.7840   -1.7400 N.am  126  VAL126     -0.1980
    226  CA        20.1600   13.6470   -1.5310 C.3   126  VAL126      0.1595
    227  C         19.4900   15.0260   -1.3940 C.2   126  VAL126      0.2287
    228  O         18.4760   15.2610   -2.0200 O.2   126  VAL126     -0.2864
    229  CB        19.8710   12.7340   -0.3290 C.3   126  VAL126      0.0276
    230  CG1       18.3990   12.8010    0.0530 C.3   126  VAL126      0.0022
    231  CG2       20.2160   11.3210   -0.7100 C.3   126  VAL126      0.0022
@<TRIPOS>BOND
     1    66    65    2
     2    65    64    1
     3    64    67    1
     4    64    63    1
     5    67    68    1
     6    68    70   ar
     7    68    69   ar
     8    70    72   ar
     9    69    71   ar
    10    94    92    1
    11    93    91    1
    12    72    73   ar
    13    78    77    2
    14    98    97    2
    15    71    73   ar
    16    97    96    1
    17    58    57    2
    18    91    92    1
    19    91    88    1
    20   165   164    2
    21    57    56    1
    22    75    76    1
    23   142   143    1
    24    73    74    1
    25    77    76    1
    26   164   163    1
    27   173   174    1
    28   177   178    1
    29   177   174    1
    30   162   163    1
    31    76    79    1
    32    90    89    2
    33   163   166    1
    34   137   136    2
    35    96    95    1
    36    96    99    1
    37   178   179    1
    38    89    88    1
    39    89    95   am
    40   174   175    1
    41   176   175    2
    42    56    59    1
    43    56    55    1
    44    88    87    1
    45   143   144    1
    46   143   146    1
    47   180   179    1
    48   136   135    1
    49    59    60    1
    50   144   145    2
    51   175   181   am
    52   101   102    1
    53   147   146    1
    54   147   148    1
    55    87    84   am
    56    79    81    1
    57    79    80    1
    58    99   100    1
    59   166   167    1
    60   115   114    1
    61   115   109    1
    62   150   148   ar
    63    60    62   am
    64    60    61    2
    65   114   113    1
    66   135   138    1
    67   135   134    1
    68   113   110    1
    69   181   182    1
    70   138   139    1
    71   167   168    1
    72   148   149   ar
    73    84    85    2
    74    84    83    1
    75   107   106    2
    76   109   110    1
    77   109   103   am
    78   102   103    1
    79   102   105    1
    80   106   108   am
    81   106   105    1
    82   110   111    1
    83   182   185    1
    84   182   183    1
    85    83    82    1
    86    83    86    1
    87   103   104    2
    88     1     2    1
    89     2     3    1
    90   139   141   ar
    91   139   140   ar
    92   168   169    1
    93   185   186    1
    94   183   184    2
    95   171   170    1
    96   151   152    1
    97    50    51    2
    98    50    49    1
    99   111   112    2
   100   111   116   am
   101   169   170    2
   102   170   172    1
   103   186   187    1
   104     3     4    2
   105     3     5   am
   106   188   187   ar
   107   154   153    2
   108    52    53    1
   109    52    49    1
   110    52    54    1
   111   187   189   ar
   112   153   152    1
   113     5     6    1
   114    49    48    1
   115   116   117    1
   116   152   155    1
   117   223   222   ar
   118   220   219    2
   119   222   224   ar
   120   222   221    1
   121   221   218    1
   122   125   126    2
   123   125   124    1
   124   155   156    1
   125     6     9    1
   126     6     7    1
   127   218   219    1
   128   218   217    1
   129   219   225   am
   130   123   124    1
   131   123   118   am
   132    23    22    1
   133   117   118    1
   134   117   120    1
   135   124   127    1
   136   199   200   ar
   137   199   197   ar
   138   121   120    1
   139   190   191    1
   140   200   198   ar
   141    24    22    1
   142   118   119    2
   143   228   227    2
   144   127   128    1
   145   120   122    1
   146   156   158   ar
   147   156   157   ar
   148   225   226    1
   149    22    21    2
   150   197   195   ar
   151     7    10   am
   152     7     8    2
   153   226   227    1
   154   226   229    1
   155    10    11    1
   156   158   160   ar
   157   198   196   ar
   158   130   128   ar
   159   130   132   ar
   160   207   206    1
   161   128   129   ar
   162   157   159   ar
   163   216   215    1
   164   191   194    1
   165   191   192    1
   166   195   196   ar
   167   195   194    1
   168   214   215    1
   169   214   213    1
   170   231   229    1
   171    21    20    1
   172   229   230    1
   173    11    12    1
   174    40    39    2
   175   132   133   ar
   176   212   211    2
   177   160   161   ar
   178   193   192    2
   179   210   213    1
   180   210   209    1
   181   210   211    1
   182   208   206    1
   183   206   205    1
   184   159   161   ar
   185    20    19    1
   186    19    18    2
   187    14    12   am
   188    14    15    1
   189   129   131   ar
   190    26    25    1
   191    26    27    1
   192    25    16   am
   193    39    38    1
   194    12    13    2
   195    41    38    1
   196    41    42    1
   197   205   202    1
   198   133   131   ar
   199    43    42   ar
   200    43    45   ar
   201    18    15    1
   202   204   203    2
   203    35    34    1
   204    15    16    1
   205   202   203    1
   206   202   201    1
   207    38    37    1
   208    42    44   ar
   209    16    17    2
   210    45    47   ar
   211    27    28    2
   212    44    46   ar
   213    47    46   ar
   214    34    33    1
   215    34    36    1
   216    33    30    1
   217    30    29    1
   218    30    31    1
   219    31    32    2
