@<TRIPOS>MOLECULE
tmp/5a8bC00.pdb
 172 159 0 0 0
SMALL
GASTEIGER

@<TRIPOS>ATOM
      1  N         22.4560  -34.0800   10.7650 N.3    22  VAL22      -0.1245
      2  CA        22.6920  -32.6890   11.1110 C.3    22  VAL22       0.1561
      3  C         23.8650  -32.2040   10.2680 C.2    22  VAL22       0.2260
      4  O         24.6420  -33.0120    9.7250 O.2    22  VAL22      -0.2867
      5  CB        22.9920  -32.4780   12.6190 C.3    22  VAL22       0.0252
      6  CG1       21.8520  -32.9870   13.4740 C.3    22  VAL22       0.0019
      7  CG2       24.3180  -33.1310   13.0000 C.3    22  VAL22       0.0019
      8  N         27.1170  -29.2680   10.5480 N.3    24  THR24      -0.1218
      9  CA        27.8100  -28.3540   11.4460 C.3    24  THR24       0.1862
     10  C         28.7020  -27.3280   10.7420 C.2    24  THR24       0.2287
     11  O         29.0320  -27.4630    9.5730 O.2    24  THR24      -0.2866
     12  CB        28.6350  -29.1340   12.4980 C.3    24  THR24       0.1770
     13  OG1       29.5710  -29.9950   11.8370 O.3    24  THR24      -0.2211
     14  CG2       27.7200  -29.9960   13.3640 C.3    24  THR24       0.0375
     15  N         32.4230  -26.1720   16.5780 N.3    31  ASN31      -0.1240
     16  CA        31.7300  -26.8420   15.4900 C.3    31  ASN31       0.1653
     17  C         30.2400  -27.0260   15.7100 C.2    31  ASN31       0.2266
     18  O         29.7700  -28.1650   15.7480 O.2    31  ASN31      -0.2867
     19  CB        32.3920  -28.2070   15.2610 C.3    31  ASN31       0.1155
     20  CG        32.1380  -28.7800   13.8750 C.2    31  ASN31       0.2627
     21  OD1       31.6770  -28.0950   12.9570 O.2    31  ASN31      -0.2716
     22  ND2       32.4890  -30.0410   13.7070 N.am   31  ASN31      -0.0877
     23  N         27.1690  -28.4090   20.0220 N.3    55  ASN55      -0.1225
     24  CA        27.9560  -29.5470   19.5860 C.3    55  ASN55       0.1785
     25  C         27.1780  -30.8530   19.8460 C.2    55  ASN55       0.2597
     26  O         26.5440  -30.9870   20.8940 O.2    55  ASN55      -0.2718
     27  CB        29.2960  -29.5550   20.3230 C.3    55  ASN55       0.1169
     28  CG        30.2810  -30.5340   19.7330 C.2    55  ASN55       0.2627
     29  OD1       30.2080  -31.7400   19.9620 O.2    55  ASN55      -0.2716
     30  ND2       31.2290  -30.0100   18.9750 N.am   55  ASN55      -0.0877
     31  N         27.2480  -31.8220   18.9310 N.am   56  CYS56      -0.1956
     32  CA        26.4600  -33.0550   19.0700 C.3    56  CYS56       0.1843
     33  C         26.8560  -33.9740   20.2150 C.2    56  CYS56       0.2625
     34  O         26.2170  -35.0060   20.4350 O.2    56  CYS56      -0.2714
     35  CB        26.5240  -33.8930   17.7960 C.3    56  CYS56       0.0997
     36  SG        25.8260  -33.1500   16.3570 S.3    56  CYS56      -0.0797
     37  N         27.9190  -33.6410   20.9280 N.am   57  ARG57      -0.1977
     38  CA        28.4150  -34.5500   21.9380 C.3    57  ARG57       0.1597
     39  C         27.4020  -34.7850   23.0360 C.2    57  ARG57       0.2287
     40  O         27.5070  -35.7530   23.7750 O.2    57  ARG57      -0.2864
     41  CB        29.7250  -34.0320   22.5060 C.3    57  ARG57       0.0334
     42  CG        29.6210  -32.7830   23.3040 C.3    57  ARG57       0.0492
     43  CD        30.9550  -32.5200   23.9470 C.3    57  ARG57       0.2205
     44  NE        32.0200  -32.3560   22.9690 N.pl3  57  ARG57      -0.0865
     45  CZ        32.3350  -31.1870   22.4250 C.cat  57  ARG57       0.5346
     46  NH1       31.6500  -30.1030   22.7760 N.pl3  57  ARG57       0.1354
     47  NH2       33.3220  -31.1060   21.5350 N.pl3  57  ARG57       0.1354
     48  N         24.7170  -36.0690   22.7080 N.3    59  LEU59      -0.1231
     49  CA        24.1550  -37.3880   22.4650 C.3    59  LEU59       0.1693
     50  C         24.8850  -38.4850   23.2280 C.2    59  LEU59       0.2591
     51  O         24.3890  -39.6040   23.3520 O.2    59  LEU59      -0.2718
     52  CB        24.1880  -37.7080   20.9820 C.3    59  LEU59       0.0284
     53  CG        23.1670  -36.9600   20.1420 C.3    59  LEU59       0.0019
     54  CD1       23.3990  -37.2850   18.6920 C.3    59  LEU59       0.0001
     55  CD2       21.7840  -37.3640   20.5740 C.3    59  LEU59       0.0001
     56  N         26.0860  -38.1700   23.7040 N.am   60  GLN60      -0.1979
     57  CA        26.9140  -39.1470   24.4040 C.3    60  GLN60       0.1601
     58  C         26.6330  -39.1510   25.9120 C.2    60  GLN60       0.2287
     59  O         26.0030  -38.2340   26.4460 O.2    60  GLN60      -0.2864
     60  CB        28.4000  -38.8840   24.1220 C.3    60  GLN60       0.0394
     61  CG        28.7870  -39.1140   22.6910 C.3    60  GLN60       0.0908
     62  CD        30.0720  -38.4020   22.2910 C.2    60  GLN60       0.2608
     63  OE1       30.9710  -38.2400   23.0990 O.2    60  GLN60      -0.2717
     64  NE2       30.1520  -37.9570   21.0440 N.am   60  GLN60      -0.0878
     65  N         34.2590  -42.7360   19.8620 N.3    69  VAL69      -0.1245
     66  CA        34.1910  -41.2830   19.7690 C.3    69  VAL69       0.1561
     67  C         35.4960  -40.6930   19.2180 C.2    69  VAL69       0.2260
     68  O         35.4770  -39.7410   18.4420 O.2    69  VAL69      -0.2867
     69  CB        33.8460  -40.6510   21.1490 C.3    69  VAL69       0.0252
     70  CG1       33.8910  -39.1260   21.0970 C.3    69  VAL69       0.0019
     71  CG2       32.4780  -41.1530   21.6460 C.3    69  VAL69       0.0019
     72  N         35.6350  -40.6940   15.6040 N.3    72  ILE72      -0.1231
     73  CA        34.9330  -39.5230   15.0810 C.3    72  ILE72       0.1693
     74  C         35.7890  -38.2520   15.1610 C.2    72  ILE72       0.2594
     75  O         35.7580  -37.4350   14.2440 O.2    72  ILE72      -0.2718
     76  CB        33.6150  -39.2510   15.8290 C.3    72  ILE72       0.0266
     77  CG1       32.7140  -40.4840   15.8200 C.3    72  ILE72       0.0019
     78  CG2       32.8910  -38.0710   15.2160 C.3    72  ILE72       0.0020
     79  CD1       31.3720  -40.2460   16.4620 C.3    72  ILE72       0.0001
     80  N         36.5420  -38.0830   16.2520 N.am   73  ARG73      -0.1934
     81  CA        37.4070  -36.9160   16.4240 C.3    73  ARG73       0.1813
     82  C         38.4470  -36.8570   15.3020 C.2    73  ARG73       0.2332
     83  O         38.7890  -35.7740   14.8140 O.2    73  ARG73      -0.2860
     84  CB        38.0970  -36.9620   17.7960 C.2    73  ARG73       0.0019
     85  CG        38.6230  -35.6270   18.3950 C.2    73  ARG73       0.0178
     86  CD        38.4800  -34.3860   17.5130 C.3    73  ARG73       0.2464
     87  NE        39.7320  -33.6310   17.4610 N.pl3  73  ARG73      -0.0815
     88  CZ        39.8320  -32.3320   17.1900 C.cat  73  ARG73       0.5349
     89  NH1       38.7500  -31.6150   16.9420 N.pl3  73  ARG73       0.1354
     90  NH2       41.0230  -31.7520   17.1700 N.pl3  73  ARG73       0.1354
     91  N         37.2440  -35.4050   12.0010 N.3    76  ILE76      -0.1245
     92  CA        37.1240  -33.9660   12.0970 C.3    76  ILE76       0.1561
     93  C         38.5040  -33.3370   11.9710 C.2    76  ILE76       0.2260
     94  O         38.6580  -32.2830   11.3760 O.2    76  ILE76      -0.2867
     95  CB        36.4360  -33.5660   13.4230 C.3    76  ILE76       0.0252
     96  CG1       34.9970  -34.0790   13.4280 C.3    76  ILE76       0.0019
     97  CG2       36.4420  -32.0690   13.6160 C.3    76  ILE76       0.0019
     98  CD1       34.3110  -33.9280   14.7380 C.3    76  ILE76       0.0001
     99  N         28.1820  -46.4320   17.8300 N.3    86  LEU86      -0.1245
    100  CA        28.2690  -46.0960   19.2490 C.3    86  LEU86       0.1561
    101  C         26.9150  -45.9500   19.9120 C.2    86  LEU86       0.2260
    102  O         25.8800  -46.0150   19.2640 O.2    86  LEU86      -0.2867
    103  CB        29.0820  -44.8150   19.4760 C.3    86  LEU86       0.0270
    104  CG        28.9420  -43.5110   18.6840 C.3    86  LEU86       0.0019
    105  CD1       27.5350  -43.2140   18.2080 C.3    86  LEU86       0.0001
    106  CD2       29.4650  -42.3400   19.5260 C.3    86  LEU86       0.0001
    107  N         24.2410  -43.7790   21.9210 N.3    88  ASN88      -0.1240
    108  CA        23.8510  -42.4010   22.1690 C.3    88  ASN88       0.1653
    109  C         22.6290  -42.3240   23.0660 C.2    88  ASN88       0.2266
    110  O         21.9290  -43.3180   23.2960 O.2    88  ASN88      -0.2867
    111  CB        23.5640  -41.6480   20.8710 C.3    88  ASN88       0.1155
    112  CG        24.8240  -41.2000   20.1420 C.2    88  ASN88       0.2627
    113  OD1       24.7460  -40.8080   18.9830 O.2    88  ASN88      -0.2716
    114  ND2       25.9800  -41.2490   20.8110 N.am   88  ASN88      -0.0877
    115  N         23.7500  -46.2310   17.6150 N.3    98  ASN98      -0.1240
    116  CA        23.8370  -45.3380   16.4810 C.3    98  ASN98       0.1653
    117  C         24.8980  -45.8120   15.5060 C.2    98  ASN98       0.2266
    118  O         26.0870  -45.6680   15.7670 O.2    98  ASN98      -0.2867
    119  CB        24.1370  -43.9130   16.9470 C.3    98  ASN98       0.1155
    120  CG        24.2310  -42.9200   15.7900 C.2    98  ASN98       0.2627
    121  OD1       23.8730  -43.2240   14.6490 O.2    98  ASN98      -0.2716
    122  ND2       24.7070  -41.7220   16.0900 N.am   98  ASN98      -0.0877
    123  N         26.5850  -44.5750   12.9660 N.3   100  PHE100     -0.1241
    124  CA        26.8180  -43.1870   12.6180 C.3   100  PHE100      0.1605
    125  C         27.8230  -42.9970   11.4780 C.2   100  PHE100      0.2264
    126  O         28.8390  -43.6890   11.4060 O.2   100  PHE100     -0.2867
    127  CB        27.3010  -42.4610   13.8680 C.3   100  PHE100      0.0534
    128  CG        27.7890  -41.0900   13.6140 C.ar  100  PHE100     -0.0203
    129  CD1       26.8980  -40.0650   13.3210 C.ar  100  PHE100     -0.0042
    130  CD2       29.1450  -40.8220   13.6520 C.ar  100  PHE100     -0.0042
    131  CE1       27.3520  -38.7810   13.0780 C.ar  100  PHE100     -0.0003
    132  CE2       29.6040  -39.5390   13.4120 C.ar  100  PHE100     -0.0003
    133  CZ        28.7020  -38.5110   13.1210 C.ar  100  PHE100     -0.0000
    134  N         29.9290  -39.8320    9.2780 N.3   102  ILE102     -0.1245
    135  CA        30.3090  -38.4310    9.1850 C.3   102  ILE102      0.1561
    136  C         31.0840  -38.1000    7.9010 C.2   102  ILE102      0.2260
    137  O         31.9780  -38.8370    7.4710 O.2   102  ILE102     -0.2867
    138  CB        31.1290  -38.0070   10.4100 C.3   102  ILE102      0.0252
    139  CG1       31.5980  -36.5510   10.2340 C.3   102  ILE102      0.0019
    140  CG2       32.3020  -38.9390   10.6060 C.3   102  ILE102      0.0019
    141  CD1       32.2620  -35.9240   11.4400 C.3   102  ILE102      0.0001
    142  N         30.6050  -30.1680    8.0740 N.3   115  PHE115     -0.1227
    143  CA        30.5090  -31.6010    8.3320 C.3   115  PHE115      0.1736
    144  C         29.0380  -31.9850    8.3430 C.2   115  PHE115      0.2595
    145  O         28.2080  -31.2210    8.8470 O.2   115  PHE115     -0.2718
    146  CB        31.1720  -32.0040    9.6440 C.3   115  PHE115      0.0547
    147  CG        32.6630  -31.9470    9.6010 C.ar  115  PHE115     -0.0202
    148  CD1       33.3990  -33.0170    9.1010 C.ar  115  PHE115     -0.0042
    149  CD2       33.3430  -30.8260   10.0710 C.ar  115  PHE115     -0.0042
    150  CE1       34.7980  -32.9720    9.0680 C.ar  115  PHE115     -0.0003
    151  CE2       34.7350  -30.7680   10.0350 C.ar  115  PHE115     -0.0003
    152  CZ        35.4620  -31.8450    9.5310 C.ar  115  PHE115     -0.0000
    153  N         28.7260  -33.1510    7.7670 N.am  116  VAL116     -0.1966
    154  CA        27.3910  -33.7450    7.8510 C.3   116  VAL116      0.1727
    155  C         27.4630  -35.0440    8.6420 C.2   116  VAL116      0.2616
    156  O         28.3220  -35.8850    8.3910 O.2   116  VAL116     -0.2715
    157  CB        26.7980  -34.0560    6.4650 C.3   116  VAL116      0.0290
    158  CG1       25.4020  -34.6300    6.6170 C.3   116  VAL116      0.0023
    159  CG2       26.7730  -32.8140    5.6050 C.3   116  VAL116      0.0023
    160  N         26.5760  -35.2190    9.6020 N.am  117  GLY117     -0.1955
    161  CA        26.5790  -36.4520   10.3630 C.3   117  GLY117      0.1869
    162  C         25.2610  -37.1770   10.2340 C.2   117  GLY117      0.2309
    163  O         24.2150  -36.5690   10.4290 O.2   117  GLY117     -0.2863
    164  N         22.6850  -40.3300   11.3820 N.3   119  GLN119     -0.1245
    165  CA        22.4250  -41.2760   12.4600 C.3   119  GLN119      0.1566
    166  C         21.3910  -42.3210   12.0320 C.2   119  GLN119      0.2260
    167  O         20.2680  -41.9710   11.6680 O.2   119  GLN119     -0.2867
    168  CB        21.9140  -40.5520   13.7170 C.3   119  GLN119      0.0367
    169  CG        22.8320  -39.5120   14.3300 C.3   119  GLN119      0.0905
    170  CD        22.7500  -38.1620   13.6210 C.2   119  GLN119      0.2608
    171  OE1       21.8180  -37.9070   12.8550 O.2   119  GLN119     -0.2717
    172  NE2       23.7240  -37.2830   13.8940 N.am  119  GLN119     -0.0878
@<TRIPOS>BOND
     1   159   157    1
     2   157   158    1
     3   157   154    1
     4   137   136    2
     5   153   154    1
     6   153   144   am
     7   154   155    1
     8   136   135    1
     9   142   143    1
    10   143   144    1
    11   143   146    1
    12   144   145    2
    13   156   155    2
    14   155   160   am
    15   150   148   ar
    16   150   152   ar
    17   148   147   ar
    18   135   134    1
    19   135   138    1
    20   152   151   ar
    21    11    10    2
    22   147   146    1
    23   147   149   ar
    24   160   161    1
    25     4     3    2
    26   151   149   ar
    27   139   138    1
    28   139   141    1
    29   162   161    1
    30   162   163    2
    31     3     2    1
    32   138   140    1
    33     8     9    1
    34    10     9    1
    35     1     2    1
    36     2     5    1
    37    94    93    2
    38   164   165    1
    39   126   125    2
    40     9    12    1
    41   125   124    1
    42   167   166    2
    43    13    12    1
    44    93    92    1
    45    91    92    1
    46   166   165    1
    47    92    95    1
    48   165   168    1
    49    12    14    1
    50   124   123    1
    51   124   127    1
    52     5     7    1
    53     5     6    1
    54   171   170    2
    55    21    20    2
    56   131   133   ar
    57   131   129   ar
    58   133   132   ar
    59   129   128   ar
    60   132   130   ar
    61    95    96    1
    62    95    97    1
    63    96    98    1
    64   128   130   ar
    65   128   127    1
    66   170   172   am
    67   170   169    1
    68    22    20   am
    69   168   169    1
    70    20    19    1
    71    75    74    2
    72   121   120    2
    73    83    82    2
    74    73    74    1
    75    73    72    1
    76    73    76    1
    77    74    80   am
    78    78    76    1
    79    19    16    1
    80    82    81    1
    81    16    17    1
    82    16    15    1
    83   117   118    2
    84   117   116    1
    85    17    18    2
    86   120   122   am
    87   120   119    1
    88    77    76    1
    89    77    79    1
    90    80    81    1
    91    36    35    1
    92    81    84    1
    93   116   119    1
    94   116   115    1
    95    89    88    1
    96    90    88    1
    97    88    87    2
    98    87    86    1
    99    86    85    1
   100    35    32    1
   101    84    85    2
   102    99   100    1
   103   105   104    1
   104    68    67    2
   105   104   103    1
   106   104   106    1
   107    54    53    1
   108    31    32    1
   109    31    25   am
   110    30    28   am
   111   113   112    2
   112    32    33    1
   113    67    66    1
   114   100   103    1
   115   100   101    1
   116   102   101    2
   117    24    25    1
   118    24    23    1
   119    24    27    1
   120    28    29    2
   121    28    27    1
   122    66    65    1
   123    66    69    1
   124    25    26    2
   125   112   114   am
   126   112   111    1
   127    53    55    1
   128    53    52    1
   129    33    34    2
   130    33    37   am
   131   111   108    1
   132    37    38    1
   133    52    49    1
   134    64    62   am
   135    70    69    1
   136    69    71    1
   137    47    45    1
   138   107   108    1
   139    38    41    1
   140    38    39    1
   141   108   109    1
   142    62    61    1
   143    62    63    2
   144    45    46    1
   145    45    44    2
   146    49    48    1
   147    49    50    1
   148    41    42    1
   149    61    60    1
   150    44    43    1
   151    39    40    2
   152   109   110    2
   153    50    51    2
   154    50    56   am
   155    42    43    1
   156    56    57    1
   157    60    57    1
   158    57    58    1
   159    58    59    2
