@<TRIPOS>MOLECULE
tmp/5a8cA00.pdb
 104 100 0 0 0
SMALL
GASTEIGER

@<TRIPOS>ATOM
      1  N         14.6870   24.7770   36.4260 N.3    13  ASP13      -0.1239
      2  CA        15.9980   25.5000   36.4970 C.3    13  ASP13       0.1674
      3  C         15.8810   26.8960   37.0800 C.2    13  ASP13       0.2266
      4  O         16.3540   27.8790   36.5040 O.2    13  ASP13      -0.2867
      5  CB        16.6440   25.5860   35.1050 C.3    13  ASP13       0.1410
      6  CG        16.6450   24.2870   34.3590 C.2    13  ASP13       0.3668
      7  OD1       16.8770   23.2300   34.9590 O.co2  13  ASP13      -0.2456
      8  OD2       16.4640   24.3690   33.0850 O.co2  13  ASP13      -0.2456
      9  N         14.9740   19.1160   25.0650 N.3    40  TYR40      -0.1241
     10  CA        14.3550   20.2880   25.6270 C.3    40  TYR40       0.1605
     11  C         13.5700   21.0720   24.5860 C.2    40  TYR40       0.2264
     12  O         13.9270   21.0810   23.4010 O.2    40  TYR40      -0.2867
     13  CB        15.4160   21.2020   26.2540 C.3    40  TYR40       0.0534
     14  CG        16.2440   20.5240   27.3140 C.ar   40  TYR40      -0.0201
     15  CD1       15.7160   20.2590   28.5630 C.ar   40  TYR40      -0.0009
     16  CD2       17.5380   20.1290   27.0640 C.ar   40  TYR40      -0.0009
     17  CE1       16.4330   19.5920   29.5380 C.ar   40  TYR40       0.0417
     18  CE2       18.2870   19.4760   28.0320 C.ar   40  TYR40       0.0417
     19  CZ        17.7290   19.2400   29.2690 C.ar   40  TYR40       0.1957
     20  OH        18.4260   18.6400   30.2720 O.3    40  TYR40      -0.2866
     21  N         12.6680   24.8100   25.3500 N.3    42  ILE42      -0.1245
     22  CA        12.6890   25.9300   26.3010 C.3    42  ILE42       0.1561
     23  C         12.9920   27.2100   25.4790 C.2    42  ILE42       0.2260
     24  O         14.1660   27.6140   25.3580 O.2    42  ILE42      -0.2867
     25  CB        13.7380   25.7330   27.3970 C.3    42  ILE42       0.0252
     26  CG1       13.5070   24.4190   28.1730 C.3    42  ILE42       0.0019
     27  CG2       13.7120   26.9080   28.3540 C.3    42  ILE42       0.0019
     28  CD1       14.7450   23.9770   28.9440 C.3    42  ILE42       0.0001
     29  N         17.8560   28.6280   28.0350 N.3    76  TRP76      -0.1227
     30  CA        17.8960   27.6220   29.0700 C.3    76  TRP76       0.1737
     31  C         18.4900   28.1760   30.3540 C.2    76  TRP76       0.2595
     32  O         19.5860   28.7760   30.3230 O.2    76  TRP76      -0.2718
     33  CB        18.7800   26.4310   28.6070 C.3    76  TRP76       0.0564
     34  CG        18.3090   25.7100   27.4040 C.ar   76  TRP76       0.0003
     35  CD1       17.2390   25.9720   26.6160 C.ar   76  TRP76       0.0946
     36  CD2       18.9310   24.5480   26.8550 C.ar   76  TRP76       0.0152
     37  NE1       17.1400   25.0230   25.6000 N.ar   76  TRP76      -0.2442
     38  CE2       18.2080   24.1610   25.7330 C.ar   76  TRP76       0.0810
     39  CE3       20.0970   23.8170   27.2070 C.ar   76  TRP76       0.0012
     40  CZ2       18.5780   23.0780   24.9380 C.ar   76  TRP76       0.0191
     41  CZ3       20.4420   22.7620   26.4030 C.ar   76  TRP76       0.0001
     42  CH2       19.7170   22.4030   25.3020 C.ar   76  TRP76       0.0015
     43  N         17.8730   27.8740   31.4930 N.am   77  ALA77      -0.1980
     44  CA        18.4840   27.9790   32.8210 C.3    77  ALA77       0.1597
     45  C         18.9470   29.3920   33.1520 C.2    77  ALA77       0.2287
     46  O         20.1380   29.7060   33.1540 O.2    77  ALA77      -0.2864
     47  CB        19.6030   26.9590   33.0130 C.3    77  ALA77       0.0319
     48  N         27.1060   26.3370   28.9760 N.3   135  PHE135     -0.1227
     49  CA        25.7660   26.7170   29.3430 C.3   135  PHE135      0.1736
     50  C         25.6550   26.9660   30.8390 C.2   135  PHE135      0.2595
     51  O         26.6380   26.9300   31.6010 O.2   135  PHE135     -0.2718
     52  CB        24.7270   25.7320   28.7660 C.3   135  PHE135      0.0547
     53  CG        24.6680   24.3510   29.3470 C.ar  135  PHE135     -0.0202
     54  CD1       25.3420   23.9250   30.5020 C.ar  135  PHE135     -0.0042
     55  CD2       23.8130   23.4400   28.7400 C.ar  135  PHE135     -0.0042
     56  CE1       25.1850   22.6700   31.0090 C.ar  135  PHE135     -0.0003
     57  CE2       23.6450   22.1630   29.2650 C.ar  135  PHE135     -0.0003
     58  CZ        24.3040   21.7910   30.4230 C.ar  135  PHE135     -0.0000
     59  N         24.3970   27.1770   31.2790 N.am  136  ASP136     -0.1974
     60  CA        24.0260   27.1980   32.6910 C.3   136  ASP136      0.1709
     61  C         24.7790   28.2820   33.5000 C.2   136  ASP136      0.2293
     62  O         25.4270   27.9880   34.5040 O.2   136  ASP136     -0.2864
     63  CB        24.1280   25.8260   33.3530 C.3   136  ASP136      0.1436
     64  CG        23.0120   24.8470   32.9890 C.2   136  ASP136      0.3671
     65  OD1       22.2560   25.1010   32.0370 O.co2 136  ASP136     -0.2456
     66  OD2       22.9740   23.8210   33.7120 O.co2 136  ASP136     -0.2456
     67  N         26.2140   20.1580   35.9090 N.3   185  GLU185     -0.1245
     68  CA        25.6290   21.3830   35.3380 C.3   185  GLU185      0.1567
     69  C         25.2070   22.2910   36.5250 C.2   185  GLU185      0.2260
     70  O         25.5400   21.9870   37.6680 O.2   185  GLU185     -0.2867
     71  CB        24.4930   21.0590   34.3390 C.3   185  GLU185      0.0388
     72  CG        23.3990   20.3250   35.0170 C.3   185  GLU185      0.1160
     73  CD        22.4000   19.5350   34.0630 C.2   185  GLU185      0.3649
     74  OE1       22.3010   19.7450   32.8160 O.co2 185  GLU185     -0.2457
     75  OE2       21.5820   18.8370   34.7150 O.co2 185  GLU185     -0.2457
     76  N         17.0380   15.2060   36.0200 N.3   240  ASN240     -0.1240
     77  CA        17.8650   16.3220   36.3910 C.3   240  ASN240      0.1653
     78  C         17.3180   17.1240   37.5550 C.2   240  ASN240      0.2266
     79  O         16.1230   17.1060   37.9060 O.2   240  ASN240     -0.2867
     80  CB        18.2360   17.1850   35.1880 C.3   240  ASN240      0.1155
     81  CG        17.0520   17.6560   34.3810 C.2   240  ASN240      0.2627
     82  OD1       15.9500   17.8920   34.9270 O.2   240  ASN240     -0.2716
     83  ND2       17.2310   17.7360   33.0740 N.am  240  ASN240     -0.0877
     84  N         18.0840   21.0060   39.5720 N.3   242  HIS242     -0.1241
     85  CA        18.6750   22.3170   39.3020 C.3   242  HIS242      0.1621
     86  C         18.1130   23.3160   40.2900 C.2   242  HIS242      0.2264
     87  O         16.9260   23.3310   40.5570 O.2   242  HIS242     -0.2867
     88  CB        18.3230   22.7480   37.8860 C.3   242  HIS242      0.0745
     89  CG        19.1900   23.8650   37.3230 C.ar  242  HIS242      0.0817
     90  ND1       19.9630   23.6650   36.2050 N.ar  242  HIS242     -0.2268
     91  CD2       19.3840   25.1630   37.6850 C.ar  242  HIS242      0.1154
     92  CE1       20.5900   24.8200   35.9460 C.ar  242  HIS242      0.1986
     93  NE2       20.2890   25.7260   36.8290 N.ar  242  HIS242     -0.2212
     94  N          8.6320   19.9050   33.8980 N.3   273  ARG273     -0.1245
     95  CA         9.0200   20.1100   35.2870 C.3   273  ARG273      0.1563
     96  C          8.1470   21.1920   35.9340 C.2   273  ARG273      0.2260
     97  O          7.4270   21.9150   35.2590 O.2   273  ARG273     -0.2867
     98  CB        10.4980   20.4590   35.3430 C.3   273  ARG273      0.0307
     99  CG        11.4000   19.2940   34.9230 C.3   273  ARG273      0.0489
    100  CD        12.7990   19.6990   34.5810 C.3   273  ARG273      0.2205
    101  NE        12.8840   20.2800   33.2470 N.pl3 273  ARG273     -0.0865
    102  CZ        14.0340   20.6970   32.7300 C.cat 273  ARG273      0.5346
    103  NH1       15.1860   20.4110   33.3110 N.pl3 273  ARG273      0.1354
    104  NH2       14.0350   21.4200   31.6300 N.pl3 273  ARG273      0.1354
@<TRIPOS>BOND
     1    12    11    2
     2    11    10    1
     3    40    42   ar
     4    40    38   ar
     5     9    10    1
     6    42    41   ar
     7    21    22    1
     8    24    23    2
     9    23    22    1
    10    37    38   ar
    11    37    35   ar
    12    10    13    1
    13    38    36   ar
    14    13    14    1
    15    22    25    1
    16    41    39   ar
    17    35    34   ar
    18    36    39   ar
    19    36    34   ar
    20    16    14   ar
    21    16    18   ar
    22    14    15   ar
    23    25    26    1
    24    25    27    1
    25    34    33    1
    26    18    19   ar
    27    29    30    1
    28    26    28    1
    29    15    17   ar
    30    33    30    1
    31    55    57   ar
    32    55    53   ar
    33    52    49    1
    34    52    53    1
    35    48    49    1
    36    30    31    1
    37    57    58   ar
    38    19    17   ar
    39    19    20    1
    40    49    50    1
    41    53    54   ar
    42    32    31    2
    43    31    43   am
    44    58    56   ar
    45    54    56   ar
    46    50    59   am
    47    50    51    2
    48    59    60    1
    49    43    44    1
    50   104   102    1
    51    65    64   ar
    52    60    63    1
    53    60    61    1
    54   102   101    2
    55   102   103    1
    56    74    73   ar
    57    44    47    1
    58    44    45    1
    59    64    63    1
    60    64    66   ar
    61    83    81   am
    62     8     6   ar
    63    45    46    2
    64   101   100    1
    65    61    62    2
    66    94    95    1
    67    73    75   ar
    68    73    72    1
    69    71    72    1
    70    71    68    1
    71     6     7   ar
    72     6     5    1
    73    81    82    2
    74    81    80    1
    75   100    99    1
    76    99    98    1
    77     5     2    1
    78    80    77    1
    79    97    96    2
    80    95    98    1
    81    95    96    1
    82    68    67    1
    83    68    69    1
    84    92    90   ar
    85    92    93   ar
    86    76    77    1
    87    90    89   ar
    88    77    78    1
    89     1     2    1
    90     2     3    1
    91     4     3    2
    92    69    70    2
    93    93    91   ar
    94    89    91   ar
    95    89    88    1
    96    78    79    2
    97    88    85    1
    98    85    84    1
    99    85    86    1
   100    86    87    2
