@<TRIPOS>MOLECULE
tmp/5a8eA04.pdb
 153 146 0 0 0
SMALL
GASTEIGER

@<TRIPOS>ATOM
      1  N         17.0490   86.9450   21.5700 N.3    38  GLN38      -0.1231
      2  CA        16.0650   86.7100   20.5030 C.3    38  GLN38       0.1698
      3  C         16.6540   86.9550   19.1070 C.2    38  GLN38       0.2593
      4  O         16.0920   87.7100   18.3100 O.2    38  GLN38      -0.2718
      5  CB        14.8240   87.5960   20.7090 C.3    38  GLN38       0.0381
      6  CG        13.9740   87.2050   21.9000 C.3    38  GLN38       0.0905
      7  CD        13.1580   85.9600   21.6290 C.2    38  GLN38       0.2608
      8  OE1       12.0780   86.0330   21.0380 O.2    38  GLN38      -0.2717
      9  NE2       13.6730   84.8060   22.0480 N.am   38  GLN38      -0.0878
     10  N         17.7720   86.2970   18.8080 N.am   39  THR39      -0.1939
     11  CA        18.4210   86.3970   17.5040 C.3    39  THR39       0.2028
     12  C         18.0270   85.2020   16.6370 C.2    39  THR39       0.2642
     13  O         17.5110   84.2000   17.1440 O.2    39  THR39      -0.2714
     14  CB        19.9510   86.4670   17.6490 C.3    39  THR39       0.1808
     15  OG1       20.4160   85.3650   18.4360 O.3    39  THR39      -0.2208
     16  CG2       20.3550   87.7710   18.3200 C.3    39  THR39       0.0379
     17  N         18.2540   85.3270   15.3300 N.am   40  LEU40      -0.1963
     18  CA        17.9640   84.2470   14.3760 C.3    40  LEU40       0.1728
     19  C         18.8190   83.0120   14.6360 C.2    40  LEU40       0.2617
     20  O         18.3260   81.8840   14.5820 O.2    40  LEU40      -0.2715
     21  CB        18.1820   84.7220   12.9360 C.3    40  LEU40       0.0311
     22  CG        17.1020   85.6640   12.4030 C.3    40  LEU40       0.0022
     23  CD1       17.6150   86.5160   11.2530 C.3    40  LEU40       0.0001
     24  CD2       15.8890   84.8700   11.9640 C.3    40  LEU40       0.0001
     25  N         20.0990   83.2430   14.9120 N.am   41  THR41      -0.1937
     26  CA        21.0330   82.1810   15.2620 C.3    41  THR41       0.2028
     27  C         20.5540   81.3540   16.4540 C.2    41  THR41       0.2642
     28  O         20.6430   80.1270   16.4290 O.2    41  THR41      -0.2714
     29  CB        22.4300   82.7600   15.5560 C.3    41  THR41       0.1808
     30  OG1       22.8860   83.4880   14.4060 O.3    41  THR41      -0.2208
     31  CG2       23.4290   81.6630   15.8660 C.3    41  THR41       0.0379
     32  N         20.0430   82.0210   17.4860 N.am   42  ASN42      -0.1971
     33  CA        19.5590   81.3220   18.6810 C.3    42  ASN42       0.1688
     34  C         18.2810   80.5010   18.4660 C.2    42  ASN42       0.2292
     35  O         18.0040   79.5800   19.2400 O.2    42  ASN42      -0.2864
     36  CB        19.4100   82.2930   19.8580 C.3    42  ASN42       0.1181
     37  CG        20.7490   82.6750   20.4750 C.2    42  ASN42       0.2629
     38  OD1       21.7910   82.1020   20.1540 O.2    42  ASN42      -0.2716
     39  ND2       20.7240   83.6390   21.3740 N.am   42  ASN42      -0.0877
     40  N         25.3750   82.2390    8.7570 N.3   104  ARG104     -0.1245
     41  CA        26.3420   83.2180    9.2500 C.3   104  ARG104      0.1563
     42  C         27.2760   83.7220    8.1630 C.2   104  ARG104      0.2260
     43  O         27.6040   84.9020    8.1550 O.2   104  ARG104     -0.2867
     44  CB        27.1590   82.6500   10.4210 C.3   104  ARG104      0.0307
     45  CG        26.3830   82.4490   11.7180 C.3   104  ARG104      0.0489
     46  CD        25.7370   83.7340   12.2090 C.3   104  ARG104      0.2205
     47  NE        24.3710   83.9240   11.7000 N.pl3 104  ARG104     -0.0865
     48  CZ        23.6950   85.0780   11.7060 C.cat 104  ARG104      0.5346
     49  NH1       24.2310   86.1830   12.1770 N.pl3 104  ARG104      0.1354
     50  NH2       22.4570   85.1370   11.2270 N.pl3 104  ARG104      0.1354
     51  N         25.2220   86.1320    6.3480 N.3   107  ALA107     -0.1231
     52  CA        25.0280   87.2660    7.2440 C.3   107  ALA107      0.1694
     53  C         26.2240   88.2400    7.2700 C.2   107  ALA107      0.2591
     54  O         26.0220   89.4510    7.1900 O.2   107  ALA107     -0.2718
     55  CB        24.6990   86.7760    8.6440 C.3   107  ALA107      0.0304
     56  N         27.4530   87.7270    7.3780 N.am  108  ILE108     -0.1980
     57  CA        28.6510   88.6060    7.3550 C.3   108  ILE108      0.1595
     58  C         28.9980   89.1710    5.9740 C.2   108  ILE108      0.2287
     59  O         29.4350   90.3170    5.8840 O.2   108  ILE108     -0.2864
     60  CB        29.9360   87.9660    7.9650 C.3   108  ILE108      0.0276
     61  CG1       30.3570   86.6810    7.2360 C.3   108  ILE108      0.0022
     62  CG2       29.7650   87.7600    9.4640 C.3   108  ILE108      0.0022
     63  CD1       31.6030   86.0510    7.8150 C.3   108  ILE108      0.0001
     64  N         25.3670   91.5820    4.9260 N.3   111  PRO111     -0.2116
     65  CA        24.5320   91.9720    6.0770 C.3   111  PRO111      0.1372
     66  C         23.3010   92.7900    5.6920 C.2   111  PRO111      0.2244
     67  O         22.2790   92.7340    6.3730 O.2   111  PRO111     -0.2868
     68  CB        25.4790   92.8180    6.9480 C.3   111  PRO111      0.0268
     69  CG        26.8300   92.7370    6.3260 C.3   111  PRO111      0.0207
     70  CD        26.6460   92.3150    4.9020 C.3   111  PRO111      0.0892
     71  N         20.8250   90.2310    3.9070 N.3   114  TYR114     -0.1227
     72  CA        20.4430   89.2540    4.9290 C.3   114  TYR114      0.1736
     73  C         19.3690   89.7940    5.8640 C.2   114  TYR114      0.2595
     74  O         18.3800   89.1170    6.1350 O.2   114  TYR114     -0.2718
     75  CB        21.6560   88.8020    5.7610 C.3   114  TYR114      0.0548
     76  CG        21.2880   87.7670    6.8030 C.ar  114  TYR114     -0.0200
     77  CD1       20.8360   88.1490    8.0690 C.ar  114  TYR114     -0.0009
     78  CD2       21.3470   86.4080    6.5120 C.ar  114  TYR114     -0.0009
     79  CE1       20.4650   87.2110    9.0160 C.ar  114  TYR114      0.0417
     80  CE2       20.9870   85.4620    7.4570 C.ar  114  TYR114      0.0417
     81  CZ        20.5420   85.8690    8.7110 C.ar  114  TYR114      0.1957
     82  OH        20.1730   84.9530    9.6760 O.3   114  TYR114     -0.2866
     83  N         19.5750   91.0140    6.3490 N.am  115  GLN115     -0.1979
     84  CA        18.7160   91.5910    7.3840 C.3   115  GLN115      0.1601
     85  C         17.3560   92.0420    6.8330 C.2   115  GLN115      0.2287
     86  O         16.3580   91.9960    7.5550 O.2   115  GLN115     -0.2864
     87  CB        19.4450   92.7410    8.0930 C.3   115  GLN115      0.0394
     88  CG        19.0410   92.9500    9.5470 C.3   115  GLN115      0.0908
     89  CD        20.0950   93.6970   10.3510 C.2   115  GLN115      0.2608
     90  OE1       21.0070   94.3080    9.7890 O.2   115  GLN115     -0.2717
     91  NE2       19.9760   93.6510   11.6770 N.am  115  GLN115     -0.0878
     92  N         12.2760   85.9110   11.5300 N.3   120  ARG120     -0.1245
     93  CA        12.0890   84.9060   12.5830 C.3   120  ARG120      0.1563
     94  C         11.2430   83.7170   12.1090 C.2   120  ARG120      0.2260
     95  O         11.5160   82.5720   12.4740 O.2   120  ARG120     -0.2867
     96  CB        11.4390   85.5570   13.8100 C.3   120  ARG120      0.0307
     97  CG        11.5790   84.7620   15.0990 C.3   120  ARG120      0.0489
     98  CD        11.2390   85.5960   16.3330 C.3   120  ARG120      0.2205
     99  NE        12.0460   86.8150   16.4280 N.pl3 120  ARG120     -0.0865
    100  CZ        13.3380   86.8680   16.7620 C.cat 120  ARG120      0.5346
    101  NH1       14.0290   85.7670   17.0570 N.pl3 120  ARG120      0.1354
    102  NH2       13.9510   88.0470   16.8040 N.pl3 120  ARG120      0.1354
    103  N         33.2610   97.0930    6.5460 N.3   206  ARG206     -0.1245
    104  CA        32.1110   97.4460    7.3730 C.3   206  ARG206      0.1563
    105  C         32.2450   98.8720    7.9110 C.2   206  ARG206      0.2260
    106  O         33.3320   99.2840    8.3370 O.2   206  ARG206     -0.2867
    107  CB        31.9690   96.4760    8.5550 C.3   206  ARG206      0.0307
    108  CG        31.6110   95.0400    8.1850 C.3   206  ARG206      0.0489
    109  CD        30.1150   94.8380    7.9670 C.3   206  ARG206      0.2205
    110  NE        29.3180   95.0790    9.1760 N.pl3 206  ARG206     -0.0865
    111  CZ        29.0610   94.1940   10.1460 C.cat 206  ARG206      0.5346
    112  NH1       29.5280   92.9440   10.1120 N.pl3 206  ARG206      0.1354
    113  NH2       28.3180   94.5780   11.1800 N.pl3 206  ARG206      0.1354
    114  N         30.1740   91.0410   17.8080 N.3   216  GLU216     -0.1231
    115  CA        29.6920   90.1050   16.7900 C.3   216  GLU216      0.1699
    116  C         30.5360   88.8230   16.7660 C.2   216  GLU216      0.2592
    117  O         29.9940   87.7160   16.6820 O.2   216  GLU216     -0.2718
    118  CB        29.6800   90.7500   15.3920 C.3   216  GLU216      0.0402
    119  CG        28.5630   91.7630   15.1580 C.3   216  GLU216      0.1161
    120  CD        28.3890   92.1770   13.6930 C.2   216  GLU216      0.3649
    121  OE1       29.0850   91.6540   12.7960 O.co2 216  GLU216     -0.2457
    122  OE2       27.5330   93.0440   13.4200 O.co2 216  GLU216     -0.2457
    123  N         31.8560   88.9820   16.8560 N.am  217  HIS217     -0.1976
    124  CA        32.7870   87.8510   16.7790 C.3   217  HIS217      0.1656
    125  C         32.8680   86.9620   18.0210 C.2   217  HIS217      0.2291
    126  O         33.2990   85.8140   17.9090 O.2   217  HIS217     -0.2864
    127  CB        34.1880   88.3320   16.3870 C.3   217  HIS217      0.0771
    128  CG        34.2510   88.9310   15.0160 C.ar  217  HIS217      0.0820
    129  ND1       35.3090   89.7030   14.5850 N.ar  217  HIS217     -0.2267
    130  CD2       33.3700   88.8940   13.9900 C.ar  217  HIS217      0.1154
    131  CE1       35.0860   90.0980   13.3460 C.ar  217  HIS217      0.1986
    132  NE2       33.9150   89.6230   12.9610 N.ar  217  HIS217     -0.2212
    133  N         30.1070   86.1060   19.6770 N.3   219  ALA219     -0.1231
    134  CA        28.9730   85.2360   19.3560 C.3   219  ALA219      0.1694
    135  C         29.3300   84.1980   18.2940 C.2   219  ALA219      0.2591
    136  O         28.9460   83.0330   18.4250 O.2   219  ALA219     -0.2718
    137  CB        27.7810   86.0610   18.9030 C.3   219  ALA219      0.0304
    138  N         30.0600   84.6170   17.2540 N.am  220  LEU220     -0.1980
    139  CA        30.5430   83.6820   16.2190 C.3   220  LEU220      0.1596
    140  C         31.4740   82.6100   16.7840 C.2   220  LEU220      0.2287
    141  O         31.4240   81.4540   16.3630 O.2   220  LEU220     -0.2864
    142  CB        31.2520   84.4220   15.0720 C.3   220  LEU220      0.0297
    143  CG        30.3760   85.1840   14.0650 C.3   220  LEU220      0.0022
    144  CD1       31.2530   85.8150   12.9980 C.3   220  LEU220      0.0001
    145  CD2       29.3260   84.2880   13.4240 C.3   220  LEU220      0.0001
    146  N         29.6630   79.6520   18.3890 N.3   223  LEU223     -0.1245
    147  CA        29.1640   78.7180   17.3800 C.3   223  LEU223      0.1561
    148  C         30.2500   77.7840   16.8680 C.2   223  LEU223      0.2260
    149  O         30.0370   76.5740   16.7670 O.2   223  LEU223     -0.2867
    150  CB        28.5330   79.4700   16.2070 C.3   223  LEU223      0.0270
    151  CG        27.3420   80.3600   16.5500 C.3   223  LEU223      0.0019
    152  CD1       26.9700   81.2080   15.3440 C.3   223  LEU223      0.0001
    153  CD2       26.1590   79.5270   17.0390 C.3   223  LEU223      0.0001
@<TRIPOS>BOND
     1    71    72    1
     2    70    64    1
     3    70    69    1
     4    64    65    1
     5    72    75    1
     6    72    73    1
     7    66    65    1
     8    66    67    2
     9    75    76    1
    10    73    74    2
    11    73    83   am
    12    59    58    2
    13    58    57    1
    14    65    68    1
    15    69    68    1
    16    51    52    1
    17    83    84    1
    18    78    76   ar
    19    78    80   ar
    20   103   104    1
    21    76    77   ar
    22    85    84    1
    23    85    86    2
    24    54    53    2
    25    61    63    1
    26    61    60    1
    27    52    53    1
    28    52    55    1
    29    53    56   am
    30    57    56    1
    31    57    60    1
    32   104   105    1
    33   104   107    1
    34    84    87    1
    35    80    81   ar
    36   105   106    2
    37    60    62    1
    38   109   108    1
    39   109   110    1
    40    77    79   ar
    41    87    88    1
    42    43    42    2
    43    42    41    1
    44   108   107    1
    45    81    79   ar
    46    81    82    1
    47    40    41    1
    48   110   111    2
    49    41    44    1
    50    88    89    1
    51    90    89    2
    52   112   111    1
    53   111   113    1
    54    89    91   am
    55    44    45    1
    56    50    48    1
    57    23    22    1
    58    92    93    1
    59    47    48    2
    60    47    46    1
    61    48    49    1
    62    45    46    1
    63    24    22    1
    64    94    95    2
    65    94    93    1
    66    22    21    1
    67    93    96    1
    68   121   120   ar
    69    21    18    1
    70   132   131   ar
    71   132   130   ar
    72   144   143    1
    73   131   129   ar
    74   122   120   ar
    75   145   143    1
    76   120   119    1
    77    96    97    1
    78   130   128   ar
    79   143   142    1
    80    18    19    1
    81    18    17    1
    82    30    29    1
    83    20    19    2
    84   129   128   ar
    85    19    25   am
    86    25    26    1
    87   128   127    1
    88   142   139    1
    89    97    98    1
    90   119   118    1
    91    26    29    1
    92    26    27    1
    93    17    12   am
    94   152   151    1
    95   118   115    1
    96    29    31    1
    97   150   151    1
    98   150   147    1
    99   139   140    1
   100   139   138    1
   101    98    99    1
   102   141   140    2
   103   127   124    1
   104    99   100    2
   105    28    27    2
   106    27    32   am
   107   151   153    1
   108    12    13    2
   109    12    11    1
   110   117   116    2
   111   100   102    1
   112   100   101    1
   113   116   115    1
   114   116   123   am
   115   149   148    2
   116   124   123    1
   117   124   125    1
   118   115   114    1
   119   148   147    1
   120   138   135   am
   121   147   146    1
   122    32    33    1
   123    11    14    1
   124    11    10    1
   125    14    16    1
   126    14    15    1
   127   126   125    2
   128   135   136    2
   129   135   134    1
   130     4     3    2
   131    34    33    1
   132    34    35    2
   133    33    36    1
   134    10     3   am
   135   137   134    1
   136     3     2    1
   137   134   133    1
   138    36    37    1
   139    38    37    2
   140    37    39   am
   141     2     5    1
   142     2     1    1
   143     5     6    1
   144     8     7    2
   145     7     6    1
   146     7     9   am
