@<TRIPOS>MOLECULE
tmp/5a8eA05.pdb
 152 147 0 0 0
SMALL
GASTEIGER

@<TRIPOS>ATOM
      1  N         12.5680   61.8880    7.2840 N.3   136  LEU136     -0.1231
      2  CA        12.4760   61.0770    6.0510 C.3   136  LEU136      0.1693
      3  C         13.6580   60.1150    5.9450 C.2   136  LEU136      0.2591
      4  O         13.4660   58.8930    5.9800 O.2   136  LEU136     -0.2718
      5  CB        12.3950   61.9650    4.7870 C.3   136  LEU136      0.0284
      6  CG        12.6930   61.3440    3.4050 C.3   136  LEU136      0.0019
      7  CD1       11.5560   60.4300    2.9780 C.3   136  LEU136      0.0001
      8  CD2       12.9530   62.4100    2.3450 C.3   136  LEU136      0.0001
      9  N         14.8690   60.6740    5.8420 N.am  137  VAL137     -0.1980
     10  CA        16.0880   59.8640    5.6760 C.3   137  VAL137      0.1595
     11  C         16.3920   58.9460    6.8710 C.2   137  VAL137      0.2287
     12  O         17.0660   57.9330    6.6970 O.2   137  VAL137     -0.2864
     13  CB        17.3520   60.7100    5.3390 C.3   137  VAL137      0.0276
     14  CG1       17.1440   61.5180    4.0620 C.3   137  VAL137      0.0022
     15  CG2       17.7730   61.6220    6.4920 C.3   137  VAL137      0.0022
     16  N         12.4530   56.2930    7.2680 N.3   140  LEU140     -0.1231
     17  CA        12.0880   55.4570    6.1240 C.3   140  LEU140      0.1678
     18  C         12.9590   54.1950    6.0160 C.2   140  LEU140      0.2434
     19  O         12.4070   53.0860    6.0210 O.2   140  LEU140     -0.2733
     20  CB        12.0760   56.2620    4.8110 C.3   140  LEU140      0.0284
     21  CG        11.8480   55.5170    3.4960 C.3   140  LEU140      0.0019
     22  CD1       10.4710   54.8750    3.4890 C.3   140  LEU140      0.0001
     23  CD2       12.0020   56.4790    2.3290 C.3   140  LEU140      0.0001
     24  N         14.3120   54.3480    5.9480 N.am  141  PRO141     -0.2729
     25  CA        15.1490   53.1460    5.8030 C.3   141  PRO141      0.1401
     26  C         15.0410   52.1430    6.9590 C.2   141  PRO141      0.2269
     27  O         15.1590   50.9420    6.7270 O.2   141  PRO141     -0.2865
     28  CB        16.5710   53.7170    5.7090 C.3   141  PRO141      0.0296
     29  CG        16.3820   55.1130    5.2370 C.3   141  PRO141      0.0237
     30  CD        15.1490   55.5630    5.9550 C.3   141  PRO141      0.0939
     31  N         15.8890   48.3330    5.1480 N.3   146  TRP146     -0.1241
     32  CA        16.9940   48.5020    4.1940 C.3   146  TRP146      0.1605
     33  C         18.3770   48.3130    4.8350 C.2   146  TRP146      0.2264
     34  O         19.3600   48.0390    4.1560 O.2   146  TRP146     -0.2867
     35  CB        16.9270   49.9000    3.5620 C.3   146  TRP146      0.0550
     36  CG        15.7670   50.1310    2.6210 C.ar  146  TRP146      0.0003
     37  CD1       14.9080   49.1930    2.1100 C.ar  146  TRP146      0.0946
     38  CD2       15.3710   51.3830    2.0540 C.ar  146  TRP146      0.0152
     39  NE1       13.9960   49.7900    1.2770 N.ar  146  TRP146     -0.2442
     40  CE2       14.2590   51.1320    1.2190 C.ar  146  TRP146      0.0810
     41  CE3       15.8500   52.6920    2.1660 C.ar  146  TRP146      0.0012
     42  CZ2       13.6100   52.1490    0.5030 C.ar  146  TRP146      0.0191
     43  CZ3       15.2050   53.7060    1.4530 C.ar  146  TRP146      0.0001
     44  CH2       14.0940   53.4250    0.6340 C.ar  146  TRP146      0.0015
     45  N         19.1900   45.9380    7.1530 N.3   148  ARG148     -0.1231
     46  CA        19.4880   44.5920    7.6490 C.3   148  ARG148      0.1694
     47  C         20.6060   43.8760    6.8780 C.2   148  ARG148      0.2592
     48  O         20.7650   44.0560    5.6680 O.2   148  ARG148     -0.2718
     49  CB        18.2210   43.7290    7.6980 C.3   148  ARG148      0.0321
     50  CG        17.1680   44.2980    8.6410 C.3   148  ARG148      0.0489
     51  CD        16.1540   43.2780    9.1340 C.3   148  ARG148      0.2205
     52  NE        15.3900   43.8370   10.2500 N.pl3 148  ARG148     -0.0865
     53  CZ        14.5490   43.1600   11.0350 C.cat 148  ARG148      0.5346
     54  NH1       14.3140   41.8640   10.8420 N.pl3 148  ARG148      0.1354
     55  NH2       13.9270   43.7990   12.0280 N.pl3 148  ARG148      0.1354
     56  N         21.3880   43.1000    7.6260 N.am  149  ASP149     -0.1960
     57  CA        22.4850   42.2910    7.1170 C.3   149  ASP149      0.1840
     58  C         21.9830   40.8490    7.0590 C.2   149  ASP149      0.2621
     59  O         21.0000   40.5150    7.7090 O.2   149  ASP149     -0.2715
     60  CB        23.6880   42.4210    8.0610 C.3   149  ASP149      0.1450
     61  CG        24.9720   41.8740    7.4660 C.2   149  ASP149      0.3671
     62  OD1       25.3860   42.3910    6.4060 O.co2 149  ASP149     -0.2456
     63  OD2       25.5650   40.9400    8.0620 O.co2 149  ASP149     -0.2456
     64  N         22.6480   40.0050    6.2750 N.am  150  GLU150     -0.1977
     65  CA        22.1860   38.6320    6.0010 C.3   150  GLU150      0.1602
     66  C         22.9680   37.5720    6.8160 C.2   150  GLU150      0.2287
     67  O         22.6620   36.3800    6.7430 O.2   150  GLU150     -0.2864
     68  CB        22.3170   38.3590    4.4860 C.3   150  GLU150      0.0415
     69  CG        21.1620   37.6590    3.7470 C.3   150  GLU150      0.1163
     70  CD        20.4380   36.5530    4.5110 C.2   150  GLU150      0.3649
     71  OE1       19.4610   36.8630    5.2300 O.co2 150  GLU150     -0.2457
     72  OE2       20.7980   35.3640    4.3460 O.co2 150  GLU150     -0.2457
     73  N         24.2840   46.2990   10.6990 N.3   168  THR168     -0.1203
     74  CA        23.8400   46.8060    9.4110 C.3   168  THR168      0.1994
     75  C         24.6920   46.2420    8.2950 C.2   168  THR168      0.2618
     76  O         25.8430   45.8720    8.5130 O.2   168  THR168     -0.2717
     77  CB        23.8860   48.3510    9.3580 C.3   168  THR168      0.1784
     78  OG1       25.2420   48.8080    9.4540 O.3   168  THR168     -0.2211
     79  CG2       23.0830   48.9530   10.4990 C.3   168  THR168      0.0376
     80  N         24.1060   46.1670    7.1060 N.am  169  ASN169     -0.1960
     81  CA        24.8670   45.9150    5.8870 C.3   169  ASN169      0.1819
     82  C         25.6980   47.1560    5.5210 C.2   169  ASN169      0.2621
     83  O         25.3490   48.2830    5.8720 O.2   169  ASN169     -0.2715
     84  CB        23.9360   45.4770    4.7410 C.3   169  ASN169      0.1195
     85  CG        22.9800   46.5710    4.2960 C.2   169  ASN169      0.2630
     86  OD1       23.4070   47.5920    3.7640 O.2   169  ASN169     -0.2716
     87  ND2       21.6810   46.3540    4.4810 N.am  169  ASN169     -0.0877
     88  N         26.8250   46.9160    4.8640 N.am  170  ARG170     -0.1963
     89  CA        27.7530   47.9450    4.3870 C.3   170  ARG170      0.1729
     90  C         27.1420   49.0200    3.4870 C.2   170  ARG170      0.2616
     91  O         27.5250   50.1860    3.5820 O.2   170  ARG170     -0.2715
     92  CB        28.9250   47.2940    3.6440 C.3   170  ARG170      0.0348
     93  CG        29.8130   46.3920    4.4880 C.3   170  ARG170      0.0492
     94  CD        30.7750   45.6100    3.6060 C.3   170  ARG170      0.2205
     95  NE        31.4810   44.5440    4.3250 N.pl3 170  ARG170     -0.0865
     96  CZ        32.5550   43.8880    3.8680 C.cat 170  ARG170      0.5346
     97  NH1       33.0870   44.1690    2.6710 N.pl3 170  ARG170      0.1354
     98  NH2       33.1150   42.9410    4.6210 N.pl3 170  ARG170      0.1354
     99  N         26.2200   48.6340    2.6080 N.am  171  ALA171     -0.1963
    100  CA        25.5640   49.5980    1.7100 C.3   171  ALA171      0.1728
    101  C         24.8200   50.6770    2.4900 C.2   171  ALA171      0.2616
    102  O         25.0010   51.8720    2.2400 O.2   171  ALA171     -0.2715
    103  CB        24.6100   48.8960    0.7530 C.3   171  ALA171      0.0334
    104  N         23.9940   50.2400    3.4400 N.am  172  TYR172     -0.1974
    105  CA        23.2650   51.1610    4.3110 C.3   172  TYR172      0.1639
    106  C         24.2060   52.0040    5.1820 C.2   172  TYR172      0.2290
    107  O         24.0260   53.2220    5.2940 O.2   172  TYR172     -0.2864
    108  CB        22.2650   50.4240    5.2070 C.3   172  TYR172      0.0560
    109  CG        21.7150   51.3240    6.2820 C.ar  172  TYR172     -0.0198
    110  CD1       20.6820   52.2120    6.0110 C.ar  172  TYR172     -0.0009
    111  CD2       22.2670   51.3300    7.5610 C.ar  172  TYR172     -0.0009
    112  CE1       20.1930   53.0650    6.9910 C.ar  172  TYR172      0.0417
    113  CE2       21.7880   52.1760    8.5470 C.ar  172  TYR172      0.0417
    114  CZ        20.7540   53.0450    8.2610 C.ar  172  TYR172      0.1957
    115  OH        20.2810   53.8870    9.2450 O.3   172  TYR172     -0.2866
    116  N         26.1780   54.6130    2.9660 N.3   175  ALA175     -0.1231
    117  CA        25.2440   55.5830    2.3900 C.3   175  ALA175      0.1694
    118  C         24.5720   56.4680    3.4340 C.2   175  ALA175      0.2592
    119  O         24.5100   57.6790    3.2590 O.2   175  ALA175     -0.2718
    120  CB        24.1950   54.8770    1.5480 C.3   175  ALA175      0.0304
    121  N         24.0810   55.8770    4.5200 N.am  176  SER176     -0.1952
    122  CA        23.4350   56.6620    5.5860 C.3   176  SER176      0.1924
    123  C         24.4180   57.6260    6.2590 C.2   176  SER176      0.2314
    124  O         24.0910   58.7900    6.4820 O.2   176  SER176     -0.2863
    125  CB        22.8150   55.7470    6.6360 C.3   176  SER176      0.2116
    126  OG        23.8150   55.0270    7.3280 O.3   176  SER176     -0.2180
    127  N         25.1310   60.7000    3.8110 N.3   179  ILE179     -0.1245
    128  CA        23.9930   61.6200    3.7310 C.3   179  ILE179      0.1561
    129  C         23.7160   62.3220    5.0600 C.2   179  ILE179      0.2260
    130  O         23.3940   63.5080    5.0750 O.2   179  ILE179     -0.2867
    131  CB        22.7120   60.8750    3.2490 C.3   179  ILE179      0.0252
    132  CG1       22.8320   60.5550    1.7590 C.3   179  ILE179      0.0019
    133  CG2       21.4370   61.6870    3.5080 C.3   179  ILE179      0.0019
    134  CD1       21.6940   59.7100    1.2130 C.3   179  ILE179      0.0001
    135  N         31.7670   47.7940   10.0630 N.3   245  VAL245     -0.1245
    136  CA        30.9900   47.0770    9.0300 C.3   245  VAL245      0.1561
    137  C         31.8610   46.2690    8.0630 C.2   245  VAL245      0.2260
    138  O         31.3860   45.2870    7.5020 O.2   245  VAL245     -0.2867
    139  CB        30.0020   47.9720    8.2270 C.3   245  VAL245      0.0252
    140  CG1       28.9460   48.5450    9.1560 C.3   245  VAL245      0.0019
    141  CG2       30.7080   49.0690    7.4270 C.3   245  VAL245      0.0019
    142  N         34.2790   43.1800   11.8210 N.3   248  ARG248     -0.1245
    143  CA        33.7470   43.3240   13.1780 C.3   248  ARG248      0.1563
    144  C         34.8120   43.1180   14.2700 C.2   248  ARG248      0.2260
    145  O         34.6830   43.6700   15.3640 O.2   248  ARG248     -0.2867
    146  CB        32.5110   42.4320   13.3790 C.3   248  ARG248      0.0307
    147  CG        31.3640   42.8520   12.4590 C.3   248  ARG248      0.0489
    148  CD        30.0870   42.0310   12.5920 C.3   248  ARG248      0.2205
    149  NE        29.1110   42.4080   11.5530 N.pl3 248  ARG248     -0.0865
    150  CZ        28.0320   41.7010   11.1960 C.cat 248  ARG248      0.5346
    151  NH1       27.7300   40.5400   11.7800 N.pl3 248  ARG248      0.1354
    152  NH2       27.2370   42.1650   10.2360 N.pl3 248  ARG248      0.1354
@<TRIPOS>BOND
     1    42    44   ar
     2    42    40   ar
     3    44    43   ar
     4   103   100    1
     5   134   132    1
     6    40    39   ar
     7    40    38   ar
     8    39    37   ar
     9    43    41   ar
    10   120   117    1
    11   100   101    1
    12   100    99    1
    13   132   131    1
    14    38    41   ar
    15    38    36   ar
    16    37    36   ar
    17   102   101    2
    18    23    21    1
    19     8     6    1
    20   117   116    1
    21   117   118    1
    22   101   104   am
    23    99    90   am
    24    36    35    1
    25    97    96    1
    26     7     6    1
    27   131   133    1
    28   131   128    1
    29   119   118    2
    30     6     5    1
    31   118   121   am
    32   104   105    1
    33    90    91    2
    34    90    89    1
    35    22    21    1
    36    21    20    1
    37    35    32    1
    38    94    95    1
    39    94    93    1
    40    92    89    1
    41    92    93    1
    42   128   127    1
    43   128   129    1
    44    69    68    1
    45    69    70    1
    46    86    85    2
    47    96    95    2
    48    96    98    1
    49    14    13    1
    50    34    33    2
    51    32    33    1
    52    32    31    1
    53    85    87   am
    54    85    84    1
    55   105   106    1
    56   105   108    1
    57    72    70   ar
    58    89    88    1
    59    68    65    1
    60    70    71   ar
    61   121   122    1
    62    84    81    1
    63     5     2    1
    64    20    17    1
    65    88    82   am
    66   129   130    2
    67   106   107    2
    68   108   109    1
    69    29    28    1
    70    29    30    1
    71    13    10    1
    72    13    15    1
    73    82    83    2
    74    82    81    1
    75   122   123    1
    76   122   125    1
    77    48    47    2
    78    10     9    1
    79    10    11    1
    80    28    25    1
    81    25    24    1
    82    25    26    1
    83     9     3   am
    84    81    80    1
    85     3     4    2
    86     3     2    1
    87    24    30    1
    88    24    18   am
    89    65    64    1
    90    65    66    1
    91   110   109   ar
    92   110   112   ar
    93    18    19    2
    94    18    17    1
    95     2     1    1
    96    17    16    1
    97   123   124    2
    98    64    58   am
    99   109   111   ar
   100    62    61   ar
   101   125   126    1
   102    12    11    2
   103    27    26    2
   104    67    66    2
   105    47    56   am
   106    47    46    1
   107   112   114   ar
   108    58    57    1
   109    58    59    2
   110    80    75   am
   111    57    56    1
   112    57    60    1
   113    45    46    1
   114   141   139    1
   115    61    60    1
   116    61    63   ar
   117   138   137    2
   118   111   113   ar
   119    46    49    1
   120    49    50    1
   121   137   136    1
   122   139   136    1
   123   139   140    1
   124   114   113   ar
   125   114   115    1
   126    75    76    2
   127    75    74    1
   128    50    51    1
   129   136   135    1
   130    51    52    1
   131    77    74    1
   132    77    78    1
   133    77    79    1
   134    74    73    1
   135   152   150    1
   136    52    53    2
   137    54    53    1
   138    53    55    1
   139   150   149    2
   140   150   151    1
   141   149   148    1
   142   142   143    1
   143   147   148    1
   144   147   146    1
   145   143   146    1
   146   143   144    1
   147   144   145    2
