@<TRIPOS>MOLECULE
tmp/5a8hR01.pdb
 73 68 0 0 0
SMALL
GASTEIGER

@<TRIPOS>ATOM
      1  N        166.3030  151.1490  215.1750 N.3    21  SER21      -0.1202
      2  CA       165.3180  150.1310  214.8910 C.3    21  SER21       0.2020
      3  C        164.0760  150.7250  214.2340 C.2    21  SER21       0.2619
      4  O        163.7970  151.9190  214.3760 O.2    21  SER21      -0.2717
      5  CB       164.9510  149.4050  216.1920 C.3    21  SER21       0.2103
      6  OG       163.8950  148.4870  215.9970 O.3    21  SER21      -0.2182
      7  N        163.3260  149.8920  213.5210 N.am   22  CYS22      -0.1955
      8  CA       162.0980  150.3500  212.8690 C.3    22  CYS22       0.1843
      9  C        161.0340  149.2390  212.8720 C.2    22  CYS22       0.2625
     10  O        161.2120  148.1980  212.2410 O.2    22  CYS22      -0.2714
     11  CB       162.3890  150.8200  211.4440 C.3    22  CYS22       0.0997
     12  SG       160.8850  151.3630  210.5220 S.3    22  CYS22      -0.0797
     13  N        159.9500  149.4700  213.6120 N.am   23  LYS23      -0.1977
     14  CA       158.8280  148.5330  213.7090 C.3    23  LYS23       0.1596
     15  C        157.7790  148.8920  212.6720 C.2    23  LYS23       0.2287
     16  O        157.1930  149.9650  212.7290 O.2    23  LYS23      -0.2864
     17  CB       158.2160  148.5590  215.1190 C.3    23  LYS23       0.0298
     18  CG       158.9510  147.7010  216.1430 C.3    23  LYS23       0.0038
     19  CD       159.0960  148.3860  217.5010 C.3    23  LYS23       0.0206
     20  CE       160.0910  149.5720  217.4600 C.3    23  LYS23       0.1093
     21  NZ       160.3570  150.2160  218.8090 N.3    23  LYS23      -0.1314
     22  N        169.5240  145.0530  208.2730 N.3    70  SER70      -0.1202
     23  CA       168.8710  143.7640  208.4340 C.3    70  SER70       0.2020
     24  C        167.3710  143.9370  208.5900 C.2    70  SER70       0.2619
     25  O        166.8950  145.0330  208.8530 O.2    70  SER70      -0.2717
     26  CB       169.4410  143.0290  209.6450 C.3    70  SER70       0.2103
     27  OG       169.3240  143.8520  210.7920 O.3    70  SER70      -0.2182
     28  N        166.6390  142.8420  208.4280 N.am   71  ALA71      -0.1965
     29  CA       165.1850  142.8370  208.5430 C.3    71  ALA71       0.1728
     30  C        164.7290  141.4360  208.9040 C.2    71  ALA71       0.2616
     31  O        165.3340  140.4510  208.4690 O.2    71  ALA71      -0.2715
     32  CB       164.5350  143.2990  207.2380 C.3    71  ALA71       0.0334
     33  N        163.6820  141.3530  209.7220 N.am   72  VAL72      -0.1977
     34  CA       163.1110  140.0750  210.1530 C.3    72  VAL72       0.1596
     35  C        161.5740  140.1650  210.2460 C.2    72  VAL72       0.2287
     36  O        161.0390  141.1600  210.7430 O.2    72  VAL72      -0.2864
     37  CB       163.6630  139.6420  211.5380 C.3    72  VAL72       0.0276
     38  CG1      162.9830  138.3730  211.9930 C.3    72  VAL72       0.0022
     39  CG2      165.1540  139.4240  211.4750 C.3    72  VAL72       0.0022
     40  N        158.0520  139.1900  211.8680 N.3    74  LEU74      -0.1245
     41  CA       157.5730  138.8250  213.1860 C.3    74  LEU74       0.1561
     42  C        156.0780  138.9840  213.2340 C.2    74  LEU74       0.2260
     43  O        155.5060  139.6510  212.3970 O.2    74  LEU74      -0.2867
     44  CB       158.2190  139.6750  214.2610 C.3    74  LEU74       0.0270
     45  CG       159.7420  139.6840  214.3360 C.3    74  LEU74       0.0019
     46  CD1      160.2350  140.7940  215.2250 C.3    74  LEU74       0.0001
     47  CD2      160.2690  138.3640  214.8200 C.3    74  LEU74       0.0001
     48  N        155.1070  141.4620  218.1680 N.3    78  SER78      -0.1217
     49  CA       155.7040  142.5480  217.3900 C.3    78  SER78       0.1889
     50  C        155.3790  142.4480  215.8980 C.2    78  SER78       0.2288
     51  O        155.1860  141.3470  215.3670 O.2    78  SER78      -0.2866
     52  CB       157.2250  142.5710  217.5820 C.3    78  SER78       0.2089
     53  OG       157.8280  143.6360  216.8490 O.3    78  SER78      -0.2183
     54  N        160.3520  143.9560  211.7980 N.3    81  ILE81      -0.1231
     55  CA       161.3270  144.9580  212.1900 C.3    81  ILE81       0.1692
     56  C        162.5330  145.0170  211.2520 C.2    81  ILE81       0.2593
     57  O        163.0790  143.9800  210.8570 O.2    81  ILE81      -0.2718
     58  CB       161.8530  144.6750  213.6280 C.3    81  ILE81       0.0266
     59  CG1      160.7380  144.8480  214.6550 C.3    81  ILE81       0.0019
     60  CG2      163.0330  145.5730  213.9730 C.3    81  ILE81       0.0020
     61  CD1      161.2170  144.7310  216.1100 C.3    81  ILE81       0.0001
     62  N        162.9630  146.2330  210.9190 N.am   82  SER82      -0.1938
     63  CA       164.2570  146.4270  210.2690 C.3    82  SER82       0.2055
     64  C        165.1850  147.2370  211.1700 C.2    82  SER82       0.2643
     65  O        164.7270  148.0970  211.9240 O.2    82  SER82      -0.2714
     66  CB       164.0970  147.1300  208.9250 C.3    82  SER82       0.2130
     67  OG       165.3710  147.4400  208.3650 O.3    82  SER82      -0.2179
     68  N        166.4870  146.9760  211.0960 N.am   83  SER83      -0.1949
     69  CA       167.4310  147.7980  211.8460 C.3    83  SER83       0.1924
     70  C        168.6480  148.2360  211.0150 C.2    83  SER83       0.2314
     71  O        168.9890  147.6290  209.9970 O.2    83  SER83      -0.2863
     72  CB       167.8820  147.0580  213.1100 C.3    83  SER83       0.2116
     73  OG       166.8040  146.8670  213.9970 O.3    83  SER83      -0.2180
@<TRIPOS>BOND
     1    32    29    1
     2    22    23    1
     3    67    66    1
     4    28    29    1
     5    28    24   am
     6    23    24    1
     7    23    26    1
     8    31    30    2
     9    29    30    1
    10    24    25    2
    11    30    33   am
    12    66    63    1
    13    26    27    1
    14    33    34    1
    15    71    70    2
    16    34    35    1
    17    34    37    1
    18    35    36    2
    19    63    62    1
    20    63    64    1
    21    12    11    1
    22    57    56    2
    23    62    56   am
    24    70    69    1
    25    68    64   am
    26    68    69    1
    27    64    65    2
    28    56    55    1
    29    11     8    1
    30    39    37    1
    31    37    38    1
    32    54    55    1
    33    69    72    1
    34    40    41    1
    35    55    58    1
    36    10     9    2
    37    43    42    2
    38    15    16    2
    39    15    14    1
    40     8     9    1
    41     8     7    1
    42     9    13   am
    43    72    73    1
    44    41    42    1
    45    41    44    1
    46     7     3   am
    47    13    14    1
    48    58    60    1
    49    58    59    1
    50    14    17    1
    51     3     4    2
    52     3     2    1
    53    44    45    1
    54    45    47    1
    55    45    46    1
    56    59    61    1
    57     2     1    1
    58     2     5    1
    59    17    18    1
    60    51    50    2
    61    50    49    1
    62     6     5    1
    63    18    19    1
    64    53    52    1
    65    49    52    1
    66    49    48    1
    67    20    19    1
    68    20    21    1
