@<TRIPOS>MOLECULE
tmp/5a8hF00.pdb
 119 117 0 0 0
SMALL
GASTEIGER

@<TRIPOS>ATOM
      1  N         99.6090  159.2590  150.1490 N.3    27  VAL27      -0.1231
      2  CA       100.4870  159.7450  151.2000 C.3    27  VAL27       0.1692
      3  C         99.7730  159.7620  152.5400 C.2    27  VAL27       0.2592
      4  O         98.7880  160.4800  152.7330 O.2    27  VAL27      -0.2718
      5  CB       101.0390  161.1570  150.9120 C.3    27  VAL27       0.0266
      6  CG1      101.7640  161.7060  152.1610 C.3    27  VAL27       0.0020
      7  CG2      101.9880  161.1250  149.7210 C.3    27  VAL27       0.0020
      8  N        100.3000  158.9500  153.4520 N.am   28  ASN28      -0.1960
      9  CA        99.8780  158.8560  154.8440 C.3    28  ASN28       0.1819
     10  C         99.7910  160.1220  155.6550 C.2    28  ASN28       0.2622
     11  O         98.7550  160.4710  156.2260 O.2    28  ASN28      -0.2715
     12  CB       100.8700  157.9700  155.6020 C.3    28  ASN28       0.1195
     13  CG       100.3390  156.6140  155.8470 C.2    28  ASN28       0.2630
     14  OD1       99.5100  156.1260  155.0790 O.2    28  ASN28      -0.2716
     15  ND2      100.7950  155.9750  156.9280 N.am   28  ASN28      -0.0877
     16  N        100.9400  160.7640  155.7650 N.am   29  THR29      -0.1937
     17  CA       101.0910  161.9360  156.5990 C.3    29  THR29       0.2028
     18  C        102.3530  162.6280  156.1640 C.2    29  THR29       0.2642
     19  O        103.3380  161.9620  155.8130 O.2    29  THR29      -0.2714
     20  CB       101.1460  161.5950  158.1000 C.3    29  THR29       0.1808
     21  OG1      101.5620  162.7500  158.8330 O.3    29  THR29      -0.2208
     22  CG2      102.1360  160.4230  158.3750 C.3    29  THR29       0.0379
     23  N        102.3310  163.9610  156.1610 N.am   30  PHE30      -0.1959
     24  CA       103.5130  164.7260  155.7950 C.3    30  PHE30       0.1771
     25  C        104.5550  164.6600  156.9230 C.2    30  PHE30       0.2620
     26  O        105.6280  165.2450  156.8220 O.2    30  PHE30      -0.2715
     27  CB       103.1480  166.1810  155.4530 C.3    30  PHE30       0.0574
     28  CG       102.3790  166.3220  154.1720 C.ar   30  PHE30      -0.0200
     29  CD1      102.8870  165.8190  152.9860 C.ar   30  PHE30      -0.0042
     30  CD2      101.1540  166.9650  154.1490 C.ar   30  PHE30      -0.0042
     31  CE1      102.1830  165.9450  151.7980 C.ar   30  PHE30      -0.0003
     32  CE2      100.4450  167.0970  152.9680 C.ar   30  PHE30      -0.0003
     33  CZ       100.9600  166.5810  151.7860 C.ar   30  PHE30      -0.0000
     34  N        104.2450  163.9160  157.9830 N.am   31  GLY31      -0.1954
     35  CA       105.2250  163.6260  159.0090 C.3    31  GLY31       0.1869
     36  C        106.2610  162.6320  158.4950 C.2    31  GLY31       0.2309
     37  O        107.3350  162.5060  159.0790 O.2    31  GLY31      -0.2863
     38  N        106.7420  162.1060  154.7760 N.3    33  TYR33      -0.1241
     39  CA       107.0500  162.4990  153.4040 C.3    33  TYR33       0.1605
     40  C        107.3700  163.9870  153.3500 C.2    33  TYR33       0.2264
     41  O        106.6380  164.7870  153.9270 O.2    33  TYR33      -0.2867
     42  CB       105.8590  162.2300  152.4790 C.3    33  TYR33       0.0534
     43  CG       105.5630  160.7810  152.2270 C.ar   33  TYR33      -0.0201
     44  CD1      104.8070  160.0410  153.1250 C.ar   33  TYR33      -0.0009
     45  CD2      106.0300  160.1520  151.0840 C.ar   33  TYR33      -0.0009
     46  CE1      104.5320  158.7150  152.8890 C.ar   33  TYR33       0.0417
     47  CE2      105.7620  158.8340  150.8420 C.ar   33  TYR33       0.0417
     48  CZ       105.0180  158.1170  151.7450 C.ar   33  TYR33       0.1957
     49  OH       104.7480  156.7920  151.4990 O.3    33  TYR33      -0.2866
     50  N        107.5840  167.5150  151.1510 N.3    35  VAL35      -0.1245
     51  CA       107.0870  168.1310  149.9200 C.3    35  VAL35       0.1561
     52  C        108.1250  169.0860  149.3860 C.2    35  VAL35       0.2260
     53  O        108.5920  169.9560  150.1070 O.2    35  VAL35      -0.2867
     54  CB       105.7720  168.9110  150.1460 C.3    35  VAL35       0.0252
     55  CG1      105.3060  169.5400  148.8600 C.3    35  VAL35       0.0019
     56  CG2      104.7030  168.0070  150.7030 C.3    35  VAL35       0.0019
     57  N        108.5980  171.6710  152.4560 N.3    52  ILE52      -0.1245
     58  CA       108.1480  171.4830  153.8210 C.3    52  ILE52       0.1561
     59  C        108.5850  170.0760  154.2170 C.2    52  ILE52       0.2260
     60  O        108.3380  169.0960  153.5150 O.2    52  ILE52      -0.2867
     61  CB       106.6170  171.7350  153.9830 C.3    52  ILE52       0.0252
     62  CG1      106.1980  171.6380  155.4470 C.3    52  ILE52       0.0019
     63  CG2      105.7980  170.7990  153.1330 C.3    52  ILE52       0.0019
     64  CD1      104.8950  172.3580  155.7450 C.3    52  ILE52       0.0001
     65  N        109.2800  167.6270  157.7400 N.3    54  ARG54      -0.1231
     66  CA       109.0390  167.4830  159.1710 C.3    54  ARG54       0.1694
     67  C        108.2410  168.6430  159.7210 C.2    54  ARG54       0.2592
     68  O        108.5200  169.1560  160.7790 O.2    54  ARG54      -0.2718
     69  CB       110.3440  167.3490  159.9250 C.3    54  ARG54       0.0321
     70  CG       111.1340  166.1320  159.4440 C.3    54  ARG54       0.0489
     71  CD       112.3970  166.0370  160.2180 C.3    54  ARG54       0.2205
     72  NE       113.3080  165.0740  159.6170 N.pl3  54  ARG54      -0.0865
     73  CZ       114.0630  164.2220  160.3030 C.cat  54  ARG54       0.5346
     74  NH1      114.0140  164.1960  161.6390 N.pl3  54  ARG54       0.1354
     75  NH2      114.9020  163.4230  159.6390 N.pl3  54  ARG54       0.1354
     76  N        107.2840  169.0850  158.9320 N.am   55  TRP55      -0.1976
     77  CA       106.3990  170.1630  159.3060 C.3    55  TRP55       0.1640
     78  C        107.1420  171.4930  159.3610 C.2    55  TRP55       0.2290
     79  O        106.6460  172.4430  159.8880 O.2    55  TRP55      -0.2864
     80  CB       105.7100  169.8700  160.6400 C.3    55  TRP55       0.0576
     81  CG       104.9290  168.6180  160.6000 C.ar   55  TRP55       0.0006
     82  CD1      105.2030  167.4780  161.2490 C.ar   55  TRP55       0.0946
     83  CD2      103.7680  168.3600  159.8190 C.ar   55  TRP55       0.0152
     84  NE1      104.2900  166.5270  160.9390 N.ar   55  TRP55      -0.2442
     85  CE2      103.3910  167.0460  160.0620 C.ar   55  TRP55       0.0810
     86  CE3      103.0140  169.1170  158.9330 C.ar   55  TRP55       0.0012
     87  CZ2      102.2970  166.4690  159.4630 C.ar   55  TRP55       0.0191
     88  CZ3      101.9330  168.5530  158.3570 C.ar   55  TRP55       0.0001
     89  CH2      101.5760  167.2400  158.6220 C.ar   55  TRP55       0.0015
     90  N         98.9970  170.1830  155.3980 N.3    72  VAL72      -0.1231
     91  CA        98.0810  169.7240  156.4440 C.3    72  VAL72       0.1692
     92  C         97.6550  168.2620  156.1980 C.2    72  VAL72       0.2592
     93  O         97.3650  167.8830  155.0590 O.2    72  VAL72      -0.2718
     94  CB        96.8040  170.6040  156.5090 C.3    72  VAL72       0.0266
     95  CG1       95.8420  170.0470  157.5310 C.3    72  VAL72       0.0020
     96  CG2       97.1530  172.0270  156.8650 C.3    72  VAL72       0.0020
     97  N         97.6380  167.4600  157.2460 N.am   73  ASP73      -0.1960
     98  CA        97.1370  166.0990  157.1810 C.3    73  ASP73       0.1840
     99  C         95.6100  166.0510  157.2230 C.2    73  ASP73       0.2621
    100  O         94.9920  166.7170  158.0120 O.2    73  ASP73      -0.2715
    101  CB        97.7010  165.2660  158.3110 C.3    73  ASP73       0.1450
    102  CG        99.1130  164.8170  158.0640 C.2    73  ASP73       0.3671
    103  OD1       99.6630  165.0910  156.9970 O.co2  73  ASP73      -0.2456
    104  OD2       99.6730  164.1910  158.9490 O.co2  73  ASP73      -0.2456
    105  N         95.0240  165.2560  156.3570 N.am   74  LEU74      -0.1977
    106  CA        93.5830  165.1230  156.2870 C.3    74  LEU74       0.1596
    107  C         93.2280  163.6910  155.9910 C.2    74  LEU74       0.2287
    108  O         94.0640  162.9340  155.5430 O.2    74  LEU74      -0.2864
    109  CB        92.9970  166.0310  155.2240 C.3    74  LEU74       0.0297
    110  CG        93.2940  167.5230  155.3280 C.3    74  LEU74       0.0022
    111  CD1       92.9220  168.2400  154.0570 C.3    74  LEU74       0.0001
    112  CD2       92.5780  168.1400  156.4950 C.3    74  LEU74       0.0001
    113  N         95.8900  164.1390  152.4250 N.3    80  PRO80      -0.2116
    114  CA        96.7610  165.2520  152.8330 C.3    80  PRO80       0.1372
    115  C         97.0480  166.2360  151.6970 C.2    80  PRO80       0.2244
    116  O         97.2600  165.8300  150.5580 O.2    80  PRO80      -0.2868
    117  CB        98.0410  164.5390  153.2750 C.3    80  PRO80       0.0268
    118  CG        97.5270  163.2310  153.8350 C.3    80  PRO80       0.0207
    119  CD        96.4070  162.8390  152.8920 C.3    80  PRO80       0.0892
@<TRIPOS>BOND
     1    55    54    1
     2    52    51    1
     3    52    53    2
     4     7     5    1
     5    51    54    1
     6    51    50    1
     7    54    56    1
     8     1     2    1
     9   116   115    2
    10    47    45   ar
    11    47    48   ar
    12     5     2    1
    13     5     6    1
    14    45    43   ar
    15     2     3    1
    16    49    48    1
    17   115   114    1
    18    48    46   ar
    19    33    31   ar
    20    33    32   ar
    21    31    29   ar
    22    43    42    1
    23    43    44   ar
    24   113   114    1
    25   113   119    1
    26    57    58    1
    27    42    39    1
    28     3     4    2
    29     3     8   am
    30   114   117    1
    31    46    44   ar
    32   119   118    1
    33    32    30   ar
    34    29    28   ar
    35    63    61    1
    36   117   118    1
    37    40    39    1
    38    40    41    2
    39    39    38    1
    40     8     9    1
    41    60    59    2
    42    58    61    1
    43    58    59    1
    44    61    62    1
    45   111   110    1
    46    30    28   ar
    47    28    27    1
    48     9    12    1
    49     9    10    1
    50    93    92    2
    51    14    13    2
    52   109   110    1
    53   109   106    1
    54   110   112    1
    55    90    91    1
    56    62    64    1
    57    27    24    1
    58   108   107    2
    59    12    13    1
    60    10    16   am
    61    10    11    2
    62    16    17    1
    63    24    23    1
    64    24    25    1
    65    19    18    2
    66    13    15   am
    67   107   106    1
    68    23    18   am
    69    18    17    1
    70    92    91    1
    71    92    97   am
    72   106   105    1
    73   105    99   am
    74    91    94    1
    75    94    96    1
    76    94    95    1
    77    17    20    1
    78    26    25    2
    79    25    34   am
    80   103   102   ar
    81    98    99    1
    82    98    97    1
    83    98   101    1
    84    99   100    2
    85    65    66    1
    86    34    35    1
    87   102   101    1
    88   102   104   ar
    89    20    22    1
    90    20    21    1
    91    88    89   ar
    92    88    86   ar
    93    36    35    1
    94    36    37    2
    95    89    87   ar
    96    76    77    1
    97    76    67   am
    98    86    83   ar
    99    66    67    1
   100    66    69    1
   101    77    78    1
   102    77    80    1
   103    78    79    2
   104    70    69    1
   105    70    71    1
   106    87    85   ar
   107    72    71    1
   108    72    73    2
   109    75    73    1
   110    67    68    2
   111    83    85   ar
   112    83    81   ar
   113    85    84   ar
   114    73    74    1
   115    81    80    1
   116    81    82   ar
   117    84    82   ar
