@<TRIPOS>MOLECULE
tmp/5a8oA00.pdb
 211 208 0 0 0
SMALL
GASTEIGER

@<TRIPOS>ATOM
      1  N         20.3420   45.4910   39.6360 N.3    79  HIS79      -0.1241
      2  CA        21.0040   44.3700   40.2860 C.3    79  HIS79       0.1621
      3  C         22.0490   43.7670   39.3480 C.2    79  HIS79       0.2264
      4  O         21.7470   43.4720   38.1970 O.2    79  HIS79      -0.2867
      5  CB        19.9920   43.2860   40.6670 C.3    79  HIS79       0.0745
      6  CG        19.0650   43.6790   41.7670 C.ar   79  HIS79       0.0817
      7  ND1       18.3020   44.8260   41.7350 N.ar   79  HIS79      -0.2268
      8  CD2       18.7610   43.0600   42.9280 C.ar   79  HIS79       0.1154
      9  CE1       17.5700   44.8990   42.8330 C.ar   79  HIS79       0.1986
     10  NE2       17.8300   43.8380   43.5710 N.ar   79  HIS79      -0.2212
     11  N         23.0350   48.3000   42.3830 N.3   114  HIS114     -0.1241
     12  CA        22.3150   47.7540   43.5240 C.3   114  HIS114      0.1621
     13  C         22.9390   46.4630   44.0120 C.2   114  HIS114      0.2264
     14  O         22.4290   45.3800   43.7400 O.2   114  HIS114     -0.2867
     15  CB        20.8370   47.5340   43.1960 C.3   114  HIS114      0.0745
     16  CG        19.9740   47.3880   44.4150 C.ar  114  HIS114      0.0817
     17  ND1       19.4730   48.4720   45.0940 N.ar  114  HIS114     -0.2268
     18  CD2       19.5630   46.2930   45.1010 C.ar  114  HIS114      0.1154
     19  CE1       18.7790   48.0550   46.1370 C.ar  114  HIS114      0.1986
     20  NE2       18.8110   46.7370   46.1620 N.ar  114  HIS114     -0.2212
     21  N         24.8950   44.6330   47.6660 N.3   116  ILE116     -0.1245
     22  CA        24.8860   44.6290   49.1180 C.3   116  ILE116      0.1561
     23  C         26.1000   43.8020   49.5090 C.2   116  ILE116      0.2260
     24  O         26.2190   42.6290   49.1350 O.2   116  ILE116     -0.2867
     25  CB        23.6010   43.9830   49.6920 C.3   116  ILE116      0.0252
     26  CG1       22.3550   44.7000   49.1690 C.3   116  ILE116      0.0019
     27  CG2       23.6070   43.9930   51.2140 C.3   116  ILE116      0.0019
     28  CD1       21.0560   44.2540   49.8160 C.3   116  ILE116      0.0001
     29  N         26.1120   39.8130   50.2740 N.3   125  GLN125     -0.1245
     30  CA        25.0370   39.2430   51.0740 C.3   125  GLN125      0.1566
     31  C         24.3330   38.0780   50.3650 C.2   125  GLN125      0.2260
     32  O         23.8690   37.1650   51.0170 O.2   125  GLN125     -0.2867
     33  CB        24.0310   40.3440   51.4370 C.3   125  GLN125      0.0367
     34  CG        22.7610   39.8470   52.0880 C.3   125  GLN125      0.0905
     35  CD        21.9590   40.9600   52.7460 C.2   125  GLN125      0.2608
     36  OE1       22.4930   41.7730   53.5020 O.2   125  GLN125     -0.2717
     37  NE2       20.6630   40.9960   52.4570 N.am  125  GLN125     -0.0878
     38  N         22.6960   37.4600   43.9090 N.3   128  MET128     -0.1230
     39  CA        22.0350   38.4410   43.0530 C.3   128  MET128      0.1702
     40  C         22.7770   39.7770   43.0810 C.2   128  MET128      0.2592
     41  O         22.6300   40.5750   42.1600 O.2   128  MET128     -0.2718
     42  CB        20.5490   38.6310   43.4300 C.3   128  MET128      0.0401
     43  CG        20.2860   39.4590   44.6790 C.3   128  MET128      0.0596
     44  SD        18.5360   39.6870   45.0520 S.3   128  MET128     -0.1393
     45  CE        18.1000   38.0740   45.6860 C.3   128  MET128      0.0692
     46  N         23.5790   40.0010   44.1250 N.am  129  TYR129     -0.1976
     47  CA        24.3220   41.2460   44.2950 C.3   129  TYR129      0.1639
     48  C         25.7970   41.1150   43.8880 C.2   129  TYR129      0.2290
     49  O         26.5600   42.0910   43.9710 O.2   129  TYR129     -0.2864
     50  CB        24.2620   41.7000   45.7610 C.3   129  TYR129      0.0560
     51  CG        22.8710   41.8160   46.3380 C.ar  129  TYR129     -0.0198
     52  CD1       21.9330   42.6890   45.7940 C.ar  129  TYR129     -0.0009
     53  CD2       22.4900   41.0410   47.4310 C.ar  129  TYR129     -0.0009
     54  CE1       20.6540   42.7830   46.3240 C.ar  129  TYR129      0.0417
     55  CE2       21.2200   41.1220   47.9640 C.ar  129  TYR129      0.0417
     56  CZ        20.3060   41.9920   47.4180 C.ar  129  TYR129      0.1957
     57  OH        19.0540   42.0470   47.9780 O.3   129  TYR129     -0.2866
     58  N         24.3310   49.2920   49.1880 N.3   161  GLU161     -0.1245
     59  CA        24.4880   49.0880   50.6340 C.3   161  GLU161      0.1567
     60  C         25.8150   48.4650   51.0460 C.2   161  GLU161      0.2260
     61  O         25.9410   47.2390   51.0860 O.2   161  GLU161     -0.2867
     62  CB        23.3110   48.2630   51.1760 C.3   161  GLU161      0.0388
     63  CG        22.0240   49.0860   51.2610 C.3   161  GLU161      0.1160
     64  CD        20.8440   48.3540   51.8860 C.2   161  GLU161      0.3649
     65  OE1       20.8040   47.1120   51.8560 O.co2 161  GLU161     -0.2457
     66  OE2       19.9360   49.0470   52.4020 O.co2 161  GLU161     -0.2457
     67  N         28.5550   42.5820   57.1100 N.3   165  MET165     -0.1245
     68  CA        27.7430   41.6150   57.8560 C.3   165  MET165      0.1570
     69  C         28.5030   41.0540   59.0490 C.2   165  MET165      0.2261
     70  O         28.7660   39.8580   59.1290 O.2   165  MET165     -0.2867
     71  CB        27.2620   40.4660   56.9550 C.3   165  MET165      0.0387
     72  CG        26.5530   40.8970   55.6800 C.3   165  MET165      0.0595
     73  SD        26.0960   39.4860   54.6310 S.3   165  MET165     -0.1393
     74  CE        24.6790   38.8880   55.5380 C.3   165  MET165      0.0692
     75  N         27.1520   49.5730   57.5850 N.3   203  ASN203     -0.1225
     76  CA        25.9140   49.1490   58.2190 C.3   203  ASN203      0.1785
     77  C         24.7170   49.2580   57.2670 C.2   203  ASN203      0.2597
     78  O         23.6770   49.8290   57.6060 O.2   203  ASN203     -0.2718
     79  CB        25.6560   49.9210   59.5260 C.3   203  ASN203      0.1169
     80  CG        24.6930   49.1960   60.4420 C.2   203  ASN203      0.2627
     81  OD1       24.1600   48.1510   60.0850 O.2   203  ASN203     -0.2716
     82  ND2       24.4680   49.7340   61.6250 N.am  203  ASN203     -0.0877
     83  N         24.8770   48.6920   56.0720 N.am  204  TRP204     -0.1976
     84  CA        23.8670   48.7610   55.0260 C.3   204  TRP204      0.1640
     85  C         23.4530   50.2340   54.7420 C.2   204  TRP204      0.2290
     86  O         22.2790   50.5910   54.8020 O.2   204  TRP204     -0.2864
     87  CB        22.6460   47.8910   55.3790 C.3   204  TRP204      0.0576
     88  CG        22.8330   46.3840   55.3480 C.ar  204  TRP204      0.0006
     89  CD1       22.5050   45.5440   54.3130 C.ar  204  TRP204      0.0946
     90  CD2       23.3030   45.5290   56.4150 C.ar  204  TRP204      0.0152
     91  NE1       22.7540   44.2310   54.6650 N.ar  204  TRP204     -0.2442
     92  CE2       23.2570   44.1990   55.9440 C.ar  204  TRP204      0.0810
     93  CE3       23.7720   45.7600   57.7090 C.ar  204  TRP204      0.0012
     94  CZ2       23.6580   43.0990   56.7370 C.ar  204  TRP204      0.0191
     95  CZ3       24.1790   44.6740   58.4920 C.ar  204  TRP204      0.0001
     96  CH2       24.1140   43.3600   58.0020 C.ar  204  TRP204      0.0015
     97  N         16.0190   52.6520   58.0070 N.3   228  TYR228     -0.1241
     98  CA        14.8900   51.7610   58.3000 C.3   228  TYR228      0.1605
     99  C         14.5080   51.8530   59.7900 C.2   228  TYR228      0.2264
    100  O         15.3580   52.1550   60.6390 O.2   228  TYR228     -0.2867
    101  CB        15.2340   50.3130   57.9510 C.3   228  TYR228      0.0534
    102  CG        15.7290   50.1050   56.5390 C.ar  228  TYR228     -0.0201
    103  CD1       14.8550   50.1360   55.4500 C.ar  228  TYR228     -0.0009
    104  CD2       17.0670   49.8670   56.2940 C.ar  228  TYR228     -0.0009
    105  CE1       15.3150   49.9480   54.1560 C.ar  228  TYR228      0.0417
    106  CE2       17.5370   49.6750   55.0100 C.ar  228  TYR228      0.0417
    107  CZ        16.6600   49.7190   53.9450 C.ar  228  TYR228      0.1957
    108  OH        17.1720   49.5170   52.6790 O.3   228  TYR228     -0.2866
    109  N         14.0490   49.9440   62.3250 N.3   230  GLN230     -0.1231
    110  CA        14.6940   49.2000   63.4020 C.3   230  GLN230      0.1698
    111  C         16.2080   49.3790   63.4710 C.2   230  GLN230      0.2592
    112  O         16.8620   48.6950   64.2540 O.2   230  GLN230     -0.2718
    113  CB        14.3200   47.7200   63.3090 C.3   230  GLN230      0.0381
    114  CG        12.8490   47.4350   63.5720 C.3   230  GLN230      0.0905
    115  CD        12.5050   45.9810   63.3300 C.2   230  GLN230      0.2608
    116  OE1       12.5230   45.5120   62.1960 O.2   230  GLN230     -0.2717
    117  NE2       12.1910   45.2520   64.3960 N.am  230  GLN230     -0.0878
    118  N         16.7640   50.2900   62.6680 N.am  231  LYS231     -0.1980
    119  CA        18.2060   50.5670   62.6960 C.3   231  LYS231      0.1596
    120  C         18.5910   51.2150   64.0210 C.2   231  LYS231      0.2287
    121  O         19.4760   50.7340   64.7230 O.2   231  LYS231     -0.2864
    122  CB        18.6250   51.4810   61.5420 C.3   231  LYS231      0.0298
    123  CG        18.4270   50.9080   60.1410 C.3   231  LYS231      0.0038
    124  CD        19.2060   49.6300   59.8640 C.3   231  LYS231      0.0206
    125  CE        20.6930   49.8530   59.9460 C.3   231  LYS231      0.1093
    126  NZ        21.4610   48.7070   59.4020 N.3   231  LYS231     -0.1314
    127  N         17.8220   51.8600   67.8280 N.3   233  LYS233     -0.1245
    128  CA        17.1620   51.0150   68.8120 C.3   233  LYS233      0.1561
    129  C         17.0630   51.6860   70.1860 C.2   233  LYS233      0.2260
    130  O         17.6440   51.2030   71.1550 O.2   233  LYS233     -0.2867
    131  CB        17.8930   49.6670   68.9340 C.3   233  LYS233      0.0271
    132  CG        18.2490   48.9980   67.6090 C.3   233  LYS233      0.0035
    133  CD        18.0390   47.4890   67.6670 C.3   233  LYS233      0.0206
    134  CE        18.9710   46.7080   66.7490 C.3   233  LYS233      0.1093
    135  NZ        19.1850   47.3210   65.4090 N.3   233  LYS233     -0.1314
    136  N         16.6320   54.4460   50.3760 N.3   263  GLN263     -0.1245
    137  CA        15.8000   53.3350   50.7990 C.3   263  GLN263      0.1566
    138  C         15.3180   53.5930   52.2020 C.2   263  GLN263      0.2260
    139  O         16.1130   53.9180   53.0730 O.2   263  GLN263     -0.2867
    140  CB        16.5360   51.9880   50.7640 C.3   263  GLN263      0.0367
    141  CG        16.3090   51.2290   49.4890 C.3   263  GLN263      0.0905
    142  CD        16.8940   49.8410   49.4730 C.2   263  GLN263      0.2608
    143  OE1       17.8750   49.5980   48.7970 O.2   263  GLN263     -0.2717
    144  NE2       16.2620   48.9170   50.1700 N.am  263  GLN263     -0.0878
    145  N         10.3480   41.5780   58.0490 N.3   275  HIS275     -0.1226
    146  CA        11.6890   41.1460   58.4450 C.3   275  HIS275      0.1752
    147  C         12.3980   42.3340   59.0820 C.2   275  HIS275      0.2596
    148  O         12.0570   43.4760   58.8020 O.2   275  HIS275     -0.2718
    149  CB        12.5200   40.6420   57.2360 C.3   275  HIS275      0.0759
    150  CG        12.0420   39.3410   56.6540 C.ar  275  HIS275      0.0818
    151  ND1       12.0500   38.1520   57.3600 N.ar  275  HIS275     -0.2268
    152  CD2       11.5480   39.0430   55.4260 C.ar  275  HIS275      0.1154
    153  CE1       11.5730   37.1820   56.5950 C.ar  275  HIS275      0.1986
    154  NE2       11.2600   37.6970   55.4180 N.ar  275  HIS275     -0.2212
    155  N         13.3660   42.0540   59.9540 N.am  276  ILE276     -0.1966
    156  CA        14.2830   43.0690   60.4590 C.3   276  ILE276      0.1712
    157  C         15.0490   43.6060   59.2500 C.2   276  ILE276      0.2458
    158  O         15.4320   42.8200   58.3940 O.2   276  ILE276     -0.2730
    159  CB        15.2470   42.4720   61.5280 C.3   276  ILE276      0.0289
    160  CG1       14.5140   42.2760   62.8560 C.3   276  ILE276      0.0022
    161  CG2       16.4650   43.3580   61.7620 C.3   276  ILE276      0.0023
    162  CD1       15.2450   41.3960   63.8550 C.3   276  ILE276      0.0001
    163  N         15.2700   44.9370   59.1620 N.am  277  PRO277     -0.2727
    164  CA        14.9300   46.0070   60.0890 C.3   277  PRO277      0.1402
    165  C         13.7170   46.8500   59.6610 C.2   277  PRO277      0.2269
    166  O         13.6700   48.0390   59.9830 O.2   277  PRO277     -0.2865
    167  CB        16.1740   46.8820   60.0160 C.3   277  PRO277      0.0296
    168  CG        16.5350   46.8240   58.5510 C.3   277  PRO277      0.0237
    169  CD        16.0840   45.4710   58.0530 C.3   277  PRO277      0.0939
    170  N         11.0480   52.5540   49.4650 N.3   302  TRP302     -0.1241
    171  CA        11.2050   51.1810   48.9800 C.3   302  TRP302      0.1605
    172  C          9.9710   50.4000   49.4530 C.2   302  TRP302      0.2264
    173  O          9.7150   50.3810   50.6570 O.2   302  TRP302     -0.2867
    174  CB        12.4790   50.5570   49.5860 C.3   302  TRP302      0.0550
    175  CG        12.7070   49.1160   49.1950 C.ar  302  TRP302      0.0003
    176  CD1       12.1600   48.0110   49.7830 C.ar  302  TRP302      0.0946
    177  CD2       13.5320   48.6330   48.1280 C.ar  302  TRP302      0.0152
    178  NE1       12.5850   46.8740   49.1450 N.ar  302  TRP302     -0.2442
    179  CE2       13.4260   47.2320   48.1190 C.ar  302  TRP302      0.0810
    180  CE3       14.3360   49.2520   47.1650 C.ar  302  TRP302      0.0012
    181  CZ2       14.1080   46.4370   47.1930 C.ar  302  TRP302      0.0191
    182  CZ3       15.0160   48.4550   46.2420 C.ar  302  TRP302      0.0001
    183  CH2       14.8980   47.0670   46.2690 C.ar  302  TRP302      0.0015
    184  N          5.4800   42.4880   44.7140 N.3   307  ASP307     -0.1225
    185  CA         6.1420   41.2330   45.0830 C.3   307  ASP307      0.1805
    186  C          7.2810   41.4670   46.0630 C.2   307  ASP307      0.2598
    187  O          7.4020   40.7620   47.0520 O.2   307  ASP307     -0.2718
    188  CB         6.6870   40.5390   43.8330 C.3   307  ASP307      0.1424
    189  CG         5.6390   40.3900   42.7510 C.2   307  ASP307      0.3668
    190  OD1        4.5570   39.8730   43.0590 O.co2 307  ASP307     -0.2456
    191  OD2        5.8950   40.7980   41.6000 O.co2 307  ASP307     -0.2456
    192  N          8.1080   42.4670   45.7820 N.am  308  TRP308     -0.1962
    193  CA         9.2340   42.8320   46.6600 C.3   308  TRP308      0.1771
    194  C          8.7400   43.5750   47.8840 C.2   308  TRP308      0.2620
    195  O          7.7880   44.3580   47.7940 O.2   308  TRP308     -0.2715
    196  CB        10.2350   43.6910   45.8890 C.3   308  TRP308      0.0590
    197  CG        11.0480   42.9200   44.8910 C.ar  308  TRP308      0.0006
    198  CD1       10.8490   41.6210   44.4790 C.ar  308  TRP308      0.0946
    199  CD2       12.1770   43.4000   44.1600 C.ar  308  TRP308      0.0152
    200  NE1       11.8060   41.2650   43.5540 N.ar  308  TRP308     -0.2442
    201  CE2       12.6280   42.3410   43.3380 C.ar  308  TRP308      0.0810
    202  CE3       12.8500   44.6210   44.1150 C.ar  308  TRP308      0.0012
    203  CZ2       13.7160   42.4720   42.4960 C.ar  308  TRP308      0.0191
    204  CZ3       13.9340   44.7480   43.2770 C.ar  308  TRP308      0.0001
    205  CH2       14.3620   43.6840   42.4850 C.ar  308  TRP308      0.0015
    206  N          9.3810   43.3430   49.0270 N.am  309  SER309     -0.1950
    207  CA         8.8990   43.8930   50.2920 C.3   309  SER309      0.1924
    208  C          9.9290   44.8150   50.9500 C.2   309  SER309      0.2314
    209  O         11.1300   44.6910   50.6700 O.2   309  SER309     -0.2863
    210  CB         8.5540   42.7520   51.2300 C.3   309  SER309      0.2116
    211  OG         9.7190   41.9940   51.5010 O.3   309  SER309     -0.2180
@<TRIPOS>BOND
     1     4     3    2
     2     3     2    1
     3     1     2    1
     4     2     5    1
     5     5     6    1
     6   191   189   ar
     7     7     6   ar
     8     7     9   ar
     9     6     8   ar
    10    41    40    2
    11    11    12    1
    12   205   203   ar
    13   205   204   ar
    14   203   201   ar
    15   189   190   ar
    16   189   188    1
    17     9    10   ar
    18     8    10   ar
    19    39    40    1
    20    39    42    1
    21    39    38    1
    22    40    46   am
    23    15    12    1
    24    15    16    1
    25   204   202   ar
    26   201   200   ar
    27   201   199   ar
    28    42    43    1
    29    12    13    1
    30   200   198   ar
    31    14    13    2
    32   188   185    1
    33    48    49    2
    34    48    47    1
    35   202   199   ar
    36    46    47    1
    37   199   197   ar
    38    47    50    1
    39    16    17   ar
    40    16    18   ar
    41   198   197   ar
    42    43    44    1
    43   184   185    1
    44   197   196    1
    45    44    45    1
    46   185   186    1
    47    17    19   ar
    48    18    20   ar
    49    50    51    1
    50   192   186   am
    51   192   193    1
    52    52    54   ar
    53    52    51   ar
    54   196   193    1
    55   186   187    2
    56    19    20   ar
    57   182   183   ar
    58   182   180   ar
    59   183   181   ar
    60    54    56   ar
    61    51    53   ar
    62   193   194    1
    63   180   177   ar
    64   181   179   ar
    65    56    55   ar
    66    56    57    1
    67    53    55   ar
    68    21    22    1
    69   195   194    2
    70   194   206   am
    71   179   177   ar
    72   179   178   ar
    73   177   175   ar
    74   143   142    2
    75   171   172    1
    76   171   170    1
    77   171   174    1
    78   206   207    1
    79    22    23    1
    80    22    25    1
    81    24    23    2
    82   178   176   ar
    83    26    25    1
    84    26    28    1
    85    58    59    1
    86   175   174    1
    87   175   176   ar
    88   172   173    2
    89   142   141    1
    90   142   144   am
    91   141   140    1
    92    25    27    1
    93    29    30    1
    94   207   208    1
    95   207   210    1
    96    31    32    2
    97    31    30    1
    98   136   137    1
    99    59    60    1
   100    59    62    1
   101   209   208    2
   102   140   137    1
   103   137   138    1
   104    60    61    2
   105    30    33    1
   106    62    63    1
   107   210   211    1
   108    63    64    1
   109    33    34    1
   110    65    64   ar
   111    64    66   ar
   112    34    35    1
   113   138   139    2
   114    37    35   am
   115   108   107    1
   116    35    36    2
   117   107   105   ar
   118   107   106   ar
   119   105   103   ar
   120    89    91   ar
   121    89    88   ar
   122    73    74    1
   123    73    72    1
   124    91    92   ar
   125    85    86    2
   126    85    84    1
   127   106   104   ar
   128    84    87    1
   129    84    83    1
   130    88    87    1
   131    88    90   ar
   132   154   152   ar
   133   154   153   ar
   134   152   150   ar
   135   103   102   ar
   136    72    71    1
   137    92    90   ar
   138    92    94   ar
   139    83    77   am
   140   104   102   ar
   141    90    93   ar
   142   102   101    1
   143   153   151   ar
   144   150   149    1
   145   150   151   ar
   146    94    96   ar
   147    71    68    1
   148    67    68    1
   149   149   146    1
   150    77    78    2
   151    77    76    1
   152    75    76    1
   153    93    95   ar
   154    68    69    1
   155   101    98    1
   156    96    95   ar
   157    97    98    1
   158   145   146    1
   159   169   168    1
   160   169   163    1
   161    76    79    1
   162    98    99    1
   163   158   157    2
   164   146   147    1
   165   168   167    1
   166   148   147    2
   167    69    70    2
   168   147   155   am
   169   163   157   am
   170   163   164    1
   171   157   156    1
   172   126   125    1
   173    79    80    1
   174   165   166    2
   175   165   164    1
   176    99   100    2
   177   124   125    1
   178   124   123    1
   179   155   156    1
   180   167   164    1
   181    81    80    2
   182   123   122    1
   183    80    82   am
   184   156   159    1
   185   159   161    1
   186   159   160    1
   187   122   119    1
   188   116   115    2
   189   109   110    1
   190   118   119    1
   191   118   111   am
   192   119   120    1
   193   160   162    1
   194   113   110    1
   195   113   114    1
   196   115   114    1
   197   115   117   am
   198   110   111    1
   199   111   112    2
   200   120   121    2
   201   135   134    1
   202   134   133    1
   203   132   133    1
   204   132   131    1
   205   127   128    1
   206   128   131    1
   207   128   129    1
   208   129   130    2
