@<TRIPOS>MOLECULE
tmp/5a8pA00.pdb
 221 218 0 0 0
SMALL
GASTEIGER

@<TRIPOS>ATOM
      1  N         20.3580   45.4920   39.6420 N.3    79  HIS79      -0.1241
      2  CA        21.0000   44.3500   40.3000 C.3    79  HIS79       0.1621
      3  C         22.0590   43.7730   39.3670 C.2    79  HIS79       0.2264
      4  O         21.7690   43.5200   38.2030 O.2    79  HIS79      -0.2867
      5  CB        19.9640   43.2650   40.6410 C.3    79  HIS79       0.0745
      6  CG        19.0720   43.6270   41.7860 C.ar   79  HIS79       0.0817
      7  ND1       18.2950   44.7700   41.8000 N.ar   79  HIS79      -0.2268
      8  CD2       18.8460   42.9990   42.9630 C.ar   79  HIS79       0.1154
      9  CE1       17.6240   44.8210   42.9350 C.ar   79  HIS79       0.1986
     10  NE2       17.9530   43.7650   43.6630 N.ar   79  HIS79      -0.2212
     11  N         23.0370   48.2360   42.4360 N.3   114  HIS114     -0.1241
     12  CA        22.3200   47.7010   43.5770 C.3   114  HIS114      0.1621
     13  C         22.9090   46.4030   44.0870 C.2   114  HIS114      0.2264
     14  O         22.3850   45.3110   43.8260 O.2   114  HIS114     -0.2867
     15  CB        20.8370   47.5330   43.2670 C.3   114  HIS114      0.0745
     16  CG        20.0010   47.3260   44.4880 C.ar  114  HIS114      0.0817
     17  ND1       19.5200   48.3750   45.2430 N.ar  114  HIS114     -0.2268
     18  CD2       19.5950   46.1920   45.1100 C.ar  114  HIS114      0.1154
     19  CE1       18.8340   47.8920   46.2650 C.ar  114  HIS114      0.1986
     20  NE2       18.8650   46.5720   46.2080 N.ar  114  HIS114     -0.2212
     21  N         24.8830   44.5500   47.7010 N.3   116  ILE116     -0.1245
     22  CA        24.9030   44.5690   49.1650 C.3   116  ILE116      0.1561
     23  C         26.0900   43.7310   49.5640 C.2   116  ILE116      0.2260
     24  O         26.1530   42.5530   49.2190 O.2   116  ILE116     -0.2867
     25  CB        23.6470   43.9340   49.7940 C.3   116  ILE116      0.0252
     26  CG1       22.3840   44.6440   49.3090 C.3   116  ILE116      0.0019
     27  CG2       23.7320   43.9640   51.3240 C.3   116  ILE116      0.0019
     28  CD1       21.1090   44.1190   49.9390 C.3   116  ILE116      0.0001
     29  N         26.1390   39.8260   50.2740 N.3   125  GLN125     -0.1245
     30  CA        25.0650   39.2260   51.0490 C.3   125  GLN125      0.1566
     31  C         24.3840   38.0480   50.3220 C.2   125  GLN125      0.2260
     32  O         23.8960   37.1450   50.9630 O.2   125  GLN125     -0.2867
     33  CB        24.0360   40.2980   51.4290 C.3   125  GLN125      0.0367
     34  CG        22.8020   39.7680   52.1520 C.3   125  GLN125      0.0905
     35  CD        22.0240   40.8670   52.8620 C.2   125  GLN125      0.2608
     36  OE1       22.5960   41.6750   53.5940 O.2   125  GLN125     -0.2717
     37  NE2       20.7110   40.9000   52.6490 N.am  125  GLN125     -0.0878
     38  N         22.7000   37.4090   43.9350 N.3   128  MET128     -0.1230
     39  CA        22.0250   38.3670   43.0690 C.3   128  MET128      0.1702
     40  C         22.7620   39.7160   43.0880 C.2   128  MET128      0.2592
     41  O         22.6030   40.5020   42.1650 O.2   128  MET128     -0.2718
     42  CB        20.5370   38.5460   43.4540 C.3   128  MET128      0.0401
     43  CG        20.2540   39.3830   44.7030 C.3   128  MET128      0.0596
     44  SD        18.4870   39.6620   45.0150 S.3   128  MET128     -0.1393
     45  CE        18.0480   38.1750   45.8940 C.3   128  MET128      0.0692
     46  N         23.5550   39.9550   44.1410 N.am  129  TYR129     -0.1976
     47  CA        24.3310   41.1830   44.3200 C.3   129  TYR129      0.1639
     48  C         25.8030   41.0340   43.8990 C.2   129  TYR129      0.2290
     49  O         26.5750   41.9980   43.9630 O.2   129  TYR129     -0.2864
     50  CB        24.2720   41.6550   45.7930 C.3   129  TYR129      0.0560
     51  CG        22.8630   41.7590   46.3630 C.ar  129  TYR129     -0.0198
     52  CD1       21.9190   42.6210   45.8080 C.ar  129  TYR129     -0.0009
     53  CD2       22.4750   40.9820   47.4420 C.ar  129  TYR129     -0.0009
     54  CE1       20.6280   42.7030   46.3200 C.ar  129  TYR129      0.0417
     55  CE2       21.1950   41.0530   47.9600 C.ar  129  TYR129      0.0417
     56  CZ        20.2780   41.9120   47.4070 C.ar  129  TYR129      0.1957
     57  OH        19.0040   41.9420   47.9290 O.3   129  TYR129     -0.2866
     58  N         24.3300   49.2300   49.2530 N.3   161  GLU161     -0.1245
     59  CA        24.4640   49.0160   50.7010 C.3   161  GLU161      0.1567
     60  C         25.7900   48.3740   51.1000 C.2   161  GLU161      0.2260
     61  O         25.9410   47.1550   51.0760 O.2   161  GLU161     -0.2867
     62  CB        23.2750   48.2210   51.2460 C.3   161  GLU161      0.0388
     63  CG        22.0200   49.0730   51.3990 C.3   161  GLU161      0.1160
     64  CD        20.8350   48.3090   51.9660 C.2   161  GLU161      0.3649
     65  OE1       20.8360   47.0680   51.9150 O.co2 161  GLU161     -0.2457
     66  OE2       19.8930   48.9530   52.4590 O.co2 161  GLU161     -0.2457
     67  N         28.6410   42.4930   57.0880 N.3   165  MET165     -0.1245
     68  CA        27.8560   41.5210   57.8550 C.3   165  MET165      0.1570
     69  C         28.5990   41.0010   59.0920 C.2   165  MET165      0.2261
     70  O         28.8780   39.8110   59.2150 O.2   165  MET165     -0.2867
     71  CB        27.4140   40.3550   56.9540 C.3   165  MET165      0.0387
     72  CG        26.6360   40.7800   55.7110 C.3   165  MET165      0.0595
     73  SD        26.0820   39.4000   54.6660 S.3   165  MET165     -0.1393
     74  CE        24.7380   38.7740   55.6580 C.3   165  MET165      0.0692
     75  N         27.1740   49.4710   57.5770 N.3   203  ASN203     -0.1225
     76  CA        25.9580   49.0250   58.2360 C.3   203  ASN203      0.1785
     77  C         24.7450   49.1800   57.3140 C.2   203  ASN203      0.2597
     78  O         23.7040   49.7130   57.7090 O.2   203  ASN203     -0.2718
     79  CB        25.7580   49.7880   59.5530 C.3   203  ASN203      0.1169
     80  CG        24.7640   49.1120   60.4830 C.2   203  ASN203      0.2627
     81  OD1       24.3110   47.9900   60.2350 O.2   203  ASN203     -0.2716
     82  ND2       24.4050   49.8030   61.5510 N.am  203  ASN203     -0.0877
     83  N         24.8990   48.7060   56.0820 N.am  204  TRP204     -0.1976
     84  CA        23.8470   48.7710   55.0640 C.3   204  TRP204      0.1640
     85  C         23.4630   50.2250   54.7670 C.2   204  TRP204      0.2290
     86  O         22.2950   50.5800   54.7300 O.2   204  TRP204     -0.2864
     87  CB        22.6210   47.9240   55.4600 C.3   204  TRP204      0.0576
     88  CG        22.8340   46.4240   55.4100 C.ar  204  TRP204      0.0006
     89  CD1       22.5540   45.5900   54.3530 C.ar  204  TRP204      0.0946
     90  CD2       23.3270   45.5680   56.4660 C.ar  204  TRP204      0.0152
     91  NE1       22.8510   44.2850   54.6850 N.ar  204  TRP204     -0.2442
     92  CE2       23.3270   44.2430   55.9680 C.ar  204  TRP204      0.0810
     93  CE3       23.7650   45.7950   57.7720 C.ar  204  TRP204      0.0012
     94  CZ2       23.7530   43.1440   56.7370 C.ar  204  TRP204      0.0191
     95  CZ3       24.1990   44.7030   58.5420 C.ar  204  TRP204      0.0001
     96  CH2       24.1860   43.3910   58.0170 C.ar  204  TRP204      0.0015
     97  N         20.0070   54.9330   54.6860 N.3   226  HIS226     -0.1241
     98  CA        18.9060   53.9720   54.6660 C.3   226  HIS226      0.1621
     99  C         18.3680   53.7730   56.0730 C.2   226  HIS226      0.2264
    100  O         18.6740   52.7790   56.7260 O.2   226  HIS226     -0.2867
    101  CB        19.3520   52.6400   54.0640 C.3   226  HIS226      0.0745
    102  CG        19.6360   52.7110   52.5950 C.ar  226  HIS226      0.0817
    103  ND1       20.0630   51.6230   51.8690 N.ar  226  HIS226     -0.2268
    104  CD2       19.5680   53.7380   51.7200 C.ar  226  HIS226      0.1154
    105  CE1       20.2140   51.9670   50.6060 C.ar  226  HIS226      0.1986
    106  NE2       19.9280   53.2500   50.4900 N.ar  226  HIS226     -0.2212
    107  N         15.9780   52.5970   58.0000 N.3   228  TYR228     -0.1241
    108  CA        14.8550   51.7130   58.2770 C.3   228  TYR228      0.1605
    109  C         14.4850   51.7870   59.7650 C.2   228  TYR228      0.2264
    110  O         15.3240   52.1470   60.6000 O.2   228  TYR228     -0.2867
    111  CB        15.1930   50.2910   57.8570 C.3   228  TYR228      0.0534
    112  CG        15.0420   50.0530   56.3710 C.ar  228  TYR228     -0.0201
    113  CD1       13.8260   50.2670   55.7380 C.ar  228  TYR228     -0.0009
    114  CD2       16.1060   49.5980   55.6060 C.ar  228  TYR228     -0.0009
    115  CE1       13.6740   50.0370   54.3840 C.ar  228  TYR228      0.0417
    116  CE2       15.9620   49.3660   54.2500 C.ar  228  TYR228      0.0417
    117  CZ        14.7430   49.5850   53.6470 C.ar  228  TYR228      0.1957
    118  OH        14.5850   49.3520   52.3030 O.3   228  TYR228     -0.2866
    119  N         14.0860   49.8340   62.3860 N.3   230  GLN230     -0.1231
    120  CA        14.7570   49.0810   63.4560 C.3   230  GLN230      0.1698
    121  C         16.2860   49.2680   63.4930 C.2   230  GLN230      0.2592
    122  O         16.9680   48.5880   64.2580 O.2   230  GLN230     -0.2718
    123  CB        14.4200   47.5930   63.3250 C.3   230  GLN230      0.0381
    124  CG        12.9290   47.2880   63.4350 C.3   230  GLN230      0.0905
    125  CD        12.6310   45.8180   63.2200 C.2   230  GLN230      0.2608
    126  OE1       12.5860   45.3380   62.0840 O.2   230  GLN230     -0.2717
    127  NE2       12.4340   45.0890   64.3140 N.am  230  GLN230     -0.0878
    128  N         16.8200   50.1780   62.6770 N.am  231  LYS231     -0.1980
    129  CA        18.2620   50.4650   62.7010 C.3   231  LYS231      0.1596
    130  C         18.6460   51.1620   64.0020 C.2   231  LYS231      0.2287
    131  O         19.6000   50.7680   64.6460 O.2   231  LYS231     -0.2864
    132  CB        18.6860   51.3410   61.5160 C.3   231  LYS231      0.0298
    133  CG        18.4640   50.7240   60.1460 C.3   231  LYS231      0.0038
    134  CD        19.2400   49.4370   59.9090 C.3   231  LYS231      0.0206
    135  CE        20.7430   49.6640   59.8970 C.3   231  LYS231      0.1093
    136  NZ        21.5270   48.4190   59.6900 N.3   231  LYS231     -0.1314
    137  N         17.8230   51.7750   67.8510 N.3   233  LYS233     -0.1245
    138  CA        17.1220   50.9950   68.8630 C.3   233  LYS233      0.1561
    139  C         17.0930   51.6930   70.2220 C.2   233  LYS233      0.2260
    140  O         17.7140   51.2220   71.1720 O.2   233  LYS233     -0.2867
    141  CB        17.7730   49.6220   69.0140 C.3   233  LYS233      0.0271
    142  CG        18.0830   48.9240   67.7070 C.3   233  LYS233      0.0035
    143  CD        18.0150   47.4120   67.8610 C.3   233  LYS233      0.0206
    144  CE        19.0670   46.7040   67.0230 C.3   233  LYS233      0.1093
    145  NZ        19.0430   47.1240   65.5980 N.3   233  LYS233     -0.1314
    146  N         16.5650   54.4770   50.4620 N.3   263  GLN263     -0.1245
    147  CA        15.7220   53.3740   50.8950 C.3   263  GLN263      0.1566
    148  C         15.2270   53.6650   52.3050 C.2   263  GLN263      0.2260
    149  O         16.0020   54.0800   53.1770 O.2   263  GLN263     -0.2867
    150  CB        16.4660   52.0420   50.8780 C.3   263  GLN263      0.0367
    151  CG        16.3710   51.3050   49.5740 C.3   263  GLN263      0.0905
    152  CD        16.9790   49.9180   49.6410 C.2   263  GLN263      0.2608
    153  OE1       16.5180   49.0510   50.3870 O.2   263  GLN263     -0.2717
    154  NE2       18.0040   49.6950   48.8500 N.am  263  GLN263     -0.0878
    155  N         10.3940   41.4830   57.9730 N.3   275  HIS275     -0.1226
    156  CA        11.7350   41.0580   58.3840 C.3   275  HIS275      0.1752
    157  C         12.4750   42.2320   59.0060 C.2   275  HIS275      0.2596
    158  O         12.1550   43.3870   58.7350 O.2   275  HIS275     -0.2718
    159  CB        12.5460   40.4930   57.1950 C.3   275  HIS275      0.0759
    160  CG        12.6750   41.4370   56.0350 C.ar  275  HIS275      0.0818
    161  ND1       11.6560   41.6450   55.1320 N.ar  275  HIS275     -0.2268
    162  CD2       13.7020   42.2220   55.6260 C.ar  275  HIS275      0.1154
    163  CE1       12.0420   42.5240   54.2240 C.ar  275  HIS275      0.1986
    164  NE2       13.2810   42.8870   54.4970 N.ar  275  HIS275     -0.2212
    165  N         13.4580   41.9320   59.8460 N.am  276  ILE276     -0.1966
    166  CA        14.3450   42.9430   60.3710 C.3   276  ILE276      0.1712
    167  C         15.0650   43.4890   59.1390 C.2   276  ILE276      0.2458
    168  O         15.4140   42.7150   58.2630 O.2   276  ILE276     -0.2730
    169  CB        15.3180   42.3440   61.4210 C.3   276  ILE276      0.0289
    170  CG1       14.5550   42.0140   62.7190 C.3   276  ILE276      0.0022
    171  CG2       16.4530   43.3000   61.7520 C.3   276  ILE276      0.0023
    172  CD1       15.3860   41.2830   63.7640 C.3   276  ILE276      0.0001
    173  N         15.2680   44.8210   59.0500 N.am  277  PRO277     -0.2727
    174  CA        14.9630   45.8550   60.0200 C.3   277  PRO277      0.1402
    175  C         13.7570   46.7300   59.6460 C.2   277  PRO277      0.2269
    176  O         13.7180   47.9050   60.0530 O.2   277  PRO277     -0.2865
    177  CB        16.2300   46.7010   59.9690 C.3   277  PRO277      0.0296
    178  CG        16.5520   46.7090   58.5030 C.3   277  PRO277      0.0237
    179  CD        16.0520   45.3920   57.9380 C.3   277  PRO277      0.0939
    180  N         11.1590   52.5570   49.6340 N.3   302  TRP302     -0.1241
    181  CA        11.2730   51.1820   49.1610 C.3   302  TRP302      0.1605
    182  C         10.0370   50.4000   49.6370 C.2   302  TRP302      0.2264
    183  O          9.7530   50.3950   50.8450 O.2   302  TRP302     -0.2867
    184  CB        12.5590   50.5560   49.6970 C.3   302  TRP302      0.0550
    185  CG        12.7660   49.1220   49.2690 C.ar  302  TRP302      0.0003
    186  CD1       12.2080   48.0030   49.8380 C.ar  302  TRP302      0.0946
    187  CD2       13.5890   48.6560   48.2020 C.ar  302  TRP302      0.0152
    188  NE1       12.6180   46.8710   49.1700 N.ar  302  TRP302     -0.2442
    189  CE2       13.4710   47.2450   48.1650 C.ar  302  TRP302      0.0810
    190  CE3       14.4120   49.2890   47.2640 C.ar  302  TRP302      0.0012
    191  CZ2       14.1460   46.4700   47.2340 C.ar  302  TRP302      0.0191
    192  CZ3       15.0820   48.5100   46.3380 C.ar  302  TRP302      0.0001
    193  CH2       14.9470   47.1170   46.3340 C.ar  302  TRP302      0.0015
    194  N          5.6050   42.4900   44.9260 N.3   307  ASP307     -0.1225
    195  CA         6.2680   41.2350   45.2940 C.3   307  ASP307      0.1805
    196  C          7.3850   41.4640   46.2940 C.2   307  ASP307      0.2598
    197  O          7.4760   40.7740   47.2870 O.2   307  ASP307     -0.2718
    198  CB         6.8360   40.5510   44.0510 C.3   307  ASP307      0.1424
    199  CG         5.7920   40.3470   42.9880 C.2   307  ASP307      0.3668
    200  OD1        4.7130   39.8360   43.3380 O.co2 307  ASP307     -0.2456
    201  OD2        6.0480   40.7090   41.8130 O.co2 307  ASP307     -0.2456
    202  N          8.2350   42.4360   46.0070 N.am  308  TRP308     -0.1962
    203  CA         9.3400   42.8110   46.8900 C.3   308  TRP308      0.1771
    204  C          8.8310   43.6090   48.0770 C.2   308  TRP308      0.2620
    205  O          7.9830   44.4960   47.9130 O.2   308  TRP308     -0.2715
    206  CB        10.3460   43.6460   46.1060 C.3   308  TRP308      0.0590
    207  CG        11.1330   42.8630   45.1110 C.ar  308  TRP308      0.0006
    208  CD1       10.9540   41.5400   44.7530 C.ar  308  TRP308      0.0946
    209  CD2       12.2310   43.3440   44.3270 C.ar  308  TRP308      0.0152
    210  NE1       11.8870   41.1810   43.8030 N.ar  308  TRP308     -0.2442
    211  CE2       12.6780   42.2650   43.5210 C.ar  308  TRP308      0.0810
    212  CE3       12.8860   44.5810   44.2290 C.ar  308  TRP308      0.0012
    213  CZ2       13.7480   42.3850   42.6390 C.ar  308  TRP308      0.0191
    214  CZ3       13.9680   44.6990   43.3420 C.ar  308  TRP308      0.0001
    215  CH2       14.3830   43.6100   42.5620 C.ar  308  TRP308      0.0015
    216  N          9.3530   43.3000   49.2620 N.am  309  SER309     -0.1950
    217  CA         8.8860   43.9020   50.4980 C.3   309  SER309      0.1924
    218  C          9.9340   44.8310   51.1360 C.2   309  SER309      0.2314
    219  O         11.1260   44.6990   50.8730 O.2   309  SER309     -0.2863
    220  CB         8.5080   42.8040   51.4740 C.3   309  SER309      0.2116
    221  OG         9.6680   42.1780   51.9610 O.3   309  SER309     -0.2180
@<TRIPOS>BOND
     1     4     3    2
     2     3     2    1
     3     1     2    1
     4     2     5    1
     5     5     6    1
     6     6     7   ar
     7     6     8   ar
     8     7     9   ar
     9   201   199   ar
    10    41    40    2
    11    11    12    1
    12   215   213   ar
    13   215   214   ar
    14   213   211   ar
    15     9    10   ar
    16     8    10   ar
    17   199   200   ar
    18   199   198    1
    19    39    40    1
    20    39    42    1
    21    39    38    1
    22    40    46   am
    23    15    12    1
    24    15    16    1
    25   214   212   ar
    26    42    43    1
    27   211   210   ar
    28   211   209   ar
    29    12    13    1
    30   210   208   ar
    31    14    13    2
    32    48    49    2
    33    48    47    1
    34   198   195    1
    35    46    47    1
    36   212   209   ar
    37    47    50    1
    38   209   207   ar
    39    16    18   ar
    40    16    17   ar
    41    43    44    1
    42   208   207   ar
    43   194   195    1
    44    44    45    1
    45    18    20   ar
    46   207   206    1
    47    17    19   ar
    48   195   196    1
    49    50    51    1
    50    52    54   ar
    51    52    51   ar
    52   202   196   am
    53   202   203    1
    54   206   203    1
    55    20    19   ar
    56   196   197    2
    57    54    56   ar
    58   193   192   ar
    59   193   191   ar
    60   192   190   ar
    61    51    53   ar
    62   203   204    1
    63   191   189   ar
    64   190   187   ar
    65    56    57    1
    66    56    55   ar
    67    53    55   ar
    68    21    22    1
    69   205   204    2
    70   204   216   am
    71   189   187   ar
    72   189   188   ar
    73   187   185   ar
    74   154   152   am
    75   181   180    1
    76   181   182    1
    77   181   184    1
    78    22    23    1
    79    22    25    1
    80   188   186   ar
    81    24    23    2
    82    58    59    1
    83   216   217    1
    84   185   184    1
    85   185   186   ar
    86    26    25    1
    87    26    28    1
    88   151   152    1
    89   151   150    1
    90   182   183    2
    91   152   153    2
    92    25    27    1
    93    29    30    1
    94    31    32    2
    95    31    30    1
    96   146   147    1
    97   106   105   ar
    98   106   104   ar
    99   217   218    1
   100   217   220    1
   101   105   103   ar
   102    59    60    1
   103    59    62    1
   104   219   218    2
   105   150   147    1
   106   147   148    1
   107    30    33    1
   108    61    60    2
   109    62    63    1
   110    63    64    1
   111    33    34    1
   112   220   221    1
   113   104   102   ar
   114   103   102   ar
   115    65    64   ar
   116    64    66   ar
   117    34    35    1
   118   118   117    1
   119   148   149    2
   120   102   101    1
   121    37    35   am
   122    35    36    2
   123   117   116   ar
   124   117   115   ar
   125   101    98    1
   126   163   164   ar
   127   163   161   ar
   128   116   114   ar
   129    89    91   ar
   130    89    88   ar
   131   115   113   ar
   132   164   162   ar
   133    98    97    1
   134    98    99    1
   135    73    74    1
   136    73    72    1
   137    91    92   ar
   138    86    85    2
   139    85    84    1
   140    84    87    1
   141    84    83    1
   142   161   160   ar
   143    88    87    1
   144    88    90   ar
   145   114   112   ar
   146   162   160   ar
   147    72    71    1
   148   113   112   ar
   149    92    90   ar
   150    92    94   ar
   151   160   159    1
   152    99   100    2
   153    83    77   am
   154   112   111    1
   155    90    93   ar
   156    94    96   ar
   157    71    68    1
   158    67    68    1
   159   159   156    1
   160    77    78    2
   161    77    76    1
   162    75    76    1
   163    93    95   ar
   164    68    69    1
   165   111   108    1
   166   179   178    1
   167   179   173    1
   168   155   156    1
   169   107   108    1
   170    96    95   ar
   171    76    79    1
   172   168   167    2
   173   108   109    1
   174   156   157    1
   175   178   177    1
   176   158   157    2
   177   157   165   am
   178   173   167   am
   179   173   174    1
   180    69    70    2
   181   167   166    1
   182    79    80    1
   183   175   174    1
   184   175   176    2
   185   136   135    1
   186   109   110    2
   187   165   166    1
   188   135   134    1
   189   134   133    1
   190   177   174    1
   191   133   132    1
   192    81    80    2
   193   166   169    1
   194    80    82   am
   195   169   171    1
   196   169   170    1
   197   132   129    1
   198   126   125    2
   199   119   120    1
   200   128   129    1
   201   128   121   am
   202   129   130    1
   203   170   172    1
   204   125   124    1
   205   125   127   am
   206   123   124    1
   207   123   120    1
   208   120   121    1
   209   121   122    2
   210   130   131    2
   211   145   144    1
   212   144   143    1
   213   142   143    1
   214   142   141    1
   215   137   138    1
   216   138   141    1
   217   138   139    1
   218   139   140    2
