@<TRIPOS>MOLECULE
tmp/5a8qA00.pdb
 224 222 0 0 0
SMALL
GASTEIGER

@<TRIPOS>ATOM
      1  N         20.3300   45.3820   39.6880 N.3    79  HIS79      -0.1241
      2  CA        20.9930   44.2660   40.3650 C.3    79  HIS79       0.1621
      3  C         22.0440   43.6950   39.4240 C.2    79  HIS79       0.2264
      4  O         21.7460   43.4380   38.2570 O.2    79  HIS79      -0.2867
      5  CB        20.0080   43.1710   40.7260 C.3    79  HIS79       0.0745
      6  CG        19.0610   43.5400   41.8210 C.ar   79  HIS79       0.0817
      7  ND1       18.2770   44.6770   41.7910 N.ar   79  HIS79      -0.2268
      8  CD2       18.7610   42.9070   42.9770 C.ar   79  HIS79       0.1154
      9  CE1       17.5410   44.7240   42.8870 C.ar   79  HIS79       0.1986
     10  NE2       17.8170   43.6650   43.6220 N.ar   79  HIS79      -0.2212
     11  N         22.9420   48.1170   42.5030 N.3   114  HIS114     -0.1241
     12  CA        22.2490   47.5450   43.6470 C.3   114  HIS114      0.1621
     13  C         22.8920   46.2640   44.1430 C.2   114  HIS114      0.2264
     14  O         22.4310   45.1680   43.8590 O.2   114  HIS114     -0.2867
     15  CB        20.7770   47.3120   43.3360 C.3   114  HIS114      0.0745
     16  CG        19.9540   47.0890   44.5640 C.ar  114  HIS114      0.0817
     17  ND1       19.4730   48.1340   45.3160 N.ar  114  HIS114     -0.2268
     18  CD2       19.5810   45.9580   45.2070 C.ar  114  HIS114      0.1154
     19  CE1       18.7990   47.6580   46.3490 C.ar  114  HIS114      0.1986
     20  NE2       18.8410   46.3390   46.3030 N.ar  114  HIS114     -0.2212
     21  N         24.8030   44.4330   47.8100 N.3   116  ILE116     -0.1245
     22  CA        24.8880   44.4150   49.2570 C.3   116  ILE116      0.1561
     23  C         26.1210   43.5930   49.6230 C.2   116  ILE116      0.2260
     24  O         26.2070   42.4130   49.2960 O.2   116  ILE116     -0.2867
     25  CB        23.6610   43.7560   49.9360 C.3   116  ILE116      0.0252
     26  CG1       22.3400   44.3680   49.4470 C.3   116  ILE116      0.0019
     27  CG2       23.7890   43.8890   51.4420 C.3   116  ILE116      0.0019
     28  CD1       21.1030   43.9280   50.2160 C.3   116  ILE116      0.0001
     29  N         26.2130   39.6550   50.3480 N.3   125  GLN125     -0.1245
     30  CA        25.1720   39.0290   51.1550 C.3   125  GLN125      0.1566
     31  C         24.4640   37.8670   50.4350 C.2   125  GLN125      0.2260
     32  O         23.9790   36.9400   51.0850 O.2   125  GLN125     -0.2867
     33  CB        24.1480   40.0880   51.5790 C.3   125  GLN125      0.0367
     34  CG        22.9720   39.5350   52.3650 C.3   125  GLN125      0.0905
     35  CD        22.2220   40.6090   53.1390 C.2   125  GLN125      0.2608
     36  OE1       22.8190   41.4620   53.7570 O.2   125  GLN125     -0.2717
     37  NE2       20.9060   40.5520   53.1110 N.am  125  GLN125     -0.0878
     38  N         22.6410   37.3190   44.0090 N.3   128  MET128     -0.1230
     39  CA        21.9690   38.2960   43.1680 C.3   128  MET128      0.1702
     40  C         22.7180   39.6380   43.1710 C.2   128  MET128      0.2592
     41  O         22.6120   40.4170   42.2120 O.2   128  MET128     -0.2718
     42  CB        20.4910   38.4770   43.5610 C.3   128  MET128      0.0401
     43  CG        20.2380   39.3430   44.7860 C.3   128  MET128      0.0596
     44  SD        18.4900   39.6500   45.1250 S.3   128  MET128     -0.1393
     45  CE        18.0700   38.2250   46.1220 C.3   128  MET128      0.0692
     46  N         23.4890   39.8830   44.2360 N.am  129  TYR129     -0.1976
     47  CA        24.2800   41.1000   44.3960 C.3   129  TYR129      0.1639
     48  C         25.7530   40.9750   43.9550 C.2   129  TYR129      0.2290
     49  O         26.5050   41.9490   44.0370 O.2   129  TYR129     -0.2864
     50  CB        24.2620   41.5390   45.8590 C.3   129  TYR129      0.0560
     51  CG        22.8730   41.6500   46.4710 C.ar  129  TYR129     -0.0198
     52  CD1       21.9050   42.4810   45.9190 C.ar  129  TYR129     -0.0009
     53  CD2       22.5260   40.8930   47.5840 C.ar  129  TYR129     -0.0009
     54  CE1       20.6290   42.5750   46.4740 C.ar  129  TYR129      0.0417
     55  CE2       21.2540   40.9750   48.1400 C.ar  129  TYR129      0.0417
     56  CZ        20.3100   41.8080   47.5830 C.ar  129  TYR129      0.1957
     57  OH        19.0420   41.8690   48.1640 O.3   129  TYR129     -0.2866
     58  N         24.7610   50.3270   46.5550 N.3   160  ASN160     -0.1225
     59  CA        23.5740   50.3690   47.4060 C.3   160  ASN160      0.1785
     60  C         23.8270   50.2450   48.9160 C.2   160  ASN160      0.2597
     61  O         23.5900   51.1940   49.6730 O.2   160  ASN160     -0.2718
     62  CB        22.5930   49.3020   46.9030 C.3   160  ASN160      0.1169
     63  CG        21.4920   48.9780   47.8850 C.2   160  ASN160      0.2627
     64  OD1       20.6880   49.8520   48.2550 O.2   160  ASN160     -0.2716
     65  ND2       21.3950   47.6880   48.2690 N.am  160  ASN160     -0.0877
     66  N         24.2910   49.0840   49.3670 N.am  161  GLU161     -0.1979
     67  CA        24.4110   48.8340   50.8080 C.3   161  GLU161      0.1602
     68  C         25.7460   48.1920   51.1900 C.2   161  GLU161      0.2287
     69  O         25.8760   46.9470   51.1940 O.2   161  GLU161     -0.2864
     70  CB        23.2220   48.0050   51.3110 C.3   161  GLU161      0.0415
     71  CG        21.9740   48.8680   51.5230 C.3   161  GLU161      0.1163
     72  CD        20.6900   48.1040   51.7870 C.2   161  GLU161      0.3649
     73  OE1       20.5990   46.9470   51.3630 O.co2 161  GLU161     -0.2457
     74  OE2       19.7330   48.7020   52.3720 O.co2 161  GLU161     -0.2457
     75  N         28.6830   42.3250   57.1500 N.3   165  MET165     -0.1245
     76  CA        27.9060   41.3310   57.9220 C.3   165  MET165      0.1570
     77  C         28.6800   40.8310   59.1390 C.2   165  MET165      0.2261
     78  O         28.9970   39.6350   59.2640 O.2   165  MET165     -0.2867
     79  CB        27.4820   40.1560   57.0190 C.3   165  MET165      0.0387
     80  CG        26.7560   40.5830   55.7470 C.3   165  MET165      0.0595
     81  SD        26.1750   39.2170   54.6980 S.3   165  MET165     -0.1393
     82  CE        24.7370   38.7140   55.6350 C.3   165  MET165      0.0692
     83  N         27.2630   49.2610   57.6760 N.3   203  ASN203     -0.1225
     84  CA        26.0570   48.7950   58.3600 C.3   203  ASN203      0.1785
     85  C         24.8240   48.9190   57.4760 C.2   203  ASN203      0.2597
     86  O         23.7790   49.4450   57.8930 O.2   203  ASN203     -0.2718
     87  CB        25.8610   49.5320   59.6920 C.3   203  ASN203      0.1169
     88  CG        24.9880   48.7540   60.6640 C.2   203  ASN203      0.2627
     89  OD1       24.6130   47.6120   60.4040 O.2   203  ASN203     -0.2716
     90  ND2       24.6720   49.3660   61.7950 N.am  203  ASN203     -0.0877
     91  N         24.9690   48.4450   56.2400 N.am  204  TRP204     -0.1976
     92  CA        23.9320   48.5180   55.2090 C.3   204  TRP204      0.1640
     93  C         23.4910   49.9670   54.9300 C.2   204  TRP204      0.2290
     94  O         22.3060   50.2810   54.9640 O.2   204  TRP204     -0.2864
     95  CB        22.7200   47.6420   55.5670 C.3   204  TRP204      0.0576
     96  CG        22.9340   46.1360   55.5510 C.ar  204  TRP204      0.0006
     97  CD1       22.5870   45.2860   54.5450 C.ar  204  TRP204      0.0946
     98  CD2       23.4810   45.3060   56.6000 C.ar  204  TRP204      0.0152
     99  NE1       22.8820   43.9850   54.8940 N.ar  204  TRP204     -0.2442
    100  CE2       23.4400   43.9710   56.1420 C.ar  204  TRP204      0.0810
    101  CE3       24.0000   45.5600   57.8710 C.ar  204  TRP204      0.0012
    102  CZ2       23.8870   42.8950   56.9180 C.ar  204  TRP204      0.0191
    103  CZ3       24.4490   44.4940   58.6400 C.ar  204  TRP204      0.0001
    104  CH2       24.3830   43.1670   58.1570 C.ar  204  TRP204      0.0015
    105  N         15.9070   52.2880   57.9960 N.3   228  TYR228     -0.1241
    106  CA        14.8210   51.3680   58.2230 C.3   228  TYR228      0.1605
    107  C         14.4540   51.3530   59.7040 C.2   228  TYR228      0.2264
    108  O         15.2880   51.6750   60.5580 O.2   228  TYR228     -0.2867
    109  CB        15.1890   49.9780   57.7270 C.3   228  TYR228      0.0534
    110  CG        14.9480   49.7860   56.2460 C.ar  228  TYR228     -0.0201
    111  CD1       13.6870   50.0160   55.6970 C.ar  228  TYR228     -0.0009
    112  CD2       15.9520   49.3280   55.4090 C.ar  228  TYR228     -0.0009
    113  CE1       13.4310   49.8060   54.3540 C.ar  228  TYR228      0.0417
    114  CE2       15.7110   49.1170   54.0600 C.ar  228  TYR228      0.0417
    115  CZ        14.4440   49.3580   53.5410 C.ar  228  TYR228      0.1957
    116  OH        14.1720   49.1470   52.2060 O.3   228  TYR228     -0.2866
    117  N         16.6000   49.7370   62.6400 N.3   231  LYS231     -0.1245
    118  CA        18.0310   50.0430   62.6960 C.3   231  LYS231      0.1561
    119  C         18.3870   50.7610   63.9990 C.2   231  LYS231      0.2260
    120  O         19.3670   50.4120   64.6530 O.2   231  LYS231     -0.2867
    121  CB        18.4720   50.8700   61.4830 C.3   231  LYS231      0.0271
    122  CG        18.4380   50.1180   60.1570 C.3   231  LYS231      0.0035
    123  CD        19.3570   48.9020   60.1150 C.3   231  LYS231      0.0206
    124  CE        20.8280   49.2680   59.9930 C.3   231  LYS231      0.1093
    125  NZ        21.6850   48.0520   60.0220 N.3   231  LYS231     -0.1314
    126  N         17.4830   51.3400   67.8650 N.3   233  LYS233     -0.1245
    127  CA        16.8210   50.5120   68.8600 C.3   233  LYS233      0.1561
    128  C         16.7810   51.1740   70.2430 C.2   233  LYS233      0.2260
    129  O         17.3780   50.6670   71.1880 O.2   233  LYS233     -0.2867
    130  CB        17.5440   49.1550   68.9350 C.3   233  LYS233      0.0271
    131  CG        17.5260   48.3930   67.6150 C.3   233  LYS233      0.0035
    132  CD        18.4280   47.1670   67.6300 C.3   233  LYS233      0.0206
    133  CE        18.3260   46.3910   66.3220 C.3   233  LYS233      0.1093
    134  NZ        19.0190   47.0660   65.1780 N.3   233  LYS233     -0.1314
    135  N         16.5440   54.2430   50.6710 N.3   263  GLN263     -0.1245
    136  CA        15.6240   53.2040   51.1040 C.3   263  GLN263      0.1566
    137  C         15.1000   53.5460   52.4770 C.2   263  GLN263      0.2260
    138  O         15.8500   53.9810   53.3470 O.2   263  GLN263     -0.2867
    139  CB        16.2820   51.8280   51.1510 C.3   263  GLN263      0.0367
    140  CG        16.6500   51.2830   49.7940 C.3   263  GLN263      0.0905
    141  CD        16.9710   49.8070   49.8270 C.2   263  GLN263      0.2608
    142  OE1       16.3210   49.0410   50.5280 O.2   263  GLN263     -0.2717
    143  NE2       17.9310   49.3950   49.0420 N.am  263  GLN263     -0.0878
    144  N         10.2910   41.0910   57.5050 N.3   275  HIS275     -0.1226
    145  CA        11.6130   40.6380   57.9460 C.3   275  HIS275      0.1752
    146  C         12.3370   41.8120   58.5650 C.2   275  HIS275      0.2596
    147  O         12.0080   42.9620   58.2910 O.2   275  HIS275     -0.2718
    148  CB        12.4320   40.0710   56.7680 C.3   275  HIS275      0.0759
    149  CG        12.5240   40.9980   55.5930 C.ar  275  HIS275      0.0818
    150  ND1       11.6920   40.8970   54.5000 N.ar  275  HIS275     -0.2268
    151  CD2       13.3470   42.0470   55.3400 C.ar  275  HIS275      0.1154
    152  CE1       11.9860   41.8490   53.6320 C.ar  275  HIS275      0.1986
    153  NE2       12.9870   42.5610   54.1170 N.ar  275  HIS275     -0.2212
    154  N         13.3200   41.5170   59.4110 N.am  276  ILE276     -0.1966
    155  CA        14.2590   42.5330   59.8750 C.3   276  ILE276      0.1712
    156  C         14.9390   43.1530   58.6640 C.2   276  ILE276      0.2458
    157  O         15.2940   42.4250   57.7390 O.2   276  ILE276     -0.2730
    158  CB        15.3100   41.8910   60.8070 C.3   276  ILE276      0.0289
    159  CG1       14.6660   41.5080   62.1410 C.3   276  ILE276      0.0022
    160  CG2       16.4920   42.8210   61.0610 C.3   276  ILE276      0.0023
    161  CD1       15.5100   40.5430   62.9540 C.3   276  ILE276      0.0001
    162  N         15.1450   44.4950   58.6510 N.am  277  PRO277     -0.2716
    163  CA        14.8520   45.5100   59.6480 C.3   277  PRO277      0.1536
    164  C         13.6290   46.3740   59.3280 C.2   277  PRO277      0.2598
    165  O         13.5640   47.5210   59.7900 O.2   277  PRO277     -0.2715
    166  CB        16.0980   46.3850   59.5740 C.3   277  PRO277      0.0310
    167  CG        16.3730   46.4330   58.1120 C.3   277  PRO277      0.0237
    168  CD        15.9450   45.0830   57.5590 C.3   277  PRO277      0.0939
    169  N         12.6620   45.8240   58.5900 N.am  278  VAL278     -0.1978
    170  CA        11.5400   46.6180   58.0720 C.3   278  VAL278      0.1596
    171  C         10.2260   46.4830   58.8710 C.2   278  VAL278      0.2287
    172  O          9.2110   47.0610   58.4920 O.2   278  VAL278     -0.2864
    173  CB        11.2890   46.3420   56.5790 C.3   278  VAL278      0.0276
    174  CG1       12.5650   46.6020   55.7720 C.3   278  VAL278      0.0022
    175  CG2       10.7630   44.9380   56.3200 C.3   278  VAL278      0.0022
    176  N         11.0440   52.4030   49.6460 N.3   302  TRP302     -0.1241
    177  CA        11.1920   51.0460   49.1260 C.3   302  TRP302      0.1605
    178  C          9.9260   50.2850   49.5460 C.2   302  TRP302      0.2264
    179  O          9.6180   50.2630   50.7460 O.2   302  TRP302     -0.2867
    180  CB        12.4440   50.3800   49.7300 C.3   302  TRP302      0.0550
    181  CG        12.6550   48.9900   49.2270 C.ar  302  TRP302      0.0003
    182  CD1       12.0260   47.8580   49.6590 C.ar  302  TRP302      0.0946
    183  CD2       13.4880   48.5950   48.1450 C.ar  302  TRP302      0.0152
    184  NE1       12.4400   46.7740   48.9330 N.ar  302  TRP302     -0.2442
    185  CE2       13.3390   47.1960   47.9930 C.ar  302  TRP302      0.0810
    186  CE3       14.3620   49.2810   47.2930 C.ar  302  TRP302      0.0012
    187  CZ2       14.0210   46.4760   47.0240 C.ar  302  TRP302      0.0191
    188  CZ3       15.0480   48.5570   46.3200 C.ar  302  TRP302      0.0001
    189  CH2       14.8780   47.1630   46.2020 C.ar  302  TRP302      0.0015
    190  N          5.2560   42.5640   44.7610 N.3   307  ASP307     -0.1225
    191  CA         5.9090   41.2810   45.0880 C.3   307  ASP307      0.1805
    192  C          7.0670   41.4670   46.0680 C.2   307  ASP307      0.2598
    193  O          7.2110   40.7130   47.0100 O.2   307  ASP307     -0.2718
    194  CB         6.4450   40.6130   43.8150 C.3   307  ASP307      0.1424
    195  CG         5.3750   40.4270   42.7620 C.2   307  ASP307      0.3668
    196  OD1        4.3220   39.8700   43.0990 O.co2 307  ASP307     -0.2456
    197  OD2        5.5840   40.8450   41.6010 O.co2 307  ASP307     -0.2456
    198  N          7.9060   42.4590   45.7940 N.am  308  TRP308     -0.1962
    199  CA         9.0720   42.7790   46.5960 C.3   308  TRP308      0.1771
    200  C          8.6630   43.5880   47.8310 C.2   308  TRP308      0.2620
    201  O          7.8560   44.5140   47.7210 O.2   308  TRP308     -0.2715
    202  CB        10.0400   43.5920   45.7410 C.3   308  TRP308      0.0590
    203  CG        10.8370   42.7960   44.7740 C.ar  308  TRP308      0.0006
    204  CD1       10.5810   41.5240   44.3270 C.ar  308  TRP308      0.0946
    205  CD2       12.0180   43.2300   44.0970 C.ar  308  TRP308      0.0152
    206  NE1       11.5590   41.1290   43.4340 N.ar  308  TRP308     -0.2442
    207  CE2       12.4510   42.1600   43.2770 C.ar  308  TRP308      0.0810
    208  CE3       12.7720   44.4070   44.1290 C.ar  308  TRP308      0.0012
    209  CZ2       13.6070   42.2350   42.4970 C.ar  308  TRP308      0.0191
    210  CZ3       13.9160   44.4860   43.3600 C.ar  308  TRP308      0.0001
    211  CH2       14.3270   43.4090   42.5540 C.ar  308  TRP308      0.0015
    212  N          9.2270   43.2580   48.9900 N.am  309  SER309     -0.1936
    213  CA         8.7580   43.8500   50.2480 C.3   309  SER309      0.2040
    214  C          9.8130   44.7200   50.9420 C.2   309  SER309      0.2485
    215  O         11.0150   44.5310   50.7360 O.2   309  SER309     -0.2729
    216  CB         8.2700   42.7560   51.1870 C.3   309  SER309      0.2129
    217  OG         9.3290   41.9180   51.5620 O.3   309  SER309     -0.2179
    218  N          9.3660   45.6810   51.7650 N.am  310  PRO310     -0.2726
    219  CA         7.9610   45.9950   52.0300 C.3   310  PRO310      0.1402
    220  C          7.3320   46.6720   50.8310 C.2   310  PRO310      0.2269
    221  O          7.9450   47.5600   50.2400 O.2   310  PRO310     -0.2865
    222  CB         8.0320   46.9510   53.2240 C.3   310  PRO310      0.0296
    223  CG         9.3640   47.6000   53.0820 C.3   310  PRO310      0.0237
    224  CD        10.2640   46.4980   52.5990 C.3   310  PRO310      0.0939
@<TRIPOS>BOND
     1     4     3    2
     2     3     2    1
     3     1     2    1
     4     2     5    1
     5     5     6    1
     6   197   195   ar
     7     7     6   ar
     8     7     9   ar
     9     6     8   ar
    10    41    40    2
    11   209   211   ar
    12   209   207   ar
    13    11    12    1
    14   211   210   ar
    15   195   196   ar
    16   195   194    1
    17     9    10   ar
    18     8    10   ar
    19    39    40    1
    20    39    42    1
    21    39    38    1
    22    40    46   am
    23   207   206   ar
    24   207   205   ar
    25    15    12    1
    26    15    16    1
    27   210   208   ar
    28   206   204   ar
    29    42    43    1
    30    12    13    1
    31   194   191    1
    32    14    13    2
    33    48    49    2
    34    48    47    1
    35   205   208   ar
    36   205   203   ar
    37    46    47    1
    38   204   203   ar
    39    47    50    1
    40    16    18   ar
    41    16    17   ar
    42   190   191    1
    43   203   202    1
    44    43    44    1
    45   191   192    1
    46    44    45    1
    47    18    20   ar
    48    17    19   ar
    49   202   199    1
    50   198   192   am
    51   198   199    1
    52    50    51    1
    53    52    51   ar
    54    52    54   ar
    55   192   193    2
    56   189   188   ar
    57   189   187   ar
    58    20    19   ar
    59   188   186   ar
    60    51    53   ar
    61    54    56   ar
    62    58    59    1
    63   199   200    1
    64    62    59    1
    65    62    63    1
    66   187   185   ar
    67   186   183   ar
    68    59    60    1
    69    56    55   ar
    70    56    57    1
    71    53    55   ar
    72   201   200    2
    73    21    22    1
    74   200   212   am
    75    63    64    2
    76    63    65   am
    77   185   183   ar
    78   185   184   ar
    79   183   181   ar
    80    60    66   am
    81    60    61    2
    82   184   182   ar
    83   212   213    1
    84   143   141   am
    85   177   178    1
    86   177   176    1
    87   177   180    1
    88   181   182   ar
    89   181   180    1
    90    22    23    1
    91    22    25    1
    92    24    23    2
    93    66    67    1
    94    26    25    1
    95    26    28    1
    96   178   179    2
    97   140   141    1
    98   140   139    1
    99   141   142    2
   100    25    27    1
   101   221   220    2
   102   213   214    1
   103   213   216    1
   104    29    30    1
   105    31    32    2
   106    31    30    1
   107   135   136    1
   108   215   214    2
   109    67    68    1
   110    67    70    1
   111   220   219    1
   112   214   218   am
   113   136   139    1
   114   136   137    1
   115    30    33    1
   116   216   217    1
   117    68    69    2
   118    70    71    1
   119    73    72   ar
   120    71    72    1
   121    33    34    1
   122   218   219    1
   123   218   224    1
   124    72    74   ar
   125   219   222    1
   126   116   115    1
   127    34    35    1
   128   137   138    2
   129   224   223    1
   130   223   222    1
   131    37    35   am
   132    35    36    2
   133   115   114   ar
   134   115   113   ar
   135   152   153   ar
   136   152   150   ar
   137   114   112   ar
   138   153   151   ar
   139   113   111   ar
   140   150   149   ar
   141    97    99   ar
   142    97    96   ar
   143    81    82    1
   144    81    80    1
   145    99   100   ar
   146    93    94    2
   147    93    92    1
   148    92    95    1
   149    92    91    1
   150   151   149   ar
   151   112   110   ar
   152    96    95    1
   153    96    98   ar
   154   149   148    1
   155   111   110   ar
   156    80    79    1
   157   174   173    1
   158   100    98   ar
   159   100   102   ar
   160    91    85   am
   161   110   109    1
   162   175   173    1
   163   173   170    1
   164    98   101   ar
   165   148   145    1
   166   102   104   ar
   167    79    76    1
   168    75    76    1
   169    85    86    2
   170    85    84    1
   171   144   145    1
   172   168   167    1
   173   168   162    1
   174    83    84    1
   175   109   106    1
   176   157   156    2
   177   101   103   ar
   178    76    77    1
   179   145   146    1
   180   105   106    1
   181   170   169    1
   182   170   171    1
   183   167   166    1
   184   104   103   ar
   185   106   107    1
   186   147   146    2
   187    84    87    1
   188   172   171    2
   189   146   154   am
   190   169   164   am
   191   162   156   am
   192   162   163    1
   193   156   155    1
   194    77    78    2
   195   164   163    1
   196   164   165    2
   197   154   155    1
   198   166   163    1
   199    87    88    1
   200   107   108    2
   201   155   158    1
   202   124   125    1
   203   124   123    1
   204   123   122    1
   205   122   121    1
   206    89    88    2
   207    88    90   am
   208   158   160    1
   209   158   159    1
   210   121   118    1
   211   159   161    1
   212   117   118    1
   213   118   119    1
   214   119   120    2
   215   134   133    1
   216   133   132    1
   217   131   132    1
   218   131   130    1
   219   126   127    1
   220   127   130    1
   221   127   128    1
   222   128   129    2
