@<TRIPOS>MOLECULE
tmp/5a8wF00.pdb
 82 82 0 0 0
SMALL
GASTEIGER

@<TRIPOS>ATOM
      1  N         18.4680  -48.3580    1.0650 N.3   119  LEU119     -0.1231
      2  CA        19.9350  -48.4070    1.1020 C.3   119  LEU119      0.1693
      3  C         20.4160  -47.1810    0.3340 C.2   119  LEU119      0.2593
      4  O         19.6320  -46.5540   -0.3870 O.2   119  LEU119     -0.2718
      5  CB        20.4470  -49.7140    0.4890 C.3   119  LEU119      0.0284
      6  CG        19.9220  -51.0600    1.0710 C.3   119  LEU119      0.0019
      7  CD1       18.5380  -51.5120    0.4660 C.3   119  LEU119      0.0001
      8  CD2       20.9120  -52.1410    0.8170 C.3   119  LEU119      0.0001
      9  N         21.6970  -46.8290    0.4470 N.am  120  SER120     -0.1938
     10  CA        22.1920  -45.6720   -0.2990 C.3   120  SER120      0.2055
     11  C         22.0760  -45.9380   -1.8040 C.2   120  SER120      0.2644
     12  O         21.6300  -45.0680   -2.5690 O.2   120  SER120     -0.2714
     13  CB        23.6460  -45.3330    0.1180 C.3   120  SER120      0.2130
     14  OG        24.5760  -46.3160   -0.2860 O.3   120  SER120     -0.2179
     15  N         22.3520  -47.1820   -2.2140 N.am  121  GLY121     -0.1939
     16  CA        22.5000  -47.5540   -3.6020 C.3   121  GLY121      0.2014
     17  C         21.2950  -48.1550   -4.3040 C.2   121  GLY121      0.2638
     18  O         21.3140  -48.2980   -5.5260 O.2   121  GLY121     -0.2714
     19  N         20.2490  -48.5040   -3.5720 N.am  122  ARG122     -0.1977
     20  CA        19.0850  -49.0830   -4.2290 C.3   122  ARG122      0.1597
     21  C         17.9550  -49.0640   -3.2090 C.2   122  ARG122      0.2287
     22  O         18.1900  -48.8820   -2.0040 O.2   122  ARG122     -0.2864
     23  CB        19.3470  -50.4950   -4.7280 C.3   122  ARG122      0.0334
     24  CG        19.3990  -51.5040   -3.6180 C.3   122  ARG122      0.0492
     25  CD        19.9670  -52.7970   -4.1290 C.3   122  ARG122      0.2205
     26  NE        19.4040  -53.9090   -3.3780 N.pl3 122  ARG122     -0.0865
     27  CZ        19.9570  -54.3990   -2.2890 C.cat 122  ARG122      0.5346
     28  NH1       21.1110  -53.9010   -1.9020 N.pl3 122  ARG122      0.1354
     29  NH2       19.3730  -55.3830   -1.6330 N.pl3 122  ARG122      0.1354
     30  N         18.1810  -55.2970   -9.9820 N.3   154  GLY154     -0.1210
     31  CA        18.1240  -56.2390   -8.8640 C.3   154  GLY154      0.1956
     32  C         19.4700  -56.7450   -8.3640 C.2   154  GLY154      0.2612
     33  O         19.5390  -57.4510   -7.3420 O.2   154  GLY154     -0.2717
     34  N         20.5550  -56.3960   -9.0600 N.am  155  ALA155     -0.1965
     35  CA        21.8770  -56.9140   -8.7100 C.3   155  ALA155      0.1728
     36  C         22.8910  -56.0290   -9.3990 C.2   155  ALA155      0.2617
     37  O         22.6320  -55.5440  -10.5020 O.2   155  ALA155     -0.2715
     38  CB        22.1310  -58.3660   -9.1390 C.3   155  ALA155      0.0334
     39  N         24.0600  -55.8900   -8.7730 N.am  156  THR156     -0.1937
     40  CA        25.1440  -55.0460   -9.3350 C.3   156  THR156      0.2028
     41  C         24.6260  -53.6340   -9.5700 C.2   156  THR156      0.2642
     42  O         24.5680  -53.1500  -10.7060 O.2   156  THR156     -0.2714
     43  CB        25.7140  -55.6520  -10.6260 C.3   156  THR156      0.1808
     44  OG1       26.0460  -57.0140  -10.4200 O.3   156  THR156     -0.2208
     45  CG2       27.0240  -54.9310  -11.0930 C.3   156  THR156      0.0379
     46  N         24.2570  -52.9760   -8.4660 N.am  157  VAL157     -0.1963
     47  CA        23.5030  -51.7300   -8.5280 C.3   157  VAL157      0.1727
     48  C         24.3380  -50.4560   -8.5640 C.2   157  VAL157      0.2616
     49  O         23.7710  -49.3770   -8.7250 O.2   157  VAL157     -0.2715
     50  CB        22.5560  -51.7120   -7.3260 C.3   157  VAL157      0.0290
     51  CG1       21.6940  -53.0090   -7.3820 C.3   157  VAL157      0.0023
     52  CG2       23.3360  -51.5800   -6.0480 C.3   157  VAL157      0.0023
     53  N         25.6530  -50.5400   -8.3890 N.am  158  HIS158     -0.1959
     54  CA        26.5420  -49.4060   -8.3950 C.3   158  HIS158      0.1787
     55  C         26.0220  -48.3480   -9.3620 C.2   158  HIS158      0.2621
     56  O         25.6950  -48.6940  -10.4930 O.2   158  HIS158     -0.2715
     57  CB        27.9100  -49.9190   -8.8460 C.3   158  HIS158      0.0785
     58  CG        29.0370  -49.0280   -8.5120 C.ar  158  HIS158      0.0821
     59  ND1       29.4370  -48.8080   -7.2110 N.ar  158  HIS158     -0.2267
     60  CD2       29.9060  -48.3650   -9.3030 C.ar  158  HIS158      0.1154
     61  CE1       30.5110  -48.0350   -7.2200 C.ar  158  HIS158      0.1986
     62  NE2       30.8230  -47.7650   -8.4760 N.ar  158  HIS158     -0.2212
     63  N         25.9770  -47.0830   -8.9560 N.am  159  GLY159     -0.1940
     64  CA        25.7860  -46.0000   -9.9250 C.3   159  GLY159      0.2014
     65  C         25.0870  -44.8030   -9.3370 C.2   159  GLY159      0.2639
     66  O         25.2020  -43.7050   -9.8870 O.2   159  GLY159     -0.2714
     67  N         24.3840  -44.9580   -8.2070 N.am  160  HIS160     -0.1959
     68  CA        23.6910  -43.7850   -7.6620 C.3   160  HIS160      0.1787
     69  C         24.6410  -42.5920   -7.4030 C.2   160  HIS160      0.2620
     70  O         24.2500  -41.4420   -7.6060 O.2   160  HIS160     -0.2715
     71  CB        22.9490  -44.1390   -6.3830 C.3   160  HIS160      0.0785
     72  CG        23.8100  -44.1580   -5.1600 C.ar  160  HIS160      0.0821
     73  ND1       24.6720  -45.1950   -4.8660 N.ar  160  HIS160     -0.2267
     74  CD2       23.9000  -43.2840   -4.1200 C.ar  160  HIS160      0.1154
     75  CE1       25.2850  -44.9330   -3.7180 C.ar  160  HIS160      0.1986
     76  NE2       24.8330  -43.7820   -3.2520 N.ar  160  HIS160     -0.2212
     77  N         25.8910  -42.8500   -7.0050 N.am  161  SER161     -0.1950
     78  CA        26.8480  -41.8200   -6.6180 C.3   161  SER161      0.1924
     79  C         27.8160  -41.4880   -7.7270 C.2   161  SER161      0.2314
     80  O         28.7660  -40.7410   -7.4830 O.2   161  SER161     -0.2863
     81  CB        27.6150  -42.2730   -5.3480 C.3   161  SER161      0.2116
     82  OG        28.0170  -43.6030   -5.5660 O.3   161  SER161     -0.2180
@<TRIPOS>BOND
     1    45    43    1
     2    42    41    2
     3    43    44    1
     4    43    40    1
     5    37    36    2
     6    56    55    2
     7    30    31    1
     8    64    65    1
     9    64    63    1
    10    66    65    2
    11    41    40    1
    12    41    46   am
    13    36    39   am
    14    36    35    1
    15    55    63   am
    16    55    54    1
    17    65    67   am
    18    40    39    1
    19    60    58   ar
    20    60    62   ar
    21    38    35    1
    22    34    35    1
    23    34    32   am
    24    31    32    1
    25    57    58    1
    26    57    54    1
    27    49    48    2
    28    48    47    1
    29    48    53   am
    30    47    46    1
    31    47    50    1
    32    58    59   ar
    33    62    61   ar
    34    54    53    1
    35    32    33    2
    36    67    68    1
    37    79    80    2
    38    79    78    1
    39    68    69    1
    40    68    71    1
    41    70    69    2
    42    69    77   am
    43    51    50    1
    44    50    52    1
    45    61    59   ar
    46    77    78    1
    47    78    81    1
    48    71    72    1
    49    82    81    1
    50    18    17    2
    51    72    73   ar
    52    72    74   ar
    53    73    75   ar
    54    23    20    1
    55    23    24    1
    56    17    16    1
    57    17    19   am
    58    20    19    1
    59    20    21    1
    60    25    24    1
    61    25    26    1
    62    74    76   ar
    63    75    76   ar
    64    16    15    1
    65    26    27    2
    66    21    22    2
    67    12    11    2
    68    27    28    1
    69    27    29    1
    70    15    11   am
    71    11    10    1
    72     4     3    2
    73    10    13    1
    74    10     9    1
    75    14    13    1
    76     3     9   am
    77     3     2    1
    78     7     6    1
    79     5     6    1
    80     5     2    1
    81     8     6    1
    82     1     2    1
