@<TRIPOS>MOLECULE
tmp/5a8wD01.pdb
 95 91 0 0 0
SMALL
GASTEIGER

@<TRIPOS>ATOM
      1  N         27.4300  -65.9760   21.8610 N.3   270  ARG270     -0.1245
      2  CA        27.0790  -65.8690   20.4500 C.3   270  ARG270      0.1563
      3  C         28.2920  -65.5310   19.5950 C.2   270  ARG270      0.2260
      4  O         28.3640  -65.9230   18.4350 O.2   270  ARG270     -0.2867
      5  CB        26.0020  -64.8060   20.2290 C.3   270  ARG270      0.0307
      6  CG        25.3380  -65.0070   18.9300 C.3   270  ARG270      0.0489
      7  CD        24.2160  -63.9770   18.6410 C.3   270  ARG270      0.2205
      8  NE        23.4350  -64.6230   17.6260 N.pl3 270  ARG270     -0.0865
      9  CZ        22.3110  -65.3030   17.8350 C.cat 270  ARG270      0.5346
     10  NH1       21.7390  -65.3580   19.0400 N.pl3 270  ARG270      0.1354
     11  NH2       21.7460  -65.8890   16.8130 N.pl3 270  ARG270      0.1354
     12  N         35.2120  -56.9310   11.9920 N.3   318  LEU318     -0.1245
     13  CA        33.8870  -57.1390   11.3730 C.3   318  LEU318      0.1561
     14  C         34.0010  -57.8680   10.0460 C.2   318  LEU318      0.2260
     15  O         33.1260  -58.6860    9.7010 O.2   318  LEU318     -0.2867
     16  CB        33.1680  -55.7970   11.1620 C.3   318  LEU318      0.0270
     17  CG        32.7990  -55.2380   12.5410 C.3   318  LEU318      0.0019
     18  CD1       32.1180  -53.8520   12.4160 C.3   318  LEU318      0.0001
     19  CD2       31.8740  -56.3100   13.2160 C.3   318  LEU318      0.0001
     20  N         34.0120  -61.6720   12.2250 N.3   322  MET322     -0.1230
     21  CA        32.5610  -61.7100   12.3150 C.3   322  MET322      0.1702
     22  C         31.8670  -61.9220   10.9730 C.2   322  MET322      0.2593
     23  O         30.6450  -61.9580   10.9530 O.2   322  MET322     -0.2718
     24  CB        31.9950  -60.4290   12.9670 C.3   322  MET322      0.0401
     25  CG        32.3710  -60.1980   14.3930 C.3   322  MET322      0.0596
     26  SD        31.8780  -61.5680   15.4930 S.3   322  MET322     -0.1393
     27  CE        30.0920  -61.8600   15.2000 C.3   322  MET322      0.0692
     28  N         32.6040  -62.0560    9.8600 N.am  323  SER323     -0.1952
     29  CA        31.9410  -62.2830    8.5720 C.3   323  SER323      0.1924
     30  C         32.8820  -63.0370    7.6520 C.2   323  SER323      0.2314
     31  O         32.8730  -64.2590    7.6370 O.2   323  SER323     -0.2863
     32  CB        31.4490  -60.9460    7.9290 C.3   323  SER323      0.2116
     33  OG        32.5220  -60.0690    7.6240 O.3   323  SER323     -0.2180
     34  N         35.6230  -56.0090    3.9750 N.3   328  PHE328     -0.1241
     35  CA        35.1720  -54.6470    4.1930 C.3   328  PHE328      0.1605
     36  C         36.3060  -53.6680    4.0180 C.2   328  PHE328      0.2264
     37  O         36.4290  -52.7220    4.7930 O.2   328  PHE328     -0.2867
     38  CB        34.5540  -54.4840    5.6000 C.3   328  PHE328      0.0534
     39  CG        33.3120  -55.3390    5.8390 C.ar  328  PHE328     -0.0203
     40  CD1       32.4210  -55.5880    4.7800 C.ar  328  PHE328     -0.0042
     41  CD2       33.0560  -55.8990    7.1130 C.ar  328  PHE328     -0.0042
     42  CE1       31.2900  -56.3170    4.9530 C.ar  328  PHE328     -0.0003
     43  CE2       31.8840  -56.6700    7.3090 C.ar  328  PHE328     -0.0003
     44  CZ        31.0110  -56.8730    6.2010 C.ar  328  PHE328     -0.0000
     45  N         34.9040  -50.0200    3.1130 N.3   331  TYR331     -0.1241
     46  CA        34.2090  -49.4150    4.2550 C.3   331  TYR331      0.1605
     47  C         35.2160  -48.7560    5.1930 C.2   331  TYR331      0.2264
     48  O         34.9320  -47.7100    5.7920 O.2   331  TYR331     -0.2867
     49  CB        33.4370  -50.4770    5.0570 C.3   331  TYR331      0.0534
     50  CG        32.0990  -50.8390    4.4870 C.ar  331  TYR331     -0.0201
     51  CD1       31.1710  -49.8370    4.1300 C.ar  331  TYR331     -0.0009
     52  CD2       31.7460  -52.1710    4.3520 C.ar  331  TYR331     -0.0009
     53  CE1       29.8990  -50.2180    3.6290 C.ar  331  TYR331      0.0417
     54  CE2       30.5430  -52.5660    3.8770 C.ar  331  TYR331      0.0417
     55  CZ        29.5900  -51.5850    3.5170 C.ar  331  TYR331      0.1957
     56  OH        28.3590  -51.9770    3.0240 O.3   331  TYR331     -0.2866
     57  N         24.1470  -48.6520    4.2570 N.3   440  PHE440     -0.1241
     58  CA        23.6580  -49.9340    3.7860 C.3   440  PHE440      0.1605
     59  C         22.4050  -50.3030    4.5560 C.2   440  PHE440      0.2264
     60  O         21.9530  -49.5800    5.4690 O.2   440  PHE440     -0.2867
     61  CB        24.7580  -51.0000    3.8760 C.3   440  PHE440      0.0534
     62  CG        25.0670  -51.4340    5.2910 C.ar  440  PHE440     -0.0203
     63  CD1       25.9990  -50.7560    6.0520 C.ar  440  PHE440     -0.0042
     64  CD2       24.4310  -52.5490    5.8240 C.ar  440  PHE440     -0.0042
     65  CE1       26.2750  -51.1460    7.4010 C.ar  440  PHE440     -0.0003
     66  CE2       24.6410  -52.9100    7.1490 C.ar  440  PHE440     -0.0003
     67  CZ        25.5600  -52.2070    7.9170 C.ar  440  PHE440     -0.0000
     68  N         27.5540  -53.9460   18.1450 N.3   474  ALA474     -0.1231
     69  CA        28.1240  -55.2680   18.0050 C.3   474  ALA474      0.1694
     70  C         28.1390  -55.8200   16.5750 C.2   474  ALA474      0.2592
     71  O         28.8570  -56.7890   16.3510 O.2   474  ALA474     -0.2718
     72  CB        27.3240  -56.2600   18.8230 C.3   474  ALA474      0.0304
     73  N         27.4010  -55.2160   15.6080 N.am  475  MET475     -0.1965
     74  CA        27.1790  -55.8020   14.2780 C.3   475  MET475      0.1736
     75  C         27.6930  -55.0300   13.0550 C.2   475  MET475      0.2616
     76  O         27.9240  -55.6650   12.0320 O.2   475  MET475     -0.2715
     77  CB        25.6830  -56.0060   14.0440 C.3   475  MET475      0.0427
     78  CG        25.1210  -56.9870   15.0110 C.3   475  MET475      0.0599
     79  SD        23.3400  -56.6250   15.2140 S.3   475  MET475     -0.1393
     80  CE        23.3710  -55.2270   16.3450 C.3   475  MET475      0.0692
     81  N         27.8220  -53.7030   13.0760 N.am  476  ASN476     -0.1958
     82  CA        27.8540  -52.9690   11.7950 C.3   476  ASN476      0.1819
     83  C         29.1250  -52.1680   11.5070 C.2   476  ASN476      0.2621
     84  O         29.6630  -51.4930   12.3920 O.2   476  ASN476     -0.2715
     85  CB        26.6240  -52.0560   11.7250 C.3   476  ASN476      0.1195
     86  CG        25.3090  -52.8690   11.9680 C.2   476  ASN476      0.2630
     87  OD1       24.5570  -52.6140   12.9160 O.2   476  ASN476     -0.2716
     88  ND2       25.0880  -53.8850   11.1410 N.am  476  ASN476     -0.0877
     89  N         29.5910  -52.2480   10.2450 N.am  477  VAL477     -0.1977
     90  CA        30.7280  -51.4200    9.7760 C.3   477  VAL477      0.1596
     91  C         30.4950  -49.9050    9.9100 C.2   477  VAL477      0.2287
     92  O         29.3860  -49.4310   10.1810 O.2   477  VAL477     -0.2864
     93  CB        31.0520  -51.7230    8.2990 C.3   477  VAL477      0.0276
     94  CG1       31.4380  -53.1950    8.1060 C.3   477  VAL477      0.0022
     95  CG2       29.8140  -51.4740    7.4420 C.3   477  VAL477      0.0022
@<TRIPOS>BOND
     1    56    55    1
     2    45    46    1
     3    55    53   ar
     4    55    54   ar
     5    53    51   ar
     6    58    61    1
     7    58    57    1
     8    58    59    1
     9    61    62    1
    10    54    52   ar
    11    34    35    1
    12    36    35    1
    13    36    37    2
    14    51    50   ar
    15    35    38    1
    16    46    49    1
    17    46    47    1
    18    52    50   ar
    19    50    49    1
    20    59    60    2
    21    40    42   ar
    22    40    39   ar
    23    42    44   ar
    24    47    48    2
    25    62    64   ar
    26    62    63   ar
    27    38    39    1
    28    64    66   ar
    29    39    41   ar
    30    63    65   ar
    31    44    43   ar
    32    41    43   ar
    33    66    67   ar
    34    65    67   ar
    35    95    93    1
    36    33    32    1
    37    31    30    2
    38    30    29    1
    39    32    29    1
    40    94    93    1
    41    93    90    1
    42    29    28    1
    43    15    14    2
    44    90    91    1
    45    90    89    1
    46    28    22   am
    47    91    92    2
    48    14    13    1
    49    89    83   am
    50    23    22    2
    51    22    21    1
    52    88    86   am
    53    16    13    1
    54    16    17    1
    55    13    12    1
    56    83    82    1
    57    83    84    2
    58    85    82    1
    59    85    86    1
    60    82    81    1
    61    86    87    2
    62    76    75    2
    63    20    21    1
    64    21    24    1
    65    18    17    1
    66    17    19    1
    67    24    25    1
    68    75    81   am
    69    75    74    1
    70    77    74    1
    71    77    78    1
    72    74    73    1
    73    25    26    1
    74    78    79    1
    75    27    26    1
    76    79    80    1
    77    73    70   am
    78    71    70    2
    79    70    69    1
    80    11     9    1
    81     8     9    2
    82     8     7    1
    83     9    10    1
    84    69    68    1
    85    69    72    1
    86     4     3    2
    87     7     6    1
    88     6     5    1
    89     3     2    1
    90     5     2    1
    91     2     1    1
