@<TRIPOS>MOLECULE
tmp/5a8wD03.pdb
 121 115 0 0 0
SMALL
GASTEIGER

@<TRIPOS>ATOM
      1  N         63.5600  -67.1280   28.4710 N.3   140  ALA140     -0.1245
      2  CA        62.4500  -68.0520   28.6900 C.3   140  ALA140      0.1562
      3  C         61.2210  -67.6990   27.8530 C.2   140  ALA140      0.2260
      4  O         60.5290  -68.5980   27.3530 O.2   140  ALA140     -0.2867
      5  CB        62.0960  -68.0940   30.1790 C.3   140  ALA140      0.0290
      6  N         63.0520  -70.7670   25.5980 N.3   144  GLY144     -0.1210
      7  CA        64.3080  -71.3390   26.0830 C.3   144  GLY144      0.1956
      8  C         64.0960  -71.9190   27.4660 C.2   144  GLY144      0.2612
      9  O         63.3130  -71.3850   28.2640 O.2   144  GLY144     -0.2717
     10  N         64.7600  -73.0490   27.7300 N.am  145  ALA145     -0.1965
     11  CA        64.5450  -73.7610   28.9850 C.3   145  ALA145      0.1728
     12  C         65.4710  -73.2160   30.0730 C.2   145  ALA145      0.2616
     13  O         66.6120  -72.8430   29.7980 O.2   145  ALA145     -0.2715
     14  CB        64.7750  -75.2570   28.7660 C.3   145  ALA145      0.0334
     15  N         64.9930  -73.2140   31.3210 N.am  146  VAL146     -0.1963
     16  CA        65.8130  -72.6870   32.4160 C.3   146  VAL146      0.1727
     17  C         65.9310  -73.6350   33.6050 C.2   146  VAL146      0.2616
     18  O         66.8540  -73.4640   34.4310 O.2   146  VAL146     -0.2715
     19  CB        65.3160  -71.2930   32.8900 C.3   146  VAL146      0.0290
     20  CG1       65.4350  -70.2340   31.7610 C.3   146  VAL146      0.0023
     21  CG2       63.9150  -71.3700   33.4000 C.3   146  VAL146      0.0023
     22  N         65.1030  -74.6670   33.7870 N.am  147  VAL147     -0.1963
     23  CA        65.2130  -75.5070   34.9730 C.3   147  VAL147      0.1727
     24  C         65.4800  -76.9760   34.6440 C.2   147  VAL147      0.2616
     25  O         66.3190  -77.6270   35.2920 O.2   147  VAL147     -0.2715
     26  CB        63.9460  -75.3820   35.8580 C.3   147  VAL147      0.0290
     27  CG1       63.9430  -76.5120   36.9730 C.3   147  VAL147      0.0023
     28  CG2       63.8920  -73.9910   36.5060 C.3   147  VAL147      0.0023
     29  N         64.6960  -77.5490   33.7340 N.am  148  GLN148     -0.1963
     30  CA        64.7260  -78.9940   33.5730 C.3   148  GLN148      0.1733
     31  C         65.7800  -79.4930   32.5980 C.2   148  GLN148      0.2616
     32  O         65.9990  -78.8830   31.5540 O.2   148  GLN148     -0.2715
     33  CB        63.3530  -79.5140   33.1070 C.3   148  GLN148      0.0408
     34  CG        62.3480  -79.4860   34.2160 C.3   148  GLN148      0.0908
     35  CD        61.0670  -80.2050   33.8480 C.2   148  GLN148      0.2608
     36  OE1       60.0150  -79.6090   33.9090 O.2   148  GLN148     -0.2717
     37  NE2       61.1490  -81.4830   33.4740 N.am  148  GLN148     -0.0878
     38  N         66.3380  -80.6590   32.9140 N.am  149  GLU149     -0.1963
     39  CA        67.1710  -81.4260   31.9920 C.3   149  GLU149      0.1733
     40  C         66.3330  -82.0560   30.8800 C.2   149  GLU149      0.2616
     41  O         65.1980  -82.4770   31.0880 O.2   149  GLU149     -0.2715
     42  CB        67.9290  -82.5270   32.7350 C.3   149  GLU149      0.0429
     43  CG        68.7640  -83.4510   31.8440 C.3   149  GLU149      0.1163
     44  CD        69.9140  -82.7410   31.0750 C.2   149  GLU149      0.3649
     45  OE1       69.6420  -81.9050   30.1770 O.co2 149  GLU149     -0.2457
     46  OE2       71.0740  -83.0410   31.3930 O.co2 149  GLU149     -0.2457
     47  N         66.9400  -82.1660   29.6960 N.am  150  HIS150     -0.1959
     48  CA        66.3260  -82.7940   28.5250 C.3   150  HIS150      0.1787
     49  C         65.0910  -82.0350   28.0530 C.2   150  HIS150      0.2620
     50  O         64.1090  -82.6380   27.6610 O.2   150  HIS150     -0.2715
     51  CB        65.9530  -84.2740   28.7570 C.3   150  HIS150      0.0785
     52  CG        66.1170  -85.1060   27.5170 C.ar  150  HIS150      0.0821
     53  ND1       65.1960  -85.1010   26.4940 N.ar  150  HIS150     -0.2267
     54  CD2       67.1600  -85.8530   27.0730 C.ar  150  HIS150      0.1154
     55  CE1       65.6280  -85.8560   25.5000 C.ar  150  HIS150      0.1986
     56  NE2       66.8190  -86.3290   25.8280 N.ar  150  HIS150     -0.2212
     57  N         65.1530  -80.7190   28.0710 N.am  151  MET151     -0.1963
     58  CA        64.0940  -79.9140   27.4690 C.3   151  MET151      0.1736
     59  C         64.3510  -79.6740   25.9820 C.2   151  MET151      0.2616
     60  O         65.4830  -79.4220   25.5640 O.2   151  MET151     -0.2715
     61  CB        63.9580  -78.5810   28.1810 C.3   151  MET151      0.0427
     62  CG        63.3610  -78.6440   29.6130 C.3   151  MET151      0.0599
     63  SD        61.6780  -79.3000   29.7200 S.3   151  MET151     -0.1393
     64  CE        62.0800  -81.0760   30.0040 C.3   151  MET151      0.0692
     65  N         63.2800  -79.7200   25.1740 N.am  152  VAL152     -0.1977
     66  CA        63.4250  -79.2590   23.7980 C.3   152  VAL152      0.1596
     67  C         63.0820  -77.7790   23.8240 C.2   152  VAL152      0.2287
     68  O         62.4440  -77.2940   24.7610 O.2   152  VAL152     -0.2864
     69  CB        62.5220  -80.0220   22.8230 C.3   152  VAL152      0.0276
     70  CG1       62.6920  -81.4710   22.9890 C.3   152  VAL152      0.0022
     71  CG2       61.0860  -79.6610   23.1000 C.3   152  VAL152      0.0022
     72  N         53.3080  -68.3580   32.3090 N.3   230  MET230     -0.1230
     73  CA        54.1330  -69.5440   32.4940 C.3   230  MET230      0.1702
     74  C         55.5950  -69.1480   32.5670 C.2   230  MET230      0.2592
     75  O         56.3510  -69.6200   33.4400 O.2   230  MET230     -0.2718
     76  CB        53.9180  -70.5710   31.3670 C.3   230  MET230      0.0401
     77  CG        52.4650  -71.0110   31.1700 C.3   230  MET230      0.0596
     78  SD        51.7410  -71.7390   32.6190 S.3   230  MET230     -0.1393
     79  CE        50.7910  -70.3000   33.2160 C.3   230  MET230      0.0692
     80  N         56.0100  -68.2570   31.6880 N.am  231  GLN231     -0.1979
     81  CA        57.4420  -67.9770   31.6290 C.3   231  GLN231      0.1601
     82  C         57.8420  -66.9410   32.6740 C.2   231  GLN231      0.2287
     83  O         59.0180  -66.9240   33.0760 O.2   231  GLN231     -0.2864
     84  CB        57.7890  -67.5380   30.2010 C.3   231  GLN231      0.0394
     85  CG        57.4280  -68.6210   29.1460 C.3   231  GLN231      0.0908
     86  CD        58.0300  -70.0250   29.5200 C.2   231  GLN231      0.2608
     87  OE1       59.1630  -70.3620   29.1180 O.2   231  GLN231     -0.2717
     88  NE2       57.3420  -70.7570   30.3460 N.am  231  GLN231     -0.0878
     89  N         58.5790  -69.4340   35.5140 N.3   234  MET234     -0.1245
     90  CA        59.8750  -70.0460   35.2780 C.3   234  MET234      0.1570
     91  C         61.0010  -69.0620   35.5500 C.2   234  MET234      0.2261
     92  O         62.0270  -69.4350   36.1290 O.2   234  MET234     -0.2867
     93  CB        59.9400  -70.5780   33.8460 C.3   234  MET234      0.0387
     94  CG        58.9780  -71.7290   33.5710 C.3   234  MET234      0.0595
     95  SD        59.0380  -73.0470   34.8180 S.3   234  MET234     -0.1393
     96  CE        60.7610  -73.5130   34.9230 C.3   234  MET234      0.0692
     97  N         61.5150  -68.5500   39.3490 N.3   237  ILE237     -0.1245
     98  CA        62.1370  -69.7480   39.9090 C.3   237  ILE237      0.1561
     99  C         63.6250  -69.7320   39.6250 C.2   237  ILE237      0.2260
    100  O         64.4670  -70.0070   40.5040 O.2   237  ILE237     -0.2867
    101  CB        61.4720  -71.0200   39.3380 C.3   237  ILE237      0.0252
    102  CG1       60.0500  -71.1510   39.8670 C.3   237  ILE237      0.0019
    103  CG2       62.2400  -72.2970   39.7000 C.3   237  ILE237      0.0019
    104  CD1       59.2470  -72.2820   39.1730 C.3   237  ILE237      0.0001
    105  N         61.7490  -75.5030   42.8900 N.3   244  ALA244     -0.1231
    106  CA        61.1430  -75.4820   41.5680 C.3   244  ALA244      0.1694
    107  C         59.8040  -76.2030   41.6630 C.2   244  ALA244      0.2592
    108  O         59.6380  -77.3230   41.2120 O.2   244  ALA244     -0.2718
    109  CB        62.0910  -76.1090   40.5460 C.3   244  ALA244      0.0304
    110  N         58.8790  -75.5420   42.3620 N.am  245  GLY245     -0.1957
    111  CA        57.5440  -76.0310   42.6150 C.3   245  GLY245      0.1869
    112  C         57.2210  -76.1170   44.0950 C.2   245  GLY245      0.2309
    113  O         57.1930  -77.2140   44.6510 O.2   245  GLY245     -0.2863
    114  N         54.9230  -70.3700   44.7550 N.3   249  ILE249     -0.1242
    115  CA        54.8830  -70.2090   43.3010 C.3   249  ILE249      0.1601
    116  C         53.4790  -70.0130   42.7420 C.2   249  ILE249      0.2264
    117  O         53.2860  -69.3390   41.7210 O.2   249  ILE249     -0.2867
    118  CB        55.6850  -71.3410   42.6570 C.3   249  ILE249      0.0472
    119  CG1       56.9450  -71.0150   43.3330 C.2   249  ILE249     -0.0246
    120  CG2       55.6710  -71.3730   41.1930 C.3   249  ILE249      0.0066
    121  CD1       58.0400  -71.4600   42.7960 C.2   249  ILE249     -0.0049
@<TRIPOS>BOND
     1    69    70    1
     2    69    71    1
     3    69    66    1
     4    66    67    1
     5    66    65    1
     6    67    68    2
     7    65    59   am
     8    55    56   ar
     9    55    53   ar
    10    60    59    2
    11     6     7    1
    12    56    54   ar
    13    59    58    1
    14     7     8    1
    15    53    52   ar
    16    54    52   ar
    17     4     3    2
    18     8    10   am
    19     8     9    2
    20    58    57    1
    21    58    61    1
    22    52    51    1
    23    50    49    2
    24    10    11    1
    25     3     2    1
    26    49    57   am
    27    49    48    1
    28    61    62    1
    29     1     2    1
    30    48    51    1
    31    48    47    1
    32     2     5    1
    33    14    11    1
    34    11    12    1
    35    87    86    2
    36    85    86    1
    37    85    84    1
    38    86    88   am
    39    62    63    1
    40    47    40   am
    41    63    64    1
    42    13    12    2
    43    12    15   am
    44    45    44   ar
    45    84    81    1
    46    40    41    2
    47    40    39    1
    48    44    46   ar
    49    44    43    1
    50    77    76    1
    51    77    78    1
    52    15    16    1
    53    76    73    1
    54    32    31    2
    55    81    80    1
    56    81    82    1
    57    80    74   am
    58    20    19    1
    59    43    42    1
    60    39    42    1
    61    39    38    1
    62    72    73    1
    63    16    19    1
    64    16    17    1
    65    73    74    1
    66    74    75    2
    67    31    38   am
    68    31    30    1
    69    78    79    1
    70    82    83    2
    71    19    21    1
    72    33    30    1
    73    33    34    1
    74    37    35   am
    75    94    93    1
    76    94    95    1
    77    30    29    1
    78    17    22   am
    79    17    18    2
    80    29    24   am
    81    22    23    1
    82    93    90    1
    83    35    36    2
    84    35    34    1
    85    24    23    1
    86    24    25    2
    87    95    96    1
    88    23    26    1
    89    90    89    1
    90    90    91    1
    91    91    92    2
    92    26    28    1
    93    26    27    1
    94   104   102    1
    95   101   103    1
    96   101   102    1
    97   101    98    1
    98    97    98    1
    99    99    98    1
   100    99   100    2
   101   109   106    1
   102   120   118    1
   103   108   107    2
   104   106   107    1
   105   106   105    1
   106   107   110   am
   107   117   116    2
   108   110   111    1
   109   111   112    1
   110   118   115    1
   111   118   119    1
   112   116   115    1
   113   121   119    2
   114   115   114    1
   115   112   113    2
