@<TRIPOS>MOLECULE
tmp/5a8wD02.pdb
 123 124 0 0 0
SMALL
GASTEIGER

@<TRIPOS>ATOM
      1  N         30.3460  -60.8070  -11.6660 N.3    63  VAL63      -0.1245
      2  CA        30.3810  -59.3840  -12.0770 C.3    63  VAL63       0.1561
      3  C         31.6110  -59.0850  -12.9280 C.2    63  VAL63       0.2260
      4  O         32.7510  -59.3950  -12.5080 O.2    63  VAL63      -0.2867
      5  CB        30.3450  -58.4530  -10.8340 C.3    63  VAL63       0.0252
      6  CG1       31.5060  -58.7030   -9.8520 C.3    63  VAL63       0.0019
      7  CG2       30.2990  -56.9610  -11.2720 C.3    63  VAL63       0.0019
      8  N         32.6040  -62.0560    9.8600 N.3   323  SER323     -0.1202
      9  CA        31.9410  -62.2830    8.5720 C.3   323  SER323      0.2020
     10  C         32.8820  -63.0370    7.6520 C.2   323  SER323      0.2619
     11  O         32.8730  -64.2590    7.6370 O.2   323  SER323     -0.2717
     12  CB        31.4490  -60.9460    7.9290 C.3   323  SER323      0.2103
     13  OG        32.5220  -60.0690    7.6240 O.3   323  SER323     -0.2182
     14  N         33.7010  -62.3470    6.8720 N.am  324  GLY324     -0.1942
     15  CA        34.6850  -63.0250    6.0470 C.3   324  GLY324      0.2014
     16  C         34.3230  -62.9370    4.5630 C.2   324  GLY324      0.2639
     17  O         33.2270  -62.5440    4.1770 O.2   324  GLY324     -0.2714
     18  N         35.2830  -63.3590    3.7330 N.am  325  GLY325     -0.1939
     19  CA        35.1400  -63.2340    2.2990 C.3   325  GLY325      0.2014
     20  C         35.9250  -62.0750    1.7270 C.2   325  GLY325      0.2639
     21  O         36.9580  -61.6620    2.2540 O.2   325  GLY325     -0.2714
     22  N         35.4320  -61.4990    0.6430 N.am  326  VAL326     -0.1963
     23  CA        36.0350  -60.2700    0.1470 C.3   326  VAL326      0.1727
     24  C         36.0930  -59.2210    1.2640 C.2   326  VAL326      0.2617
     25  O         37.0920  -58.5330    1.4140 O.2   326  VAL326     -0.2715
     26  CB        35.2480  -59.7780   -1.1050 C.3   326  VAL326      0.0290
     27  CG1       35.6040  -58.3320   -1.5040 C.3   326  VAL326      0.0023
     28  CG2       35.5500  -60.6960   -2.2980 C.3   326  VAL326      0.0023
     29  N         35.0650  -59.1490    2.1280 N.am  327  GLY327     -0.1940
     30  CA        35.1740  -58.3090    3.3280 C.3   327  GLY327      0.2014
     31  C         34.9680  -56.8100    3.1090 C.2   327  GLY327      0.2639
     32  O         34.2580  -56.3630    2.1770 O.2   327  GLY327     -0.2714
     33  N         35.6230  -56.0090    3.9750 N.am  328  PHE328     -0.1959
     34  CA        35.1720  -54.6470    4.1930 C.3   328  PHE328      0.1771
     35  C         36.3060  -53.6680    4.0180 C.2   328  PHE328      0.2620
     36  O         36.4290  -52.7220    4.7930 O.2   328  PHE328     -0.2715
     37  CB        34.5540  -54.4840    5.6000 C.3   328  PHE328      0.0574
     38  CG        33.3120  -55.3390    5.8390 C.ar  328  PHE328     -0.0200
     39  CD1       32.4210  -55.5880    4.7800 C.ar  328  PHE328     -0.0042
     40  CD2       33.0560  -55.8990    7.1130 C.ar  328  PHE328     -0.0042
     41  CE1       31.2900  -56.3170    4.9530 C.ar  328  PHE328     -0.0003
     42  CE2       31.8840  -56.6700    7.3090 C.ar  328  PHE328     -0.0003
     43  CZ        31.0110  -56.8730    6.2010 C.ar  328  PHE328     -0.0000
     44  N         37.2040  -53.9090    3.0470 N.am  329  THR329     -0.1937
     45  CA        38.3450  -53.0270    2.8830 C.3   329  THR329      0.2028
     46  C         37.9330  -51.5570    2.7380 C.2   329  THR329      0.2642
     47  O         38.4280  -50.6890    3.4700 O.2   329  THR329     -0.2714
     48  CB        39.1720  -53.4610    1.6790 C.3   329  THR329      0.1808
     49  OG1       39.5380  -54.8430    1.8260 O.3   329  THR329     -0.2208
     50  CG2       40.4280  -52.5670    1.5880 C.3   329  THR329      0.0379
     51  N         37.0220  -51.2500    1.7780 N.am  330  GLN330     -0.1963
     52  CA        36.6920  -49.8790    1.4280 C.3   330  GLN330      0.1733
     53  C         35.6980  -49.2400    2.3880 C.2   330  GLN330      0.2616
     54  O         35.6840  -48.0110    2.5010 O.2   330  GLN330     -0.2715
     55  CB        36.1620  -49.8160   -0.0160 C.3   330  GLN330      0.0408
     56  CG        37.2930  -50.1530   -1.0480 C.3   330  GLN330      0.0908
     57  CD        36.7890  -50.5450   -2.4370 C.2   330  GLN330      0.2608
     58  OE1       37.1850  -49.9200   -3.4690 O.2   330  GLN330     -0.2717
     59  NE2       35.9600  -51.6240   -2.4990 N.am  330  GLN330     -0.0878
     60  N         34.9040  -50.0200    3.1130 N.am  331  TYR331     -0.1974
     61  CA        34.2090  -49.4150    4.2550 C.3   331  TYR331      0.1639
     62  C         35.2160  -48.7560    5.1930 C.2   331  TYR331      0.2290
     63  O         34.9320  -47.7100    5.7920 O.2   331  TYR331     -0.2864
     64  CB        33.4370  -50.4770    5.0570 C.3   331  TYR331      0.0560
     65  CG        32.0990  -50.8390    4.4870 C.ar  331  TYR331     -0.0198
     66  CD1       31.1710  -49.8370    4.1300 C.ar  331  TYR331     -0.0009
     67  CD2       31.7460  -52.1710    4.3520 C.ar  331  TYR331     -0.0009
     68  CE1       29.8990  -50.2180    3.6290 C.ar  331  TYR331      0.0417
     69  CE2       30.5430  -52.5660    3.8770 C.ar  331  TYR331      0.0417
     70  CZ        29.5900  -51.5850    3.5170 C.ar  331  TYR331      0.1957
     71  OH        28.3590  -51.9770    3.0240 O.3   331  TYR331     -0.2866
     72  N         31.7880  -43.9390   -2.8510 N.3   394  PHE394     -0.1227
     73  CA        30.6290  -44.2860   -3.6550 C.3   394  PHE394      0.1736
     74  C         29.5160  -44.9090   -2.8310 C.2   394  PHE394      0.2596
     75  O         28.3650  -44.8450   -3.2530 O.2   394  PHE394     -0.2718
     76  CB        31.0170  -45.2210   -4.7850 C.3   394  PHE394      0.0547
     77  CG        31.6820  -46.5460   -4.3370 C.ar  394  PHE394     -0.0202
     78  CD1       30.8960  -47.6720   -3.9820 C.ar  394  PHE394     -0.0042
     79  CD2       33.0610  -46.6780   -4.3450 C.ar  394  PHE394     -0.0042
     80  CE1       31.4820  -48.8530   -3.6200 C.ar  394  PHE394     -0.0003
     81  CE2       33.6720  -47.8860   -3.9600 C.ar  394  PHE394     -0.0003
     82  CZ        32.8780  -48.9730   -3.5990 C.ar  394  PHE394     -0.0000
     83  N         29.8150  -45.4870   -1.6690 N.am  395  GLY395     -0.1942
     84  CA        28.7870  -46.1180   -0.8380 C.3   395  GLY395      0.2014
     85  C         28.3700  -45.1440    0.2540 C.2   395  GLY395      0.2639
     86  O         29.2170  -44.4890    0.8700 O.2   395  GLY395     -0.2714
     87  N         27.0480  -45.0140    0.4570 N.am  396  GLY396     -0.1939
     88  CA        26.5570  -44.1160    1.4850 C.3   396  GLY396      0.2014
     89  C         27.1700  -44.3350    2.8600 C.2   396  GLY396      0.2639
     90  O         27.3070  -43.3920    3.6420 O.2   396  GLY396     -0.2714
     91  N         27.4580  -45.5850    3.2230 N.am  397  SER397     -0.1949
     92  CA        27.9120  -45.8510    4.5530 C.3   397  SER397      0.1924
     93  C         29.2390  -45.0880    4.7830 C.2   397  SER397      0.2314
     94  O         29.5030  -44.5590    5.8450 O.2   397  SER397     -0.2863
     95  CB        28.1480  -47.3320    4.7420 C.3   397  SER397      0.2116
     96  OG        26.9820  -48.0550    4.4770 O.3   397  SER397     -0.2180
     97  N         23.2010  -45.2080    4.8750 N.3   439  GLY439     -0.1210
     98  CA        24.1630  -46.2480    4.5250 C.3   439  GLY439      0.1956
     99  C         23.5110  -47.5020    3.9910 C.2   439  GLY439      0.2612
    100  O         22.4200  -47.4260    3.3900 O.2   439  GLY439     -0.2717
    101  N         24.1470  -48.6520    4.2570 N.am  440  PHE440     -0.1962
    102  CA        23.6580  -49.9340    3.7860 C.3   440  PHE440      0.1771
    103  C         22.4050  -50.3030    4.5560 C.2   440  PHE440      0.2619
    104  O         21.9530  -49.5800    5.4690 O.2   440  PHE440     -0.2715
    105  CB        24.7580  -51.0000    3.8760 C.3   440  PHE440      0.0574
    106  CG        25.0670  -51.4340    5.2910 C.ar  440  PHE440     -0.0200
    107  CD1       25.9990  -50.7560    6.0520 C.ar  440  PHE440     -0.0042
    108  CD2       24.4310  -52.5490    5.8240 C.ar  440  PHE440     -0.0042
    109  CE1       26.2750  -51.1460    7.4010 C.ar  440  PHE440     -0.0003
    110  CE2       24.6410  -52.9100    7.1490 C.ar  440  PHE440     -0.0003
    111  CZ        25.5600  -52.2070    7.9170 C.ar  440  PHE440     -0.0000
    112  N         21.8020  -51.4110    4.1540 N.am  441  TYR441     -0.1974
    113  CA        20.4950  -51.8090    4.7160 C.3   441  TYR441      0.1639
    114  C         20.4250  -51.6720    6.2350 C.2   441  TYR441      0.2290
    115  O         19.4370  -51.2540    6.7820 O.2   441  TYR441     -0.2864
    116  CB        20.2190  -53.2670    4.3460 C.3   441  TYR441      0.0560
    117  CG        18.8360  -53.6860    3.9390 C.ar  441  TYR441     -0.0198
    118  CD1       17.7080  -53.2180    4.5910 C.ar  441  TYR441     -0.0009
    119  CD2       18.6590  -54.6320    2.9240 C.ar  441  TYR441     -0.0009
    120  CE1       16.4140  -53.6440    4.1960 C.ar  441  TYR441      0.0417
    121  CE2       17.3920  -55.0390    2.5290 C.ar  441  TYR441      0.0417
    122  CZ        16.2750  -54.5680    3.1720 C.ar  441  TYR441      0.1957
    123  OH        15.0100  -55.0220    2.7650 O.3   441  TYR441     -0.2866
@<TRIPOS>BOND
     1     3     4    2
     2     3     2    1
     3     2     1    1
     4     2     5    1
     5     7     5    1
     6     5     6    1
     7    76    77    1
     8    76    73    1
     9    79    77   ar
    10    79    81   ar
    11    77    78   ar
    12    78    80   ar
    13    81    82   ar
    14    73    72    1
    15    73    74    1
    16    80    82   ar
    17    58    57    2
    18    75    74    2
    19    74    83   am
    20    59    57   am
    21    57    56    1
    22    28    26    1
    23    83    84    1
    24    27    26    1
    25    26    23    1
    26    56    55    1
    27    84    85    1
    28    55    52    1
    29    23    22    1
    30    23    24    1
    31    85    87   am
    32    85    86    2
    33    87    88    1
    34    22    20   am
    35    24    25    2
    36    24    29   am
    37    52    51    1
    38    52    53    1
    39    88    89    1
    40    50    48    1
    41    48    49    1
    42    48    45    1
    43    20    21    2
    44    20    19    1
    45    51    46   am
    46    29    30    1
    47    32    31    2
    48    19    18    1
    49    53    54    2
    50    53    60   am
    51   121   119   ar
    52   121   122   ar
    53    46    45    1
    54    46    47    2
    55   123   122    1
    56    89    91   am
    57    89    90    2
    58    45    44    1
    59   119   117   ar
    60    71    70    1
    61    44    35   am
    62    31    30    1
    63    31    33   am
    64    60    61    1
    65   122   120   ar
    66    91    92    1
    67   100    99    2
    68    70    68   ar
    69    70    69   ar
    70    68    66   ar
    71    18    16   am
    72   102   105    1
    73   102   101    1
    74   102   103    1
    75   105   106    1
    76    69    67   ar
    77   117   116    1
    78   117   118   ar
    79    33    34    1
    80    99   101   am
    81    99    98    1
    82    35    34    1
    83    35    36    2
    84    66    65   ar
    85   112   103   am
    86   112   113    1
    87    17    16    2
    88    34    37    1
    89   120   118   ar
    90    61    64    1
    91    61    62    1
    92   116   113    1
    93    67    65   ar
    94    96    95    1
    95    65    64    1
    96    98    97    1
    97    92    95    1
    98    92    93    1
    99   103   104    2
   100    16    15    1
   101   113   114    1
   102    39    41   ar
   103    39    38   ar
   104    93    94    2
   105    41    43   ar
   106    62    63    2
   107   106   108   ar
   108   106   107   ar
   109    37    38    1
   110   108   110   ar
   111    38    40   ar
   112    15    14    1
   113   107   109   ar
   114    43    42   ar
   115   114   115    2
   116    14    10   am
   117    40    42   ar
   118   110   111   ar
   119   109   111   ar
   120    13    12    1
   121    11    10    2
   122    10     9    1
   123    12     9    1
   124     9     8    1
