@<TRIPOS>MOLECULE
tmp/5a8xA02.pdb
 156 153 0 0 0
SMALL
GASTEIGER

@<TRIPOS>ATOM
      1  N         21.5900  -22.4430    8.6690 N.3    41  HIS41      -0.1241
      2  CA        22.5920  -21.4580    8.2310 C.3    41  HIS41       0.1621
      3  C         22.0540  -20.3660    7.2820 C.2    41  HIS41       0.2264
      4  O         22.6460  -19.2830    7.1850 O.2    41  HIS41      -0.2867
      5  CB        23.8530  -22.1390    7.6670 C.3    41  HIS41       0.0745
      6  CG        23.7500  -22.5960    6.2340 C.ar   41  HIS41       0.0817
      7  ND1       23.4090  -23.8850    5.8870 N.ar   41  HIS41      -0.2268
      8  CD2       24.0230  -21.9570    5.0660 C.ar   41  HIS41       0.1154
      9  CE1       23.4360  -24.0110    4.5720 C.ar   41  HIS41       0.1986
     10  NE2       23.8060  -22.8570    4.0490 N.ar   41  HIS41      -0.2212
     11  N         20.7430  -17.5790    9.8280 N.3    44  ALA44      -0.1231
     12  CA        21.6410  -17.1210   10.8720 C.3    44  ALA44       0.1694
     13  C         22.2500  -15.8010   10.4100 C.2    44  ALA44       0.2592
     14  O         22.7880  -15.7280    9.3090 O.2    44  ALA44      -0.2718
     15  CB        22.7270  -18.1600   11.1500 C.3    44  ALA44       0.0304
     16  N         22.1430  -14.7650   11.2380 N.am   45  ASN45      -0.1974
     17  CA        22.5990  -13.3960   10.8950 C.3    45  ASN45       0.1688
     18  C         21.7250  -12.6770    9.8740 C.2    45  ASN45       0.2292
     19  O         22.0910  -11.6200    9.3700 O.2    45  ASN45      -0.2864
     20  CB        24.0730  -13.3670   10.4620 C.3    45  ASN45       0.1181
     21  CG        24.9780  -13.9800   11.4890 C.2    45  ASN45       0.2629
     22  OD1       24.9390  -13.5980   12.6620 O.2    45  ASN45      -0.2716
     23  ND2       25.7840  -14.9560   11.0730 N.am   45  ASN45      -0.0877
     24  N         21.0610  -26.0280   16.0710 N.3    80  TYR80      -0.1227
     25  CA        22.0060  -25.6110   15.0220 C.3    80  TYR80       0.1736
     26  C         23.4100  -25.3770   15.5960 C.2    80  TYR80       0.2595
     27  O         23.5980  -24.5680   16.5010 O.2    80  TYR80      -0.2718
     28  CB        21.4810  -24.3290   14.3610 C.3    80  TYR80       0.0548
     29  CG        22.4400  -23.6310   13.4050 C.ar   80  TYR80      -0.0200
     30  CD1       23.1580  -24.3490   12.4440 C.ar   80  TYR80      -0.0009
     31  CD2       22.5960  -22.2460   13.4460 C.ar   80  TYR80      -0.0009
     32  CE1       24.0100  -23.7100   11.5740 C.ar   80  TYR80       0.0417
     33  CE2       23.4550  -21.5980   12.5670 C.ar   80  TYR80       0.0417
     34  CZ        24.1550  -22.3440   11.6470 C.ar   80  TYR80       0.1957
     35  OH        25.0050  -21.7170   10.7980 O.3    80  TYR80      -0.2866
     36  N         24.3810  -26.1200   15.0860 N.am   81  ASP81      -0.1960
     37  CA        25.7460  -26.0540   15.5840 C.3    81  ASP81       0.1825
     38  C         26.6670  -25.7940   14.4050 C.2    81  ASP81       0.2464
     39  O         27.1060  -26.7460   13.7740 O.2    81  ASP81      -0.2730
     40  CB        26.1210  -27.3690   16.2680 C.3    81  ASP81       0.1450
     41  CG        27.5360  -27.3650   16.8190 C.2    81  ASP81       0.3671
     42  OD1       28.1250  -26.2730   16.9910 O.co2  81  ASP81      -0.2456
     43  OD2       28.0570  -28.4630   17.0990 O.co2  81  ASP81      -0.2456
     44  N         26.9350  -24.5060   14.0880 N.am   82  PRO82      -0.2727
     45  CA        27.7820  -24.1290   12.9430 C.3    82  PRO82       0.1402
     46  C         29.2610  -24.5310   13.0440 C.2    82  PRO82       0.2269
     47  O         29.9100  -24.6940   12.0120 O.2    82  PRO82      -0.2865
     48  CB        27.6140  -22.6000   12.8480 C.3    82  PRO82       0.0296
     49  CG        27.1300  -22.1650   14.1910 C.3    82  PRO82       0.0237
     50  CD        26.3930  -23.3290   14.7920 C.3    82  PRO82       0.0939
     51  N         28.9100  -28.1120   12.1460 N.3    85  LEU85      -0.1231
     52  CA        28.0500  -28.1790   10.9500 C.3    85  LEU85       0.1693
     53  C         26.9500  -29.2200   11.1350 C.2    85  LEU85       0.2591
     54  O         26.7590  -30.0810   10.2850 O.2    85  LEU85      -0.2718
     55  CB        28.8650  -28.4610    9.6750 C.3    85  LEU85       0.0284
     56  CG        29.9900  -27.4770    9.3400 C.3    85  LEU85       0.0019
     57  CD1       31.2090  -28.2110    8.8040 C.3    85  LEU85       0.0001
     58  CD2       29.5180  -26.4480    8.3440 C.3    85  LEU85       0.0001
     59  N         26.2600  -29.1340   12.2750 N.am   86  LEU86      -0.1980
     60  CA        25.2900  -30.1420   12.7010 C.3    86  LEU86       0.1596
     61  C         23.9520  -29.4980   12.9570 C.2    86  LEU86       0.2287
     62  O         23.8810  -28.3010   13.2240 O.2    86  LEU86      -0.2864
     63  CB        25.7590  -30.8540   13.9700 C.3    86  LEU86       0.0297
     64  CG        26.9420  -31.8100   13.8790 C.3    86  LEU86       0.0022
     65  CD1       27.4490  -32.1110   15.2760 C.3    86  LEU86       0.0001
     66  CD2       26.5460  -33.0950   13.1520 C.3    86  LEU86       0.0001
     67  N         21.4460  -28.7590   10.9460 N.3    88  ASP88      -0.1239
     68  CA        21.2810  -27.6200   10.0510 C.3    88  ASP88       0.1674
     69  C         19.8580  -27.5970    9.5220 C.2    88  ASP88       0.2266
     70  O         19.6060  -27.7600    8.3190 O.2    88  ASP88      -0.2867
     71  CB        22.3300  -27.6540    8.9220 C.3    88  ASP88       0.1410
     72  CG        22.4610  -26.3230    8.1930 C.2    88  ASP88       0.3668
     73  OD1       21.8780  -25.3260    8.6450 O.co2  88  ASP88      -0.2456
     74  OD2       23.1730  -26.2630    7.1680 O.co2  88  ASP88      -0.2456
     75  N         25.6990  -29.2780   -5.7380 N.3   165  VAL165     -0.1231
     76  CA        25.0140  -28.0710   -5.2550 C.3   165  VAL165      0.1692
     77  C         26.0510  -26.9510   -5.0650 C.2   165  VAL165      0.2592
     78  O         27.2670  -27.2230   -4.9990 O.2   165  VAL165     -0.2718
     79  CB        24.2500  -28.3220   -3.9260 C.3   165  VAL165      0.0266
     80  CG1       23.2110  -29.4280   -4.0950 C.3   165  VAL165      0.0020
     81  CG2       25.2040  -28.6710   -2.8050 C.3   165  VAL165      0.0020
     82  N         25.5710  -25.7110   -4.9780 N.am  166  CYS166     -0.1956
     83  CA        26.4430  -24.5600   -4.8330 C.3   166  CYS166      0.1843
     84  C         25.7620  -23.4710   -4.0280 C.2   166  CYS166      0.2625
     85  O         24.6870  -23.6830   -3.4530 O.2   166  CYS166     -0.2714
     86  CB        26.8830  -24.0310   -6.2170 C.3   166  CYS166      0.0997
     87  SG        28.4690  -23.0970   -6.2360 S.3   166  CYS166     -0.0797
     88  N         26.3930  -22.3000   -3.9920 N.am  167  PHE167     -0.1960
     89  CA        25.9010  -21.1770   -3.2010 C.3   167  PHE167      0.1771
     90  C         24.5360  -20.7380   -3.7190 C.2   167  PHE167      0.2620
     91  O         24.3390  -20.5310   -4.9330 O.2   167  PHE167     -0.2715
     92  CB        26.9190  -20.0180   -3.2130 C.3   167  PHE167      0.0574
     93  CG        28.2070  -20.3190   -2.4520 C.ar  167  PHE167     -0.0200
     94  CD1       28.2760  -20.1260   -1.0690 C.ar  167  PHE167     -0.0042
     95  CD2       29.3380  -20.7790   -3.1230 C.ar  167  PHE167     -0.0042
     96  CE1       29.4490  -20.4000   -0.3470 C.ar  167  PHE167     -0.0003
     97  CE2       30.5260  -21.0670   -2.4260 C.ar  167  PHE167     -0.0003
     98  CZ        30.5830  -20.8830   -1.0270 C.ar  167  PHE167     -0.0000
     99  N         23.5950  -20.5920   -2.7950 N.am  168  GLY168     -0.1940
    100  CA        22.1940  -20.3180   -3.1530 C.3   168  GLY168      0.2014
    101  C         21.3150  -21.5550   -3.1870 C.2   168  GLY168      0.2639
    102  O         20.0870  -21.4300   -3.2070 O.2   168  GLY168     -0.2714
    103  N         21.9260  -22.7460   -3.1850 N.am  169  ASP169     -0.1957
    104  CA        21.1630  -24.0040   -3.0850 C.3   169  ASP169      0.1840
    105  C         20.8780  -24.4200   -1.6530 C.2   169  ASP169      0.2622
    106  O         20.0760  -25.3320   -1.4210 O.2   169  ASP169     -0.2715
    107  CB        21.8540  -25.1490   -3.8250 C.3   169  ASP169      0.1450
    108  CG        21.8840  -24.9380   -5.3020 C.2   169  ASP169      0.3671
    109  OD1       20.8550  -24.5070   -5.8540 O.co2 169  ASP169     -0.2456
    110  OD2       22.9370  -25.1830   -5.9230 O.co2 169  ASP169     -0.2456
    111  N         21.5600  -23.7680   -0.7100 N.am  170  SER170     -0.1950
    112  CA        21.3740  -23.9850    0.7230 C.3   170  SER170      0.1924
    113  C         19.8850  -24.0110    1.0810 C.2   170  SER170      0.2314
    114  O         19.1150  -23.1650    0.6000 O.2   170  SER170     -0.2863
    115  CB        22.0460  -22.8430    1.4890 C.3   170  SER170      0.2116
    116  OG        23.4650  -22.8500    1.3420 O.3   170  SER170     -0.2180
    117  N         19.9090  -29.2270    1.7520 N.3   184  ALA184     -0.1231
    118  CA        21.2800  -28.8570    1.3460 C.3   184  ALA184      0.1694
    119  C         21.9800  -28.0250    2.4200 C.2   184  ALA184      0.2593
    120  O         21.5180  -26.9240    2.7810 O.2   184  ALA184     -0.2718
    121  CB        21.2780  -28.1360    0.0170 C.3   184  ALA184      0.0304
    122  N         23.0750  -28.5820    2.9350 N.am  185  SER185     -0.1938
    123  CA        23.7790  -28.0420    4.0960 C.3   185  SER185      0.2055
    124  C         25.2020  -27.5430    3.7850 C.2   185  SER185      0.2643
    125  O         25.5160  -26.3860    4.0840 O.2   185  SER185     -0.2714
    126  CB        23.8100  -29.0550    5.2420 C.3   185  SER185      0.2130
    127  OG        24.4070  -28.4870    6.4100 O.3   185  SER185     -0.2179
    128  N         26.0620  -28.3810    3.2000 N.am  186  PHE186     -0.1959
    129  CA        27.4490  -27.9290    2.9640 C.3   186  PHE186      0.1771
    130  C         28.2800  -28.6420    1.9060 C.2   186  PHE186      0.2619
    131  O         28.1030  -29.8250    1.6240 O.2   186  PHE186     -0.2715
    132  CB        28.2550  -27.7430    4.2840 C.3   186  PHE186      0.0574
    133  CG        28.5830  -29.0270    5.0150 C.ar  186  PHE186     -0.0200
    134  CD1       29.7640  -29.7180    4.7500 C.ar  186  PHE186     -0.0042
    135  CD2       27.7220  -29.5190    6.0100 C.ar  186  PHE186     -0.0042
    136  CE1       30.0730  -30.8860    5.4390 C.ar  186  PHE186     -0.0003
    137  CE2       28.0230  -30.6990    6.7120 C.ar  186  PHE186     -0.0003
    138  CZ        29.2050  -31.3820    6.4320 C.ar  186  PHE186     -0.0000
    139  N         29.1990  -27.8800    1.3190 N.am  187  VAL187     -0.1977
    140  CA        30.1410  -28.4020    0.3400 C.3   187  VAL187      0.1596
    141  C         31.5900  -28.3470    0.8670 C.2   187  VAL187      0.2287
    142  O         31.9290  -27.5330    1.7290 O.2   187  VAL187     -0.2864
    143  CB        30.0240  -27.6450   -0.9990 C.3   187  VAL187      0.0276
    144  CG1       28.5950  -27.7800   -1.5660 C.3   187  VAL187      0.0022
    145  CG2       30.4290  -26.1910   -0.8280 C.3   187  VAL187      0.0022
    146  N         32.4310  -25.8760   -4.7480 N.3   191  CYS191     -0.1235
    147  CA        31.3110  -26.5310   -5.4170 C.3   191  CYS191      0.1677
    148  C         31.8010  -27.4860   -6.4940 C.2   191  CYS191      0.2270
    149  O         32.7820  -27.2070   -7.1710 O.2   191  CYS191     -0.2867
    150  CB        30.3800  -25.4970   -6.0600 C.3   191  CYS191      0.0956
    151  SG        29.7650  -24.1870   -4.9880 S.3   191  CYS191     -0.0801
    152  N         26.9550  -32.3900    1.3470 N.3   199  ALA199     -0.1245
    153  CA        26.3590  -32.8070    2.5980 C.3   199  ALA199      0.1562
    154  C         25.0150  -32.1010    2.8480 C.2   199  ALA199      0.2260
    155  O         24.9040  -30.8730    2.6930 O.2   199  ALA199     -0.2867
    156  CB        27.3160  -32.5670    3.7300 C.3   199  ALA199      0.0290
@<TRIPOS>BOND
     1   149   148    2
     2   148   147    1
     3    87    86    1
     4    87   151    1
     5    86    83    1
     6   150   147    1
     7   150   151    1
     8   110   108   ar
     9   109   108   ar
    10    75    76    1
    11   147   146    1
    12   108   107    1
    13    76    77    1
    14    76    79    1
    15    77    78    2
    16    77    82   am
    17    82    83    1
    18    91    90    2
    19    83    84    1
    20    80    79    1
    21    84    88   am
    22    84    85    2
    23    88    89    1
    24    79    81    1
    25   107   104    1
    26    90    89    1
    27    90    99   am
    28    92    89    1
    29    92    93    1
    30   102   101    2
    31   101   103   am
    32   101   100    1
    33   103   104    1
    34   100    99    1
    35    95    93   ar
    36    95    97   ar
    37   104   105    1
    38    93    94   ar
    39    97    98   ar
    40   105   106    2
    41   105   111   am
    42   144   143    1
    43    94    96   ar
    44    98    96   ar
    45   143   145    1
    46   143   140    1
    47   111   112    1
    48   121   118    1
    49   140   141    1
    50   140   139    1
    51   114   113    2
    52   112   113    1
    53   112   115    1
    54   141   142    2
    55   139   130   am
    56   116   115    1
    57   118   117    1
    58   118   119    1
    59   152   153    1
    60   131   130    2
    61   130   129    1
    62   119   120    2
    63   119   122   am
    64   153   154    1
    65   153   156    1
    66   155   154    2
    67   122   123    1
    68   129   128    1
    69   129   132    1
    70   128   124   am
    71   124   125    2
    72   124   123    1
    73    10     9   ar
    74    10     8   ar
    75   123   126    1
    76   132   133    1
    77     9     7   ar
    78   134   133   ar
    79   134   136   ar
    80   133   135   ar
    81     8     6   ar
    82   126   127    1
    83   136   138   ar
    84     7     6   ar
    85   135   137   ar
    86     6     5    1
    87   138   137   ar
    88    74    72   ar
    89     4     3    2
    90     3     2    1
    91     5     2    1
    92    72    73   ar
    93    72    71    1
    94     2     1    1
    95    70    69    2
    96    58    56    1
    97    57    56    1
    98    71    68    1
    99    14    13    2
   100    56    55    1
   101    19    18    2
   102    69    68    1
   103    55    52    1
   104    11    12    1
   105    18    17    1
   106    68    67    1
   107    54    53    2
   108    13    12    1
   109    13    16   am
   110    20    17    1
   111    20    21    1
   112    35    34    1
   113    12    15    1
   114    17    16    1
   115    52    53    1
   116    52    51    1
   117    23    21   am
   118    53    59   am
   119    21    22    2
   120    32    34   ar
   121    32    30   ar
   122    34    33   ar
   123    47    46    2
   124    59    60    1
   125    30    29   ar
   126    33    31   ar
   127    60    61    1
   128    60    63    1
   129    48    45    1
   130    48    49    1
   131    45    46    1
   132    45    44    1
   133    61    62    2
   134    66    64    1
   135    29    31   ar
   136    29    28    1
   137    39    38    2
   138    64    63    1
   139    64    65    1
   140    44    38   am
   141    44    50    1
   142    49    50    1
   143    28    25    1
   144    38    37    1
   145    25    26    1
   146    25    24    1
   147    36    37    1
   148    36    26   am
   149    37    40    1
   150    26    27    2
   151    40    41    1
   152    41    42   ar
   153    41    43   ar
