@<TRIPOS>MOLECULE
tmp/5a8yA02.pdb
 150 147 0 0 0
SMALL
GASTEIGER

@<TRIPOS>ATOM
      1  N         -8.3770   29.5810   -8.3210 N.3    41  HIS41      -0.1241
      2  CA        -7.0160   29.9580   -7.8960 C.3    41  HIS41       0.1621
      3  C         -6.3580   28.9350   -6.9690 C.2    41  HIS41       0.2264
      4  O         -5.1280   28.9500   -6.8330 O.2    41  HIS41      -0.2867
      5  CB        -6.9080   31.4110   -7.3410 C.3    41  HIS41       0.0745
      6  CG        -7.3710   31.5660   -5.9230 C.ar   41  HIS41       0.0817
      7  ND1       -8.6420   31.9720   -5.6170 N.ar   41  HIS41      -0.2268
      8  CD2       -6.7420   31.3630   -4.7310 C.ar   41  HIS41       0.1154
      9  CE1       -8.7860   32.0250   -4.3000 C.ar   41  HIS41       0.1986
     10  NE2       -7.6400   31.6900   -3.7420 N.ar   41  HIS41      -0.2212
     11  N        -11.7750   30.8720  -15.9880 N.3    80  TYR80      -0.1227
     12  CA       -10.9980   31.4580  -14.9150 C.3    80  TYR80       0.1736
     13  C        -10.1290   32.5600  -15.4770 C.2    80  TYR80       0.2595
     14  O         -9.3330   32.3120  -16.3890 O.2    80  TYR80      -0.2718
     15  CB       -10.0610   30.3870  -14.2950 C.3    80  TYR80       0.0548
     16  CG        -9.1530   30.9380  -13.2090 C.ar   80  TYR80      -0.0200
     17  CD1       -9.6310   31.8550  -12.2950 C.ar   80  TYR80      -0.0009
     18  CD2       -7.8140   30.5290  -13.1020 C.ar   80  TYR80      -0.0009
     19  CE1       -8.8500   32.3430  -11.3070 C.ar   80  TYR80       0.0417
     20  CE2       -7.0180   31.0280  -12.0830 C.ar   80  TYR80       0.0417
     21  CZ        -7.5470   31.9420  -11.2130 C.ar   80  TYR80       0.1957
     22  OH        -6.8160   32.4740  -10.1920 O.3    80  TYR80      -0.2866
     23  N        -10.2590   33.7530  -14.9120 N.am   81  ASP81      -0.1960
     24  CA        -9.5560   34.9380  -15.3950 C.3    81  ASP81       0.1825
     25  C         -8.8730   35.6290  -14.2240 C.2    81  ASP81       0.2464
     26  O         -9.4550   36.5230  -13.6090 O.2    81  ASP81      -0.2730
     27  CB       -10.5710   35.8560  -16.1330 C.3    81  ASP81       0.1450
     28  CG        -9.9400   37.1470  -16.6910 C.2    81  ASP81       0.3671
     29  OD1       -8.8220   37.5610  -16.2760 O.co2  81  ASP81      -0.2456
     30  OD2      -10.6180   37.7780  -17.5400 O.co2  81  ASP81      -0.2456
     31  N         -7.6340   35.1890  -13.8750 N.am   82  PRO82      -0.2727
     32  CA        -7.0140   35.7090  -12.6610 C.3    82  PRO82       0.1402
     33  C         -6.7050   37.1990  -12.7360 C.2    82  PRO82       0.2269
     34  O         -6.7950   37.8820  -11.6990 O.2    82  PRO82      -0.2865
     35  CB        -5.7160   34.8840  -12.5200 C.3    82  PRO82       0.0296
     36  CG        -5.4340   34.3510  -13.9090 C.3    82  PRO82       0.0237
     37  CD        -6.8020   34.1610  -14.5420 C.3    82  PRO82       0.0939
     38  N         -9.7530   38.8910  -11.9010 N.3    85  LEU85      -0.1231
     39  CA       -10.3430   38.2070  -10.7270 C.3    85  LEU85       0.1693
     40  C        -11.7590   37.7310  -10.9920 C.2    85  LEU85       0.2591
     41  O        -12.6550   37.9280  -10.1490 O.2    85  LEU85      -0.2718
     42  CB       -10.2990   39.0650   -9.4510 C.3    85  LEU85       0.0284
     43  CG        -8.9710   39.7120   -9.0510 C.3    85  LEU85       0.0019
     44  CD1       -9.1770   40.7330   -7.9760 C.3    85  LEU85       0.0001
     45  CD2       -7.9570   38.6500   -8.5880 C.3    85  LEU85       0.0001
     46  N        -11.9470   37.0500  -12.1170 N.am   86  LEU86      -0.1980
     47  CA       -13.2760   36.6410  -12.6040 C.3    86  LEU86       0.1596
     48  C        -13.3680   35.1460  -12.7580 C.2    86  LEU86       0.2287
     49  O        -12.3660   34.5170  -13.0620 O.2    86  LEU86      -0.2864
     50  CB       -13.5830   37.2820  -13.9590 C.3    86  LEU86       0.0297
     51  CG       -13.7800   38.8020  -13.7790 C.3    86  LEU86       0.0022
     52  CD1      -13.8050   39.5480  -15.1310 C.3    86  LEU86       0.0001
     53  CD2      -15.0690   39.0010  -12.9890 C.3    86  LEU86       0.0001
     54  N        -13.8030   32.6540  -10.6770 N.3    88  ASP88      -0.1239
     55  CA       -12.9400   31.9120   -9.7600 C.3    88  ASP88       0.1674
     56  C        -13.6500   30.6490   -9.2330 C.2    88  ASP88       0.2266
     57  O        -13.9310   30.5180   -8.0480 O.2    88  ASP88      -0.2867
     58  CB       -12.5100   32.8050   -8.6170 C.3    88  ASP88       0.1410
     59  CG       -11.2760   32.2830   -7.8970 C.2    88  ASP88       0.3668
     60  OD1      -10.7100   31.2480   -8.3200 O.co2  88  ASP88      -0.2456
     61  OD2      -10.8650   32.9390   -6.9390 O.co2  88  ASP88      -0.2456
     62  N        -12.4180   36.4720    5.9650 N.3   166  VAL166     -0.1231
     63  CA       -11.6890   35.2730    5.5240 C.3   166  VAL166      0.1692
     64  C        -10.2280   35.6270    5.3040 C.2   166  VAL166      0.2592
     65  O         -9.8800   36.8250    5.3000 O.2   166  VAL166     -0.2718
     66  CB       -12.2730   34.6820    4.2330 C.3   166  VAL166      0.0266
     67  CG1      -13.7890   34.3310    4.4580 C.3   166  VAL166      0.0020
     68  CG2      -12.0970   35.6710    3.0500 C.3   166  VAL166      0.0020
     69  N         -9.3750   34.6160    5.1490 N.am  167  CYS167     -0.1956
     70  CA        -7.9510   34.8650    5.0130 C.3   167  CYS167      0.1843
     71  C         -7.3300   33.7130    4.2520 C.2   167  CYS167      0.2625
     72  O         -8.0520   32.8620    3.7010 O.2   167  CYS167     -0.2714
     73  CB        -7.3640   35.0400    6.4280 C.3   167  CYS167      0.0997
     74  SG        -5.7200   35.9160    6.4400 S.3   167  CYS167     -0.0797
     75  N         -5.9920   33.6650    4.1820 N.am  168  PHE168     -0.1974
     76  CA        -5.3250   32.6280    3.3590 C.3   168  PHE168      0.1639
     77  C         -5.6790   31.2440    3.8990 C.2   168  PHE168      0.2290
     78  O         -5.7660   31.0850    5.1020 O.2   168  PHE168     -0.2864
     79  CB        -3.8190   32.8890    3.4270 C.3   168  PHE168      0.0560
     80  CG        -3.4040   34.1800    2.6970 C.ar  168  PHE168     -0.0200
     81  CD1       -3.2240   34.1670    1.3110 C.ar  168  PHE168     -0.0042
     82  CD2       -3.2510   35.3620    3.3900 C.ar  168  PHE168     -0.0042
     83  CE1       -2.8360   35.3440    0.5960 C.ar  168  PHE168     -0.0003
     84  CE2       -2.8970   36.5410    2.7300 C.ar  168  PHE168     -0.0003
     85  CZ        -2.6730   36.5390    1.3250 C.ar  168  PHE168     -0.0000
     86  N         -8.5830   29.9770    3.5150 N.3   170  ASP170     -0.1225
     87  CA       -10.0320   29.9220    3.3950 C.3   170  ASP170      0.1805
     88  C        -10.4490   29.9380    1.9140 C.2   170  ASP170      0.2598
     89  O        -11.6190   29.6830    1.5800 O.2   170  ASP170     -0.2718
     90  CB       -10.6440   31.1280    4.1020 C.3   170  ASP170      0.1424
     91  CG       -10.4680   31.0650    5.5760 C.2   170  ASP170      0.3668
     92  OD1      -10.6400   29.9560    6.1430 O.co2 170  ASP170     -0.2456
     93  OD2      -10.2470   32.1390    6.1740 O.co2 170  ASP170     -0.2456
     94  N         -9.5230   30.3210    1.0330 N.am  171  SER171     -0.1952
     95  CA        -9.7560   30.2180   -0.4210 C.3   171  SER171      0.1924
     96  C        -10.5580   28.9350   -0.7690 C.2   171  SER171      0.2314
     97  O        -10.2380   27.8650   -0.2300 O.2   171  SER171     -0.2863
     98  CB        -8.3970   30.0730   -1.1290 C.3   171  SER171      0.2116
     99  OG        -7.5940   31.2450   -1.0260 O.3   171  SER171     -0.2180
    100  N        -14.9970   31.4060   -1.5210 N.3   185  ALA185     -0.1231
    101  CA       -14.0600   32.4760   -1.1160 C.3   185  ALA185      0.1694
    102  C        -13.0350   32.6950   -2.2060 C.2   185  ALA185      0.2593
    103  O        -12.3300   31.7390   -2.6140 O.2   185  ALA185     -0.2718
    104  CB       -13.3660   32.1540    0.2140 C.3   185  ALA185      0.0304
    105  N        -12.8860   33.9690   -2.6300 N.am  186  SER186     -0.1938
    106  CA       -12.0810   34.2560   -3.8170 C.3   186  SER186      0.2055
    107  C        -10.9140   35.2180   -3.5550 C.2   186  SER186      0.2643
    108  O         -9.7460   34.8910   -3.8290 O.2   186  SER186     -0.2714
    109  CB       -12.9810   34.7640   -4.9530 C.3   186  SER186      0.2130
    110  OG       -12.2520   35.1610   -6.1420 O.3   186  SER186     -0.2179
    111  N        -11.2110   36.4040   -3.0250 N.am  187  PHE187     -0.1959
    112  CA       -10.0990   37.3670   -2.7940 C.3   187  PHE187      0.1771
    113  C        -10.4240   38.3770   -1.7120 C.2   187  PHE187      0.2619
    114  O        -11.5930   38.6720   -1.4070 O.2   187  PHE187     -0.2715
    115  CB        -9.5850   38.0390   -4.0780 C.3   187  PHE187      0.0574
    116  CG       -10.5970   38.9470   -4.7670 C.ar  187  PHE187     -0.0200
    117  CD1      -11.4610   38.4230   -5.7110 C.ar  187  PHE187     -0.0042
    118  CD2      -10.6260   40.3150   -4.5150 C.ar  187  PHE187     -0.0042
    119  CE1      -12.3850   39.2470   -6.4240 C.ar  187  PHE187     -0.0003
    120  CE2      -11.5730   41.1450   -5.1670 C.ar  187  PHE187     -0.0003
    121  CZ       -12.4400   40.5910   -6.1440 C.ar  187  PHE187     -0.0000
    122  N         -9.3530   38.8770   -1.0980 N.am  188  VAL188     -0.1963
    123  CA        -9.4350   39.9300   -0.1200 C.3   188  VAL188      0.1727
    124  C         -8.5410   41.1390   -0.5930 C.2   188  VAL188      0.2612
    125  O         -7.6080   40.9760   -1.3750 O.2   188  VAL188     -0.2715
    126  CB        -9.0080   39.4550    1.2780 C.3   188  VAL188      0.0290
    127  CG1       -9.6850   38.0980    1.6550 C.3   188  VAL188      0.0023
    128  CG2       -7.4890   39.3320    1.3560 C.3   188  VAL188      0.0023
    129  N         -8.8520   42.3070   -0.0650 N.am  189  ARG189     -0.2031
    130  CA        -8.1590   43.5660   -0.3610 C.3   189  ARG189      0.1283
    131  C         -7.9200   44.2790    1.0010 C.3   189  ARG189      0.2036
    132  O         -8.8010   44.2340    1.9370 O.3   189  ARG189     -0.2185
    133  CB        -9.0840   44.4400   -1.2530 C.3   189  ARG189      0.0281
    134  CG        -9.3050   43.8860   -2.6870 C.3   189  ARG189      0.0488
    135  CD       -10.4820   44.5580   -3.3960 C.3   189  ARG189      0.2205
    136  NE       -11.7650   44.2040   -2.7640 N.pl3 189  ARG189     -0.0865
    137  CZ       -12.9200   44.8510   -2.9090 C.cat 189  ARG189      0.5346
    138  NH1      -13.0280   45.9260   -3.6940 N.pl3 189  ARG189      0.1354
    139  NH2      -13.9960   44.4070   -2.2830 N.pl3 189  ARG189      0.1354
    140  N         -6.0370   40.6260    5.1640 N.3   192  CYS192     -0.1235
    141  CA        -7.2130   39.9840    5.7760 C.3   192  CYS192      0.1677
    142  C         -7.8200   40.9040    6.8100 C.2   192  CYS192      0.2270
    143  O         -7.0720   41.5870    7.5440 O.2   192  CYS192     -0.2867
    144  CB        -6.8020   38.6710    6.4320 C.3   192  CYS192      0.0956
    145  SG        -5.9870   37.5840    5.2530 S.3   192  CYS192     -0.0801
    146  N        -14.4430   39.0570   -1.1090 N.3   200  ALA200     -0.1245
    147  CA       -15.0900   38.7700   -2.3570 C.3   200  ALA200      0.1562
    148  C        -15.1700   37.2690   -2.6160 C.2   200  ALA200      0.2260
    149  O        -14.1910   36.5490   -2.3980 O.2   200  ALA200     -0.2867
    150  CB       -14.3410   39.4600   -3.4760 C.3   200  ALA200      0.0290
@<TRIPOS>BOND
     1    30    28   ar
     2    28    29   ar
     3    28    27    1
     4    14    13    2
     5    27    24    1
     6    11    12    1
     7    13    12    1
     8    13    23   am
     9    24    23    1
    10    24    25    1
    11    52    51    1
    12    12    15    1
    13    37    36    1
    14    37    31    1
    15    15    16    1
    16    25    31   am
    17    25    26    2
    18    50    51    1
    19    50    47    1
    20    36    35    1
    21    31    32    1
    22    51    53    1
    23    16    18   ar
    24    16    17   ar
    25    18    20   ar
    26    49    48    2
    27    48    47    1
    28    33    32    1
    29    33    34    2
    30    32    35    1
    31    47    46    1
    32    17    19   ar
    33    46    40   am
    34    20    21   ar
    35    38    39    1
    36    19    21   ar
    37    21    22    1
    38    40    39    1
    39    40    41    2
    40    39    42    1
    41    54    55    1
    42    55    56    1
    43    55    58    1
    44    42    43    1
    45    56    57    2
    46    43    45    1
    47    43    44    1
    48    58    59    1
    49     1     2    1
    50    60    59   ar
    51    59    61   ar
    52     2     5    1
    53     2     3    1
    54     5     6    1
    55     3     4    2
    56   119   121   ar
    57   119   117   ar
    58   121   120   ar
    59   110   109    1
    60     6     7   ar
    61     6     8   ar
    62   117   116   ar
    63     7     9   ar
    64   120   118   ar
    65   109   106    1
    66   116   118   ar
    67   116   115    1
    68     8    10   ar
    69     9    10   ar
    70   115   112    1
    71   108   107    2
    72   106   107    1
    73   106   105    1
    74   138   137    1
    75   107   111   am
    76   150   147    1
    77   135   136    1
    78   135   134    1
    79   111   112    1
    80   137   136    2
    81   137   139    1
    82   112   113    1
    83   134   133    1
    84   105   102   am
    85   148   149    2
    86   148   147    1
    87   103   102    2
    88   147   146    1
    89   102   101    1
    90   113   114    2
    91   113   122   am
    92   100   101    1
    93   125   124    2
    94   133   130    1
    95    98    99    1
    96    98    95    1
    97   101   104    1
    98   122   123    1
    99    96    95    1
   100    96    97    2
   101   124   123    1
   102   124   129   am
   103    95    94    1
   104   130   129    1
   105   130   131    1
   106   123   126    1
   107    83    81   ar
   108    83    85   ar
   109   131   132    1
   110    94    88   am
   111   126   128    1
   112   126   127    1
   113    81    80   ar
   114    85    84   ar
   115    89    88    2
   116    88    87    1
   117    80    82   ar
   118    80    79    1
   119    84    82   ar
   120    68    66    1
   121    76    79    1
   122    76    77    1
   123    76    75    1
   124    87    86    1
   125    87    90    1
   126    72    71    2
   127    77    78    2
   128    90    91    1
   129    75    71   am
   130    66    67    1
   131    66    63    1
   132    71    70    1
   133    70    69    1
   134    70    73    1
   135    69    64   am
   136   140   141    1
   137   145   144    1
   138   145    74    1
   139    65    64    2
   140    64    63    1
   141    63    62    1
   142    91    92   ar
   143    91    93   ar
   144   141   144    1
   145   141   142    1
   146    73    74    1
   147   142   143    2
