@<TRIPOS>MOLECULE
tmp/5a8zA02.pdb
 123 119 0 0 0
SMALL
GASTEIGER

@<TRIPOS>ATOM
      1  N         21.8580  -22.0100    8.4910 N.3    41  HIS41      -0.1241
      2  CA        22.8540  -21.0600    7.9570 C.3    41  HIS41       0.1621
      3  C         22.3100  -19.9960    6.9730 C.2    41  HIS41       0.2264
      4  O         22.9300  -18.9470    6.7870 O.2    41  HIS41      -0.2867
      5  CB        24.0850  -21.7680    7.3700 C.3    41  HIS41       0.0745
      6  CG        23.9020  -22.2710    5.9680 C.ar   41  HIS41       0.0817
      7  ND1       23.5740  -23.5780    5.6880 N.ar   41  HIS41      -0.2268
      8  CD2       24.0160  -21.6450    4.7690 C.ar   41  HIS41       0.1154
      9  CE1       23.4830  -23.7330    4.3770 C.ar   41  HIS41       0.1986
     10  NE2       23.7690  -22.5790    3.7990 N.ar   41  HIS41      -0.2212
     11  N         21.2490  -25.4440   16.2140 N.3    80  TYR80      -0.1241
     12  CA        22.1960  -25.1440   15.1560 C.3    80  TYR80       0.1605
     13  C         23.5890  -24.9460   15.7560 C.2    80  TYR80       0.2264
     14  O         23.7590  -24.1640   16.6810 O.2    80  TYR80      -0.2867
     15  CB        21.7750  -23.8880   14.3890 C.3    80  TYR80       0.0534
     16  CG        22.7230  -23.4790   13.2990 C.ar   80  TYR80      -0.0201
     17  CD1       23.3130  -24.4360   12.4730 C.ar   80  TYR80      -0.0009
     18  CD2       23.0030  -22.1330   13.0640 C.ar   80  TYR80      -0.0009
     19  CE1       24.1760  -24.0770   11.4590 C.ar   80  TYR80       0.0417
     20  CE2       23.8780  -21.7540   12.0290 C.ar   80  TYR80       0.0417
     21  CZ        24.4540  -22.7390   11.2440 C.ar   80  TYR80       0.1957
     22  OH        25.3160  -22.4210   10.2370 O.3    80  TYR80      -0.2866
     23  N         27.1050  -24.0450   14.0290 N.3    82  PRO82      -0.2116
     24  CA        27.9200  -23.7700   12.8320 C.3    82  PRO82       0.1372
     25  C         29.3310  -24.3480   12.9020 C.2    82  PRO82       0.2244
     26  O         29.8030  -24.8800   11.9070 O.2    82  PRO82      -0.2868
     27  CB        27.9620  -22.2320   12.7450 C.3    82  PRO82       0.0268
     28  CG        26.9230  -21.7410   13.6760 C.3    82  PRO82       0.0207
     29  CD        26.6110  -22.8060   14.6720 C.3    82  PRO82       0.0892
     30  N         29.1810  -28.0300   12.2260 N.3    85  LEU85      -0.1245
     31  CA        28.3020  -28.2400   11.0560 C.3    85  LEU85       0.1561
     32  C         27.0960  -29.1510   11.3390 C.2    85  LEU85       0.2260
     33  O         26.8000  -30.0660   10.5640 O.2    85  LEU85      -0.2867
     34  CB        29.0920  -28.7340    9.8410 C.3    85  LEU85       0.0270
     35  CG        30.4220  -28.0610    9.5270 C.3    85  LEU85       0.0019
     36  CD1       31.2940  -29.0840    8.8540 C.3    85  LEU85       0.0001
     37  CD2       30.1870  -26.8490    8.6640 C.3    85  LEU85       0.0001
     38  N         21.6890  -28.2240   10.9190 N.3    88  ASP88      -0.1239
     39  CA        21.5030  -27.1370    9.9810 C.3    88  ASP88       0.1674
     40  C         20.0670  -27.1030    9.4240 C.2    88  ASP88       0.2266
     41  O         19.8340  -27.3430    8.2270 O.2    88  ASP88      -0.2867
     42  CB        22.5570  -27.1860    8.8780 C.3    88  ASP88       0.1410
     43  CG        22.6360  -25.8950    8.0950 C.2    88  ASP88       0.3668
     44  OD1       22.0270  -24.9040    8.5210 O.co2  88  ASP88      -0.2456
     45  OD2       23.2950  -25.8820    7.0390 O.co2  88  ASP88      -0.2456
     46  N         25.4980  -29.1530   -5.8040 N.3   165  VAL165     -0.1231
     47  CA        24.8620  -27.9290   -5.3850 C.3   165  VAL165      0.1692
     48  C         25.8740  -26.7850   -5.2720 C.2   165  VAL165      0.2592
     49  O         27.0910  -27.0110   -5.2410 O.2   165  VAL165     -0.2718
     50  CB        24.0490  -28.0930   -4.0820 C.3   165  VAL165      0.0266
     51  CG1       23.0210  -29.2600   -4.2740 C.3   165  VAL165      0.0020
     52  CG2       25.0010  -28.3270   -2.8970 C.3   165  VAL165      0.0020
     53  N         25.3610  -25.5640   -5.2430 N.am  166  CYS166     -0.1956
     54  CA        26.2470  -24.4020   -5.1480 C.3   166  CYS166      0.1843
     55  C         25.5900  -23.2830   -4.3280 C.2   166  CYS166      0.2625
     56  O         24.4820  -23.4650   -3.8010 O.2   166  CYS166     -0.2714
     57  CB        26.6210  -23.9530   -6.5710 C.3   166  CYS166      0.0997
     58  SG        28.2060  -22.9890   -6.6930 S.3   166  CYS166     -0.0797
     59  N         26.2560  -22.1210   -4.2310 N.am  167  PHE167     -0.1974
     60  CA        25.7370  -21.0060   -3.4340 C.3   167  PHE167      0.1639
     61  C         24.3820  -20.5770   -3.9680 C.2   167  PHE167      0.2290
     62  O         24.2230  -20.4730   -5.1640 O.2   167  PHE167     -0.2864
     63  CB        26.7170  -19.8020   -3.4860 C.3   167  PHE167      0.0560
     64  CG        28.0810  -20.1320   -2.9750 C.ar  167  PHE167     -0.0200
     65  CD1       28.3410  -20.0810   -1.6000 C.ar  167  PHE167     -0.0042
     66  CD2       29.0860  -20.5360   -3.8440 C.ar  167  PHE167     -0.0042
     67  CE1       29.6290  -20.4070   -1.0960 C.ar  167  PHE167     -0.0003
     68  CE2       30.3560  -20.8960   -3.3660 C.ar  167  PHE167     -0.0003
     69  CZ        30.6280  -20.8290   -1.9830 C.ar  167  PHE167     -0.0000
     70  N         21.8410  -22.4300   -3.3930 N.3   169  ASP169     -0.1225
     71  CA        21.1170  -23.7070   -3.2430 C.3   169  ASP169      0.1805
     72  C         20.8670  -24.0920   -1.7850 C.2   169  ASP169      0.2598
     73  O         20.0500  -24.9680   -1.5010 O.2   169  ASP169     -0.2718
     74  CB        21.8220  -24.8440   -3.9660 C.3   169  ASP169      0.1424
     75  CG        21.7450  -24.7000   -5.4460 C.2   169  ASP169      0.3668
     76  OD1       20.7070  -24.1940   -5.9330 O.co2 169  ASP169     -0.2456
     77  OD2       22.7010  -25.1170   -6.1230 O.co2 169  ASP169     -0.2456
     78  N         21.5910  -23.4420   -0.8900 N.am  170  SER170     -0.1952
     79  CA        21.4240  -23.5400    0.5670 C.3   170  SER170      0.1924
     80  C         19.9560  -23.5780    0.9370 C.2   170  SER170      0.2314
     81  O         19.1840  -22.7420    0.4740 O.2   170  SER170     -0.2863
     82  CB        22.0820  -22.3060    1.2150 C.3   170  SER170      0.2116
     83  OG        23.5010  -22.2880    1.0950 O.3   170  SER170     -0.2180
     84  N         19.9850  -28.7840    1.8240 N.3   184  ALA184     -0.1231
     85  CA        21.3700  -28.4950    1.3980 C.3   184  ALA184      0.1694
     86  C         22.0830  -27.6270    2.4090 C.2   184  ALA184      0.2593
     87  O         21.5970  -26.5410    2.7660 O.2   184  ALA184     -0.2718
     88  CB        21.3890  -27.8640    0.0060 C.3   184  ALA184      0.0304
     89  N         23.2310  -28.1210    2.8850 N.am  185  SER185     -0.1938
     90  CA        23.8900  -27.5540    4.0360 C.3   185  SER185      0.2055
     91  C         25.2750  -27.0270    3.6850 C.2   185  SER185      0.2643
     92  O         25.5280  -25.8480    3.8660 O.2   185  SER185     -0.2714
     93  CB        23.9280  -28.5540    5.2130 C.3   185  SER185      0.2130
     94  OG        24.6270  -28.0080    6.3400 O.3   185  SER185     -0.2179
     95  N         26.1540  -27.8800    3.1520 N.am  186  PHE186     -0.1959
     96  CA        27.5020  -27.4100    2.8260 C.3   186  PHE186      0.1771
     97  C         28.2320  -28.2010    1.7470 C.2   186  PHE186      0.2619
     98  O         27.9360  -29.3660    1.4810 O.2   186  PHE186     -0.2715
     99  CB        28.3620  -27.2210    4.1070 C.3   186  PHE186      0.0574
    100  CG        28.6490  -28.4820    4.8610 C.ar  186  PHE186     -0.0200
    101  CD1       27.7890  -28.9180    5.8890 C.ar  186  PHE186     -0.0042
    102  CD2       29.8190  -29.2070    4.6080 C.ar  186  PHE186     -0.0042
    103  CE1       28.0790  -30.0990    6.6240 C.ar  186  PHE186     -0.0003
    104  CE2       30.1060  -30.3790    5.3330 C.ar  186  PHE186     -0.0003
    105  CZ        29.2380  -30.8180    6.3370 C.ar  186  PHE186     -0.0000
    106  N         29.1660  -27.5250    1.1010 N.am  187  VAL187     -0.1977
    107  CA        30.0320  -28.1530    0.1340 C.3   187  VAL187      0.1596
    108  C         31.4750  -28.1040    0.6410 C.2   187  VAL187      0.2287
    109  O         31.7800  -27.3500    1.5450 O.2   187  VAL187     -0.2864
    110  CB        29.8880  -27.5730   -1.3070 C.3   187  VAL187      0.0276
    111  CG1       28.4360  -27.6960   -1.7510 C.3   187  VAL187      0.0022
    112  CG2       30.4040  -26.1160   -1.4090 C.3   187  VAL187      0.0022
    113  N         32.1600  -25.6300   -5.2130 N.3   191  CYS191     -0.1235
    114  CA        31.0320  -26.3440   -5.7810 C.3   191  CYS191      0.1677
    115  C         31.5410  -27.3130   -6.8430 C.2   191  CYS191      0.2270
    116  O         32.5290  -27.0140   -7.5440 O.2   191  CYS191     -0.2867
    117  CB        30.0210  -25.3830   -6.4130 C.3   191  CYS191      0.0956
    118  SG        29.5630  -23.9460   -5.4270 S.3   191  CYS191     -0.0801
    119  N         26.8960  -32.0620    1.2700 N.3   199  ALA199     -0.1245
    120  CA        26.3200  -32.4430    2.5690 C.3   199  ALA199      0.1562
    121  C         24.9540  -31.7790    2.7510 C.2   199  ALA199      0.2260
    122  O         24.7870  -30.5940    2.4750 O.2   199  ALA199     -0.2867
    123  CB        27.2510  -32.0670    3.7080 C.3   199  ALA199      0.0290
@<TRIPOS>BOND
     1   116   115    2
     2   115   114    1
     3    58    57    1
     4    58   118    1
     5    57    54    1
     6   117   114    1
     7   117   118    1
     8    77    75   ar
     9    76    75   ar
    10    46    47    1
    11   114   113    1
    12    75    74    1
    13    47    48    1
    14    47    50    1
    15    48    53   am
    16    48    49    2
    17    53    54    1
    18    62    61    2
    19    54    55    1
    20    55    59   am
    21    55    56    2
    22    51    50    1
    23    59    60    1
    24    50    52    1
    25    61    60    1
    26    74    71    1
    27    66    68   ar
    28    66    64   ar
    29    63    60    1
    30    63    64    1
    31    70    71    1
    32    68    69   ar
    33    71    72    1
    34    64    65   ar
    35    69    67   ar
    36    72    73    2
    37    72    78   am
    38   111   110    1
    39    65    67   ar
    40   112   110    1
    41   110   107    1
    42    78    79    1
    43    88    85    1
    44   107   108    1
    45   107   106    1
    46    81    80    2
    47    79    80    1
    48    79    82    1
    49   108   109    2
    50    83    82    1
    51   106    97   am
    52   119   120    1
    53    85    84    1
    54    85    86    1
    55    98    97    2
    56    97    96    1
    57    86    87    2
    58    86    89   am
    59   122   121    2
    60   120   121    1
    61   120   123    1
    62    96    95    1
    63    96    99    1
    64    89    90    1
    65    95    91   am
    66    91    92    2
    67    91    90    1
    68    10     9   ar
    69    10     8   ar
    70    90    93    1
    71    99   100    1
    72     9     7   ar
    73   102   100   ar
    74   102   104   ar
    75     8     6   ar
    76   100   101   ar
    77    93    94    1
    78   104   105   ar
    79     7     6   ar
    80   101   103   ar
    81     6     5    1
    82   105   103   ar
    83     4     3    2
    84     3     2    1
    85    45    43   ar
    86     5     2    1
    87     2     1    1
    88    43    44   ar
    89    43    42    1
    90    41    40    2
    91    37    35    1
    92    36    35    1
    93    42    39    1
    94    40    39    1
    95    35    34    1
    96    34    31    1
    97    39    38    1
    98    22    21    1
    99    33    32    2
   100    31    32    1
   101    31    30    1
   102    21    19   ar
   103    21    20   ar
   104    19    17   ar
   105    26    25    2
   106    20    18   ar
   107    17    16   ar
   108    27    24    1
   109    27    28    1
   110    24    25    1
   111    24    23    1
   112    18    16   ar
   113    16    15    1
   114    28    29    1
   115    23    29    1
   116    15    12    1
   117    12    13    1
   118    12    11    1
   119    13    14    2
