@<TRIPOS>MOLECULE
tmp/5a95A00.pdb
 198 198 0 0 0
SMALL
GASTEIGER

@<TRIPOS>ATOM
      1  N          2.6520   48.0290   25.7310 N.3    80  HIS80      -0.1241
      2  CA         3.8620   47.2690   25.4990 C.3    80  HIS80       0.1621
      3  C          4.1870   46.4120   26.7200 C.2    80  HIS80       0.2264
      4  O          4.2150   46.9200   27.8340 O.2    80  HIS80      -0.2867
      5  CB         5.0380   48.1890   25.2070 C.3    80  HIS80       0.0745
      6  CG         4.9900   48.8010   23.8480 C.ar   80  HIS80       0.0817
      7  ND1        3.9000   49.4850   23.3620 N.ar   80  HIS80      -0.2268
      8  CD2        5.9150   48.8270   22.8600 C.ar   80  HIS80       0.1154
      9  CE1        4.1720   49.9290   22.1440 C.ar   80  HIS80       0.1986
     10  NE2        5.3910   49.5360   21.8160 N.ar   80  HIS80      -0.2212
     11  N          0.5620   44.7960   22.9570 N.3   115  HIS115     -0.1241
     12  CA         1.3720   45.2380   21.8290 C.3   115  HIS115      0.1621
     13  C          2.7270   44.5320   21.8130 C.2   115  HIS115      0.2264
     14  O          3.7640   45.0850   22.1900 O.2   115  HIS115     -0.2867
     15  CB         1.5140   46.7470   21.8310 C.3   115  HIS115      0.0745
     16  CG         1.9740   47.3000   20.5370 C.ar  115  HIS115      0.0817
     17  ND1        1.1140   47.6110   19.5180 N.ar  115  HIS115     -0.2268
     18  CD2        3.2170   47.5710   20.0780 C.ar  115  HIS115      0.1154
     19  CE1        1.8040   48.0810   18.5000 C.ar  115  HIS115      0.1986
     20  NE2        3.0830   48.0680   18.8130 N.ar  115  HIS115     -0.2212
     21  N          5.1860   41.8320   19.1790 N.3   117  ILE117     -0.1245
     22  CA         5.5410   41.5390   17.7940 C.3   117  ILE117      0.1561
     23  C          6.4070   40.2980   17.8450 C.2   117  ILE117      0.2260
     24  O          7.5120   40.3430   18.4250 O.2   117  ILE117     -0.2867
     25  CB         6.3260   42.6890   17.1220 C.3   117  ILE117      0.0252
     26  CG1        5.5660   44.0100   17.2090 C.3   117  ILE117      0.0019
     27  CG2        6.6120   42.3070   15.6710 C.3   117  ILE117      0.0019
     28  CD1        6.2380   45.1660   16.5130 C.3   117  ILE117      0.0001
     29  N         10.4090   40.1500   18.1190 N.3   126  GLN126     -0.1245
     30  CA        11.1910   41.0260   17.2900 C.3   126  GLN126      0.1566
     31  C         12.2110   41.8520   18.0870 C.2   126  GLN126      0.2260
     32  O         13.2810   42.1830   17.5650 O.2   126  GLN126     -0.2867
     33  CB        10.2630   41.9200   16.4530 C.3   126  GLN126      0.0367
     34  CG        11.0050   42.9020   15.5520 C.3   126  GLN126      0.0905
     35  CD        10.0660   43.5910   14.6230 C.2   126  GLN126      0.2608
     36  OE1        9.4880   42.9390   13.7720 O.2   126  GLN126     -0.2717
     37  NE2        9.9570   44.9030   14.7560 N.am  126  GLN126     -0.0878
     38  N         11.4200   44.9900   23.8360 N.3   129  MET129     -0.1230
     39  CA        10.3070   45.7910   24.3310 C.3   129  MET129      0.1702
     40  C          8.9630   45.0450   24.2070 C.2   129  MET129      0.2592
     41  O          7.9930   45.3650   24.9230 O.2   129  MET129     -0.2718
     42  CB        10.2320   47.1570   23.6550 C.3   129  MET129      0.0401
     43  CG         9.8690   47.1340   22.1720 C.3   129  MET129      0.0596
     44  SD         9.7090   48.8090   21.4870 S.3   129  MET129     -0.1393
     45  CE        11.4160   49.2490   21.3110 C.3   129  MET129      0.0692
     46  N          8.9330   44.0510   23.3200 N.am  130  TYR130     -0.1976
     47  CA         7.7810   43.2520   23.0620 C.3   130  TYR130      0.1639
     48  C          7.7710   41.9190   23.8050 C.2   130  TYR130      0.2290
     49  O          6.8290   41.1290   23.6870 O.2   130  TYR130     -0.2864
     50  CB         7.6980   42.9700   21.5600 C.3   130  TYR130      0.0560
     51  CG         7.7430   44.2340   20.7340 C.ar  130  TYR130     -0.0198
     52  CD1        6.8390   45.2720   20.9390 C.ar  130  TYR130     -0.0009
     53  CD2        8.6870   44.3870   19.7500 C.ar  130  TYR130     -0.0009
     54  CE1        6.9330   46.4500   20.1910 C.ar  130  TYR130      0.0417
     55  CE2        8.7760   45.5410   18.9840 C.ar  130  TYR130      0.0417
     56  CZ         7.9010   46.5850   19.2110 C.ar  130  TYR130      0.1957
     57  OH         7.9910   47.7480   18.4750 O.3   130  TYR130     -0.2866
     58  N         -0.8390   42.0510   19.0900 N.3   161  ASN161     -0.1225
     59  CA        -0.6800   43.0220   18.0040 C.3   161  ASN161      0.1785
     60  C         -0.2410   42.4210   16.6580 C.2   161  ASN161      0.2597
     61  O         -0.9630   42.4630   15.6580 O.2   161  ASN161     -0.2718
     62  CB         0.2770   44.0880   18.4980 C.3   161  ASN161      0.1169
     63  CG         0.7930   45.0210   17.4260 C.2   161  ASN161      0.2627
     64  OD1        0.0560   45.6480   16.6860 O.2   161  ASN161     -0.2716
     65  ND2        2.1220   45.1450   17.3790 N.am  161  ASN161     -0.0877
     66  N          0.9900   41.9060   16.5940 N.am  162  GLU162     -0.1979
     67  CA         1.5850   41.5070   15.3140 C.3   162  GLU162      0.1602
     68  C          2.2570   40.1520   15.3720 C.2   162  GLU162      0.2287
     69  O          3.4780   40.0530   15.6550 O.2   162  GLU162     -0.2864
     70  CB         2.5360   42.5810   14.7670 C.3   162  GLU162      0.0415
     71  CG         1.7740   43.7180   14.1040 C.3   162  GLU162      0.1163
     72  CD         2.6310   44.8020   13.5160 C.2   162  GLU162      0.3649
     73  OE1        3.7880   44.9250   13.9280 O.co2 162  GLU162     -0.2457
     74  OE2        2.1050   45.5620   12.6800 O.co2 162  GLU162     -0.2457
     75  N          3.0230   39.9660   10.2980 N.3   205  TRP205     -0.1241
     76  CA         2.7520   41.1770   11.0600 C.3   205  TRP205      0.1605
     77  C          1.2870   41.6200   10.9160 C.2   205  TRP205      0.2264
     78  O          0.9860   42.7640   10.5400 O.2   205  TRP205     -0.2867
     79  CB         3.6990   42.3180   10.6920 C.3   205  TRP205      0.0550
     80  CG         5.1490   42.1390   11.0770 C.ar  205  TRP205      0.0003
     81  CD1        5.7480   42.7110   12.1620 C.ar  205  TRP205      0.0946
     82  CD2        6.1640   41.4240   10.3820 C.ar  205  TRP205      0.0152
     83  NE1        7.0890   42.3960   12.1890 N.ar  205  TRP205     -0.2442
     84  CE2        7.3790   41.6210   11.1030 C.ar  205  TRP205      0.0810
     85  CE3        6.1940   40.6840    9.2070 C.ar  205  TRP205      0.0012
     86  CZ2        8.5840   41.0410   10.7160 C.ar  205  TRP205      0.0191
     87  CZ3        7.3990   40.1050    8.8310 C.ar  205  TRP205      0.0001
     88  CH2        8.5750   40.2900    9.5750 C.ar  205  TRP205      0.0015
     89  N         -0.0500   48.4320    5.8700 N.3   229  TYR229     -0.1241
     90  CA         0.8870   49.4760    5.5210 C.3   229  TYR229      0.1605
     91  C          1.1570   49.4820    4.0000 C.2   229  TYR229      0.2264
     92  O          0.9650   48.4550    3.3290 O.2   229  TYR229     -0.2867
     93  CB         2.1350   49.2980    6.3440 C.3   229  TYR229      0.0534
     94  CG         2.0230   49.7740    7.7790 C.ar  229  TYR229     -0.0201
     95  CD1        1.7280   51.0940    8.0770 C.ar  229  TYR229     -0.0009
     96  CD2        2.3020   48.9240    8.8400 C.ar  229  TYR229     -0.0009
     97  CE1        1.6850   51.5480    9.3790 C.ar  229  TYR229      0.0417
     98  CE2        2.2900   49.3820   10.1440 C.ar  229  TYR229      0.0417
     99  CZ         1.9670   50.6870   10.4120 C.ar  229  TYR229      0.1957
    100  OH         1.9560   51.1190   11.7290 O.3   229  TYR229     -0.2866
    101  N         -3.5740   49.1970   12.5300 N.3   264  GLN264     -0.1245
    102  CA        -2.4310   50.0270   12.1500 C.3   264  GLN264      0.1566
    103  C         -2.4590   50.1700   10.6580 C.2   264  GLN264      0.2260
    104  O         -2.6860   49.2150    9.9130 O.2   264  GLN264     -0.2867
    105  CB        -1.0880   49.4470   12.5840 C.3   264  GLN264      0.0367
    106  CG        -0.9800   49.3960   14.0810 C.3   264  GLN264      0.0905
    107  CD         0.3610   48.9730   14.6270 C.2   264  GLN264      0.2608
    108  OE1        0.4430   48.5610   15.7710 O.2   264  GLN264     -0.2717
    109  NE2        1.4060   49.1820   13.8760 N.am  264  GLN264     -0.0878
    110  N         10.5570   61.6800    8.2240 N.3   273  TYR273     -0.1227
    111  CA        10.8550   61.3750    9.6050 C.3   273  TYR273      0.1736
    112  C         10.5940   59.9040    9.9370 C.2   273  TYR273      0.2596
    113  O          9.4930   59.3630    9.7640 O.2   273  TYR273     -0.2718
    114  CB        10.0860   62.3220   10.5550 C.3   273  TYR273      0.0548
    115  CG        10.3210   61.9730   12.0050 C.ar  273  TYR273     -0.0200
    116  CD1       11.4740   62.3660   12.6650 C.ar  273  TYR273     -0.0009
    117  CD2        9.3910   61.2280   12.7160 C.ar  273  TYR273     -0.0009
    118  CE1       11.6930   62.0080   13.9990 C.ar  273  TYR273      0.0417
    119  CE2        9.6100   60.8650   14.0350 C.ar  273  TYR273      0.0417
    120  CZ        10.7560   61.2550   14.6670 C.ar  273  TYR273      0.1957
    121  OH        10.9730   60.9150   15.9860 O.3   273  TYR273     -0.2866
    122  N         11.6360   59.2320   10.3640 N.am  274  GLY274     -0.1957
    123  CA        11.5470   57.8440   10.7330 C.3   274  GLY274      0.1869
    124  C         11.2030   56.8590    9.6400 C.2   274  GLY274      0.2309
    125  O         10.7960   55.7690    9.9220 O.2   274  GLY274     -0.2863
    126  N         10.9210   54.0010    6.9580 N.3   276  HIS276     -0.1241
    127  CA        11.4010   52.6380    6.9140 C.3   276  HIS276      0.1621
    128  C         10.3640   51.7790    6.1770 C.2   276  HIS276      0.2264
    129  O          9.1960   52.1240    6.1620 O.2   276  HIS276     -0.2867
    130  CB        11.5510   52.0940    8.3430 C.3   276  HIS276      0.0745
    131  CG        10.2980   52.1990    9.1700 C.ar  276  HIS276      0.0817
    132  ND1        9.9300   53.3570    9.8320 N.ar  276  HIS276     -0.2268
    133  CD2        9.3360   51.2860    9.4580 C.ar  276  HIS276      0.1154
    134  CE1        8.8050   53.1550   10.4930 C.ar  276  HIS276      0.1986
    135  NE2        8.4230   51.9050   10.2830 N.ar  276  HIS276     -0.2212
    136  N          7.8040   48.8890    6.1870 N.3   278  PRO278     -0.2102
    137  CA         6.9370   48.9860    5.0220 C.3   278  PRO278      0.1504
    138  C          6.0480   50.2290    4.9720 C.2   278  PRO278      0.2575
    139  O          4.9470   50.1720    4.3980 O.2   278  PRO278     -0.2718
    140  CB         6.0690   47.7420    5.1780 C.3   278  PRO278      0.0282
    141  CG         5.7950   47.7110    6.6480 C.3   278  PRO278      0.0208
    142  CD         7.1170   48.1540    7.2750 C.3   278  PRO278      0.0893
    143  N          6.4740   51.3490    5.5600 N.am  279  VAL279     -0.1980
    144  CA         5.6220   52.5220    5.6990 C.3   279  VAL279      0.1595
    145  C          5.9510   53.6810    4.7460 C.2   279  VAL279      0.2287
    146  O          5.3370   54.7450    4.8510 O.2   279  VAL279     -0.2864
    147  CB         5.5920   53.0600    7.1580 C.3   279  VAL279      0.0276
    148  CG1        5.1800   51.9350    8.1020 C.3   279  VAL279      0.0022
    149  CG2        6.9240   53.6630    7.6070 C.3   279  VAL279      0.0022
    150  N         -1.8180   54.6940   12.6660 N.3   303  TRP303     -0.1241
    151  CA        -0.5880   54.6890   13.4640 C.3   303  TRP303      0.1605
    152  C          0.2940   55.8470   12.9720 C.2   303  TRP303      0.2264
    153  O          0.6310   55.8590   11.7990 O.2   303  TRP303     -0.2867
    154  CB         0.1590   53.3290   13.2920 C.3   303  TRP303      0.0550
    155  CG         1.4350   53.2360   14.0880 C.ar  303  TRP303      0.0003
    156  CD1        2.6560   53.7250   13.7280 C.ar  303  TRP303      0.0946
    157  CD2        1.5840   52.7240   15.4110 C.ar  303  TRP303      0.0152
    158  NE1        3.5740   53.4900   14.7240 N.ar  303  TRP303     -0.2442
    159  CE2        2.9390   52.8850   15.7760 C.ar  303  TRP303      0.0810
    160  CE3        0.7050   52.1250   16.3180 C.ar  303  TRP303      0.0012
    161  CZ2        3.4340   52.4860   17.0200 C.ar  303  TRP303      0.0191
    162  CZ3        1.1830   51.7310   17.5430 C.ar  303  TRP303      0.0001
    163  CH2        2.5490   51.8910   17.8860 C.ar  303  TRP303      0.0015
    164  N          6.9120   61.4720   18.1520 N.3   308  ASP308     -0.1225
    165  CA         8.1820   60.7550   18.2480 C.3   308  ASP308      0.1805
    166  C          8.1730   59.4140   17.5450 C.2   308  ASP308      0.2598
    167  O          9.0810   59.1010   16.7730 O.2   308  ASP308     -0.2718
    168  CB         8.5920   60.5520   19.7180 C.3   308  ASP308      0.1424
    169  CG         8.6390   61.8330   20.4800 C.2   308  ASP308      0.3668
    170  OD1        9.3100   62.7460   19.9980 O.co2 308  ASP308     -0.2456
    171  OD2        8.0130   61.9420   21.5460 O.co2 308  ASP308     -0.2456
    172  N          7.1490   58.6060   17.8030 N.am  309  TRP309     -0.1962
    173  CA         7.0010   57.3070   17.1920 C.3   309  TRP309      0.1771
    174  C          6.4560   57.4710   15.7770 C.2   309  TRP309      0.2620
    175  O          5.5470   58.2580   15.5550 O.2   309  TRP309     -0.2715
    176  CB         6.0320   56.4760   18.0300 C.3   309  TRP309      0.0590
    177  CG         6.5900   55.9860   19.3040 C.ar  309  TRP309      0.0006
    178  CD1        7.7930   56.3270   19.8790 C.ar  309  TRP309      0.0946
    179  CD2        5.9900   55.0230   20.1590 C.ar  309  TRP309      0.0152
    180  NE1        7.9660   55.6110   21.0540 N.ar  309  TRP309     -0.2442
    181  CE2        6.8650   54.8200   21.2560 C.ar  309  TRP309      0.0810
    182  CE3        4.7770   54.3180   20.1160 C.ar  309  TRP309      0.0012
    183  CZ2        6.5770   53.9260   22.2830 C.ar  309  TRP309      0.0191
    184  CZ3        4.5010   53.4050   21.1460 C.ar  309  TRP309      0.0001
    185  CH2        5.3920   53.2250   22.2070 C.ar  309  TRP309      0.0015
    186  N          7.0030   56.7050   14.8450 N.am  310  SER310     -0.1936
    187  CA         6.7270   56.9080   13.4290 C.3   310  SER310      0.2040
    188  C          6.0210   55.6990   12.7880 C.2   310  SER310      0.2485
    189  O          6.0990   54.5840   13.2960 O.2   310  SER310     -0.2729
    190  CB         8.0350   57.1770   12.6910 C.3   310  SER310      0.2129
    191  OG         8.8890   56.0600   12.7670 O.3   310  SER310     -0.2179
    192  N          5.3080   55.9090   11.6710 N.am  311  PRO311     -0.2726
    193  CA         5.0480   57.2120   11.0510 C.3   311  PRO311      0.1402
    194  C          4.1450   58.0890   11.9190 C.2   311  PRO311      0.2269
    195  O          3.1220   57.6280   12.4140 O.2   311  PRO311     -0.2865
    196  CB         4.3640   56.8450    9.7310 C.3   311  PRO311      0.0296
    197  CG         3.7430   55.5030    9.9850 C.3   311  PRO311      0.0237
    198  CD         4.7490   54.8120   10.8650 C.3   311  PRO311      0.0939
@<TRIPOS>BOND
     1    92    91    2
     2    91    90    1
     3   139   138    2
     4   145   146    2
     5   145   144    1
     6   138   137    1
     7   138   143   am
     8   137   140    1
     9   137   136    1
    10   140   141    1
    11    90    89    1
    12    90    93    1
    13   143   144    1
    14   144   147    1
    15   129   128    2
    16   128   127    1
    17   136   142    1
    18    93    94    1
    19   141   142    1
    20   127   126    1
    21   127   130    1
    22   147   149    1
    23   147   148    1
    24    94    95   ar
    25    94    96   ar
    26    95    97   ar
    27   110   111    1
    28   130   131    1
    29    87    85   ar
    30    87    88   ar
    31    96    98   ar
    32   131   133   ar
    33   131   132   ar
    34    85    82   ar
    35    97    99   ar
    36   133   135   ar
    37    88    86   ar
    38   111   112    1
    39   111   114    1
    40   124   125    2
    41   124   123    1
    42   196   197    1
    43   196   193    1
    44   113   112    2
    45   132   134   ar
    46   104   103    2
    47   112   122   am
    48   197   198    1
    49    98    99   ar
    50   135   134   ar
    51    75    76    1
    52   122   123    1
    53    82    80   ar
    54    82    84   ar
    55    99   100    1
    56    78    77    2
    57   114   115    1
    58   103   102    1
    59    79    76    1
    60    79    80    1
    61    86    84   ar
    62   198   192    1
    63    77    76    1
    64   193   192    1
    65   193   194    1
    66    80    81   ar
    67    84    83   ar
    68   192   188   am
    69   153   152    2
    70   194   195    2
    71   115   116   ar
    72   115   117   ar
    73   102   101    1
    74   102   105    1
    75    81    83   ar
    76   105   106    1
    77   116   118   ar
    78   150   151    1
    79    74    72   ar
    80   190   191    1
    81   190   187    1
    82   117   119   ar
    83   188   189    2
    84   188   187    1
    85   152   151    1
    86   154   151    1
    87   154   155    1
    88   187   186    1
    89    72    73   ar
    90    72    71    1
    91   156   155   ar
    92   156   158   ar
    93    36    35    2
    94   109   107   am
    95   118   120   ar
    96   119   120   ar
    97   106   107    1
    98   155   157   ar
    99    71    70    1
   100    35    37   am
   101    35    34    1
   102   107   108    2
   103   120   121    1
   104   158   159   ar
   105    70    67    1
   106   186   174   am
   107    67    68    1
   108    67    66    1
   109    68    69    2
   110   157   159   ar
   111   157   160   ar
   112    34    33    1
   113   175   174    2
   114    61    60    2
   115    27    25    1
   116   159   161   ar
   117   174   173    1
   118   160   162   ar
   119    33    30    1
   120    28    26    1
   121    66    60   am
   122    60    59    1
   123    64    63    2
   124   167   166    2
   125   161   163   ar
   126    25    26    1
   127    25    22    1
   128   173   172    1
   129   173   176    1
   130    30    31    1
   131    30    29    1
   132    65    63   am
   133    63    62    1
   134   162   163   ar
   135   166   172   am
   136   166   165    1
   137    32    31    2
   138    22    23    1
   139    22    21    1
   140    23    24    2
   141    59    62    1
   142    59    58    1
   143   176   177    1
   144   164   165    1
   145   165   168    1
   146    57    56    1
   147    19    20   ar
   148    19    17   ar
   149    20    18   ar
   150    55    56   ar
   151    55    53   ar
   152    56    54   ar
   153   177   178   ar
   154   177   179   ar
   155    17    16   ar
   156   168   169    1
   157    53    51   ar
   158   178   180   ar
   159   170   169   ar
   160    18    16   ar
   161   182   179   ar
   162   182   184   ar
   163   179   181   ar
   164    54    52   ar
   165   169   171   ar
   166    16    15    1
   167    51    52   ar
   168    51    50    1
   169   180   181   ar
   170   184   185   ar
   171   181   183   ar
   172    45    44    1
   173    44    43    1
   174    50    47    1
   175    13    12    1
   176    13    14    2
   177    10     9   ar
   178    10     8   ar
   179    12    15    1
   180    12    11    1
   181     9     7   ar
   182    43    42    1
   183   185   183   ar
   184     8     6   ar
   185    47    46    1
   186    47    48    1
   187    46    40   am
   188     7     6   ar
   189    42    39    1
   190    49    48    2
   191    38    39    1
   192     6     5    1
   193    40    39    1
   194    40    41    2
   195     5     2    1
   196     2     1    1
   197     2     3    1
   198     3     4    2
