@<TRIPOS>MOLECULE
tmp/5a95B00.pdb
 175 174 0 0 0
SMALL
GASTEIGER

@<TRIPOS>ATOM
      1  N          3.0460   28.3730   50.9170 N.3    78  HIS78      -0.1241
      2  CA         2.5990   29.2840   49.8770 C.3    78  HIS78       0.1621
      3  C          3.7470   29.6270   48.9500 C.2    78  HIS78       0.2264
      4  O          4.8390   29.9870   49.4220 O.2    78  HIS78      -0.2867
      5  CB         2.0260   30.5420   50.5020 C.3    78  HIS78       0.0745
      6  CG         0.6910   30.3620   51.1490 C.ar   78  HIS78       0.0817
      7  ND1        0.4430   29.4300   52.1340 N.ar   78  HIS78      -0.2268
      8  CD2       -0.4660   31.0450   50.9780 C.ar   78  HIS78       0.1154
      9  CE1       -0.8180   29.5360   52.5160 C.ar   78  HIS78       0.1986
     10  NE2       -1.3840   30.5020   51.8190 N.ar   78  HIS78      -0.2212
     11  N          0.8430   24.9760   48.4020 N.3   113  HIS113     -0.1241
     12  CA        -0.4210   25.6460   48.6410 C.3   113  HIS113      0.1621
     13  C         -0.7130   26.7630   47.6380 C.2   113  HIS113      0.2264
     14  O         -0.5750   27.9560   47.9310 O.2   113  HIS113     -0.2867
     15  CB        -0.4720   26.1580   50.0680 C.3   113  HIS113      0.0745
     16  CG        -1.8580   26.4600   50.5330 C.ar  113  HIS113      0.0817
     17  ND1       -2.6920   25.5120   51.0730 N.ar  113  HIS113     -0.2268
     18  CD2       -2.5740   27.6090   50.4730 C.ar  113  HIS113      0.1154
     19  CE1       -3.8560   26.0710   51.3550 C.ar  113  HIS113      0.1986
     20  NE2       -3.8050   27.3490   51.0170 N.ar  113  HIS113     -0.2212
     21  N         -3.7050   27.8940   44.4950 N.3   115  ILE115     -0.1245
     22  CA        -5.1170   27.8490   44.1740 C.3   115  ILE115      0.1561
     23  C         -5.2220   28.3510   42.7420 C.2   115  ILE115      0.2260
     24  O         -4.9070   29.5100   42.4670 O.2   115  ILE115     -0.2867
     25  CB        -5.9890   28.7410   45.0990 C.3   115  ILE115      0.0252
     26  CG1       -5.7560   28.4260   46.5700 C.3   115  ILE115      0.0019
     27  CG2       -7.4510   28.6220   44.6960 C.3   115  ILE115      0.0019
     28  CD1       -6.6400   29.2300   47.4870 C.3   115  ILE115      0.0001
     29  N         -5.7740   32.1550   41.6590 N.3   124  GLN124     -0.1245
     30  CA        -6.7710   32.9720   42.3340 C.3   124  GLN124      0.1566
     31  C         -6.2400   34.3210   42.8420 C.2   124  GLN124      0.2260
     32  O         -6.9580   35.3150   42.8890 O.2   124  GLN124     -0.2867
     33  CB        -7.3930   32.1570   43.4710 C.3   124  GLN124      0.0367
     34  CG        -8.3740   32.9440   44.3090 C.3   124  GLN124      0.0905
     35  CD        -9.1830   32.0540   45.2250 C.2   124  GLN124      0.2608
     36  OE1       -9.8820   31.1540   44.7530 O.2   124  GLN124     -0.2717
     37  NE2       -9.0800   32.3010   46.5200 N.am  124  GLN124     -0.0878
     38  N         -0.4660   35.4940   45.8300 N.3   127  MET127     -0.1230
     39  CA         0.2430   34.7620   46.8540 C.3   127  MET127      0.1702
     40  C          0.4050   33.3050   46.4530 C.2   127  MET127      0.2592
     41  O          1.2710   32.6080   46.9950 O.2   127  MET127     -0.2718
     42  CB        -0.4150   34.8630   48.2350 C.3   127  MET127      0.0401
     43  CG        -1.7980   34.2560   48.3400 C.3   127  MET127      0.0596
     44  SD        -2.5040   34.3670   50.0050 S.3   127  MET127     -0.1393
     45  CE        -2.9940   36.0990   50.0600 C.3   127  MET127      0.0692
     46  N         -0.4580   32.8440   45.5330 N.am  128  TYR128     -0.1976
     47  CA        -0.4460   31.4660   45.0840 C.3   128  TYR128      0.1639
     48  C          0.3080   31.2910   43.7530 C.2   128  TYR128      0.2290
     49  O          0.3890   30.1930   43.2110 O.2   128  TYR128     -0.2864
     50  CB        -1.8800   30.9790   44.8950 C.3   128  TYR128      0.0560
     51  CG        -2.7640   31.2050   46.1150 C.ar  128  TYR128     -0.0198
     52  CD1       -2.4170   30.6690   47.3480 C.ar  128  TYR128     -0.0009
     53  CD2       -3.9370   31.9510   46.0330 C.ar  128  TYR128     -0.0009
     54  CE1       -3.1850   30.8910   48.4810 C.ar  128  TYR128      0.0417
     55  CE2       -4.7170   32.1860   47.1510 C.ar  128  TYR128      0.0417
     56  CZ        -4.3420   31.6500   48.3660 C.ar  128  TYR128      0.1957
     57  OH        -5.1090   31.8910   49.4710 O.3   128  TYR128     -0.2866
     58  N         -2.5880   22.1680   46.2380 N.3   159  ASN159     -0.1225
     59  CA        -3.7150   22.3780   47.1520 C.3   159  ASN159      0.1785
     60  C         -5.1090   22.4140   46.4910 C.2   159  ASN159      0.2597
     61  O         -5.9130   21.4960   46.7360 O.2   159  ASN159     -0.2718
     62  CB        -3.4430   23.6580   47.9360 C.3   159  ASN159      0.1169
     63  CG        -4.6350   24.1850   48.6840 C.2   159  ASN159      0.2627
     64  OD1       -5.2350   23.5050   49.5050 O.2   159  ASN159     -0.2716
     65  ND2       -4.9420   25.4500   48.4320 N.am  159  ASN159     -0.0877
     66  N         -5.3990   23.4380   45.6870 N.am  160  GLU160     -0.1979
     67  CA        -6.7600   23.6030   45.1960 C.3   160  GLU160      0.1602
     68  C         -6.7980   23.9120   43.6980 C.2   160  GLU160      0.2287
     69  O         -6.7660   25.0700   43.2770 O.2   160  GLU160     -0.2864
     70  CB        -7.5020   24.6810   45.9890 C.3   160  GLU160      0.0415
     71  CG        -8.0280   24.1400   47.2960 C.3   160  GLU160      0.1163
     72  CD        -8.8140   25.1190   48.1280 C.2   160  GLU160      0.3649
     73  OE1       -8.7060   26.3320   47.9100 O.co2 160  GLU160     -0.2457
     74  OE2       -9.5450   24.6260   49.0120 O.co2 160  GLU160     -0.2457
     75  N        -11.9320   23.6160   43.4080 N.3   203  TRP203     -0.1241
     76  CA       -11.1610   23.8290   44.6330 C.3   203  TRP203      0.1605
     77  C        -11.0290   22.5470   45.4440 C.2   203  TRP203      0.2264
     78  O        -11.2910   22.5030   46.6260 O.2   203  TRP203     -0.2867
     79  CB       -11.7430   24.9600   45.4950 C.3   203  TRP203      0.0550
     80  CG       -11.6330   26.3800   44.9660 C.ar  203  TRP203      0.0003
     81  CD1      -10.7400   27.3260   45.3790 C.ar  203  TRP203      0.0946
     82  CD2      -12.5110   27.0680   44.0370 C.ar  203  TRP203      0.0152
     83  NE1      -10.9780   28.5360   44.7520 N.ar  203  TRP203     -0.2442
     84  CE2      -12.0680   28.4120   43.9420 C.ar  203  TRP203      0.0810
     85  CE3      -13.6280   26.6820   43.3070 C.ar  203  TRP203      0.0012
     86  CZ2      -12.6880   29.3460   43.1240 C.ar  203  TRP203      0.0191
     87  CZ3      -14.2440   27.6160   42.4840 C.ar  203  TRP203      0.0001
     88  CH2      -13.7770   28.9290   42.4060 C.ar  203  TRP203      0.0015
     89  N        -15.9200   21.9520   52.3060 N.3   227  TYR227     -0.1241
     90  CA       -16.4310   23.0760   53.0550 C.3   227  TYR227      0.1605
     91  C        -17.9720   23.0940   53.0180 C.2   227  TYR227      0.2264
     92  O        -18.5750   22.5240   52.1110 O.2   227  TYR227     -0.2867
     93  CB       -15.8510   24.3540   52.4930 C.3   227  TYR227      0.0534
     94  CG       -14.4510   24.6580   53.0070 C.ar  227  TYR227     -0.0201
     95  CD1      -14.2050   24.7760   54.3810 C.ar  227  TYR227     -0.0009
     96  CD2      -13.4230   24.8950   52.1500 C.ar  227  TYR227     -0.0009
     97  CE1      -12.9630   25.1100   54.8730 C.ar  227  TYR227      0.0417
     98  CE2      -12.1630   25.2390   52.6160 C.ar  227  TYR227      0.0417
     99  CZ       -11.9410   25.3470   53.9780 C.ar  227  TYR227      0.1957
    100  OH       -10.6840   25.7160   54.4240 O.3   227  TYR227     -0.2866
    101  N         -8.7260   20.1310   53.9080 N.3   262  GLN262     -0.1245
    102  CA        -9.3420   21.3250   54.4510 C.3   262  GLN262      0.1566
    103  C        -10.8110   21.0640   54.6620 C.2   262  GLN262      0.2260
    104  O        -11.4950   20.4730   53.8050 O.2   262  GLN262     -0.2867
    105  CB        -9.1830   22.5390   53.5480 C.3   262  GLN262      0.0367
    106  CG        -7.7510   22.9920   53.4520 C.3   262  GLN262      0.0905
    107  CD        -7.5190   24.2970   52.7240 C.2   262  GLN262      0.2608
    108  OE1       -6.4600   24.4890   52.1880 O.2   262  GLN262     -0.2717
    109  NE2       -8.4550   25.2260   52.8010 N.am  262  GLN262     -0.0878
    110  N        -17.0010   34.0070   54.7090 N.3   274  HIS274     -0.1241
    111  CA       -17.0720   34.1470   53.2560 C.3   274  HIS274      0.1621
    112  C        -17.5540   32.8080   52.7170 C.2   274  HIS274      0.2264
    113  O        -17.3420   31.7660   53.3380 O.2   274  HIS274     -0.2867
    114  CB       -15.6940   34.4990   52.6370 C.3   274  HIS274      0.0745
    115  CG       -14.6000   33.4970   52.9160 C.ar  274  HIS274      0.0817
    116  ND1      -13.8900   33.4690   54.1010 N.ar  274  HIS274     -0.2268
    117  CD2      -14.0870   32.4950   52.1580 C.ar  274  HIS274      0.1154
    118  CE1      -13.0010   32.4920   54.0690 C.ar  274  HIS274      0.1986
    119  NE2      -13.0950   31.8880   52.8970 N.ar  274  HIS274     -0.2212
    120  N        -17.4020   28.9100   53.4200 N.3   277  VAL277     -0.1245
    121  CA       -17.1350   28.4470   54.7780 C.3   277  VAL277      0.1561
    122  C        -18.2090   28.8270   55.8210 C.2   277  VAL277      0.2260
    123  O        -18.0250   28.5660   57.0080 O.2   277  VAL277     -0.2867
    124  CB       -15.7190   28.8510   55.2620 C.3   277  VAL277      0.0252
    125  CG1      -14.6600   28.3430   54.2860 C.3   277  VAL277      0.0019
    126  CG2      -15.5910   30.3600   55.5030 C.3   277  VAL277      0.0019
    127  N         -9.0390   23.2550   58.7750 N.3   301  TRP301     -0.1241
    128  CA        -8.5230   24.5750   58.4510 C.3   301  TRP301      0.1605
    129  C         -9.2130   25.6000   59.3730 C.2   301  TRP301      0.2264
    130  O        -10.4320   25.6710   59.3300 O.2   301  TRP301     -0.2867
    131  CB        -8.8120   24.9120   56.9780 C.3   301  TRP301      0.0550
    132  CG        -8.2770   26.2530   56.5710 C.ar  301  TRP301      0.0003
    133  CD1       -8.8830   27.4660   56.7250 C.ar  301  TRP301      0.0946
    134  CD2       -6.9880   26.5260   55.9910 C.ar  301  TRP301      0.0152
    135  NE1       -8.0670   28.4760   56.2630 N.ar  301  TRP301     -0.2442
    136  CE2       -6.8960   27.9240   55.8180 C.ar  301  TRP301      0.0810
    137  CE3       -5.9250   25.7280   55.5810 C.ar  301  TRP301      0.0012
    138  CZ2       -5.7910   28.5370   55.2800 C.ar  301  TRP301      0.0191
    139  CZ3       -4.7980   26.3340   55.0570 C.ar  301  TRP301      0.0001
    140  CH2       -4.7380   27.7380   54.9040 C.ar  301  TRP301      0.0015
    141  N         -5.6200   34.4230   62.8380 N.3   306  ASP306     -0.1225
    142  CA        -5.7760   35.4580   61.8050 C.3   306  ASP306      0.1805
    143  C         -6.4400   34.9240   60.5470 C.2   306  ASP306      0.2598
    144  O         -7.3710   35.5280   60.0150 O.2   306  ASP306     -0.2718
    145  CB        -4.4230   36.0890   61.4440 C.3   306  ASP306      0.1424
    146  CG        -3.7110   36.6380   62.6510 C.2   306  ASP306      0.3668
    147  OD1       -4.3290   37.4300   63.4070 O.co2 306  ASP306     -0.2456
    148  OD2       -2.5380   36.2770   62.8640 O.co2 306  ASP306     -0.2456
    149  N         -5.9210   33.8220   60.0460 N.am  307  TRP307     -0.1962
    150  CA        -6.4750   33.1760   58.8730 C.3   307  TRP307      0.1771
    151  C         -7.7640   32.4380   59.2320 C.2   307  TRP307      0.2620
    152  O         -7.8380   31.7630   60.2620 O.2   307  TRP307     -0.2715
    153  CB        -5.4380   32.2220   58.2970 C.3   307  TRP307      0.0590
    154  CG        -4.2720   32.8870   57.6160 C.ar  307  TRP307      0.0006
    155  CD1       -3.9680   34.2240   57.5800 C.ar  307  TRP307      0.0946
    156  CD2       -3.2590   32.2230   56.8800 C.ar  307  TRP307      0.0152
    157  NE1       -2.8270   34.4270   56.8460 N.ar  307  TRP307     -0.2442
    158  CE2       -2.3670   33.2080   56.4150 C.ar  307  TRP307      0.0810
    159  CE3       -3.0150   30.8910   56.5800 C.ar  307  TRP307      0.0012
    160  CZ2       -1.2650   32.8910   55.6230 C.ar  307  TRP307      0.0191
    161  CZ3       -1.9260   30.5710   55.8020 C.ar  307  TRP307      0.0001
    162  CH2       -1.0580   31.5540   55.3450 C.ar  307  TRP307      0.0015
    163  N         -8.7590   32.5420   58.3660 N.am  308  SER308     -0.1936
    164  CA       -10.0800   32.0460   58.6770 C.3   308  SER308      0.2040
    165  C        -10.5170   30.9320   57.7420 C.2   308  SER308      0.2485
    166  O         -9.9830   30.7790   56.6280 O.2   308  SER308     -0.2729
    167  CB       -11.0780   33.1940   58.6080 C.3   308  SER308      0.2129
    168  OG       -11.1310   33.7310   57.3170 O.3   308  SER308     -0.2179
    169  N        -11.4950   30.1260   58.1700 N.am  309  PRO309     -0.2726
    170  CA       -12.0810   30.1070   59.5010 C.3   309  PRO309      0.1402
    171  C        -11.0950   29.6480   60.5730 C.2   309  PRO309      0.2269
    172  O        -10.4010   28.6370   60.4000 O.2   309  PRO309     -0.2865
    173  CB       -13.2380   29.0950   59.3600 C.3   309  PRO309      0.0296
    174  CG       -12.7680   28.1920   58.2530 C.3   309  PRO309      0.0237
    175  CD       -12.1370   29.1350   57.2870 C.3   309  PRO309      0.0939
@<TRIPOS>BOND
     1    29    30    1
     2    30    31    1
     3    30    33    1
     4    88    87   ar
     5    88    86   ar
     6    24    23    2
     7    87    85   ar
     8    23    22    1
     9    31    32    2
    10    86    84   ar
    11    49    48    2
    12    69    68    2
    13    85    82   ar
    14    75    76    1
    15    33    34    1
    16    68    67    1
    17    48    47    1
    18    84    82   ar
    19    84    83   ar
    20    82    80   ar
    21    22    21    1
    22    22    25    1
    23    34    35    1
    24    76    77    1
    25    76    79    1
    26    27    25    1
    27    83    81   ar
    28    36    35    2
    29    50    47    1
    30    50    51    1
    31    80    81   ar
    32    80    79    1
    33    47    46    1
    34    25    26    1
    35    67    66    1
    36    67    70    1
    37    35    37   am
    38    77    78    2
    39    46    40   am
    40    66    60   am
    41    38    39    1
    42    70    71    1
    43    53    51   ar
    44    53    55   ar
    45    51    52   ar
    46    58    59    1
    47    40    39    1
    48    40    41    2
    49    60    61    2
    50    60    59    1
    51    26    28    1
    52    39    42    1
    53    55    56   ar
    54    59    62    1
    55    71    72    1
    56    52    54   ar
    57    13    14    2
    58    13    12    1
    59    73    72   ar
    60    62    63    1
    61    72    74   ar
    62    42    43    1
    63    43    44    1
    64    56    54   ar
    65    56    57    1
    66    11    12    1
    67    65    63   am
    68    12    15    1
    69    63    64    2
    70     3     4    2
    71     3     2    1
    72     2     5    1
    73     2     1    1
    74    44    45    1
    75    15    16    1
    76    18    16   ar
    77    18    20   ar
    78     5     6    1
    79    16    17   ar
    80     8     6   ar
    81     8    10   ar
    82    20    19   ar
    83    17    19   ar
    84     6     7   ar
    85    10     9   ar
    86    92    91    2
    87     7     9   ar
    88    96    98   ar
    89    96    94   ar
    90   117   119   ar
    91   117   115   ar
    92   108   107    2
    93    89    90    1
    94    93    94    1
    95    93    90    1
    96    98    99   ar
    97   114   115    1
    98   114   111    1
    99   112   111    1
   100   112   113    2
   101   107   109   am
   102   107   106    1
   103   119   118   ar
   104   115   116   ar
   105    94    95   ar
   106    91    90    1
   107   111   110    1
   108   120   121    1
   109   106   105    1
   110   105   102    1
   111   104   103    2
   112   101   102    1
   113    99   100    1
   114    99    97   ar
   115   118   116   ar
   116   125   124    1
   117    95    97   ar
   118   102   103    1
   119   121   124    1
   120   121   122    1
   121   140   139   ar
   122   140   138   ar
   123   139   137   ar
   124   124   126    1
   125   138   136   ar
   126   162   160   ar
   127   162   161   ar
   128   137   134   ar
   129   160   158   ar
   130   161   159   ar
   131   136   134   ar
   132   136   135   ar
   133   122   123    2
   134   134   132   ar
   135   135   133   ar
   136   158   157   ar
   137   158   156   ar
   138   132   133   ar
   139   132   131    1
   140   159   156   ar
   141   166   165    2
   142   157   155   ar
   143   156   154   ar
   144   131   128    1
   145   175   169    1
   146   175   174    1
   147   168   167    1
   148   155   154   ar
   149   154   153    1
   150   165   169   am
   151   165   164    1
   152   169   170    1
   153   174   173    1
   154   153   150    1
   155   163   164    1
   156   163   151   am
   157   128   127    1
   158   128   129    1
   159   167   164    1
   160   150   151    1
   161   150   149    1
   162   151   152    2
   163   130   129    2
   164   173   170    1
   165   170   171    1
   166   144   143    2
   167   149   143   am
   168   172   171    2
   169   143   142    1
   170   145   142    1
   171   145   146    1
   172   142   141    1
   173   146   148   ar
   174   146   147   ar
