@<TRIPOS>MOLECULE
tmp/5a9fA00.pdb
 130 125 0 0 0
SMALL
GASTEIGER

@<TRIPOS>ATOM
      1  N         37.2210   42.4250   53.7360 N.3    21  PHE21      -0.1241
      2  CA        37.8900   41.4080   52.9300 C.3    21  PHE21       0.1605
      3  C         39.2660   41.9730   52.5470 C.2    21  PHE21       0.2264
      4  O         39.3920   42.8010   51.6450 O.2    21  PHE21      -0.2867
      5  CB        37.0680   41.0190   51.6950 C.3    21  PHE21       0.0534
      6  CG        37.3280   39.6120   51.2060 C.ar   21  PHE21      -0.0203
      7  CD1       38.5210   39.2740   50.5850 C.ar   21  PHE21      -0.0042
      8  CD2       36.3750   38.6200   51.3960 C.ar   21  PHE21      -0.0042
      9  CE1       38.7500   37.9740   50.1500 C.ar   21  PHE21      -0.0003
     10  CE2       36.5980   37.3240   50.9640 C.ar   21  PHE21      -0.0003
     11  CZ        37.7850   37.0000   50.3410 C.ar   21  PHE21      -0.0000
     12  N         42.8530   44.0620   52.8220 N.3    23  VAL23      -0.1245
     13  CA        43.2020   45.4660   53.0740 C.3    23  VAL23       0.1561
     14  C         43.5720   45.8750   54.5150 C.2    23  VAL23       0.2260
     15  O         42.8250   46.5900   55.1900 O.2    23  VAL23      -0.2867
     16  CB        42.0720   46.4160   52.6230 C.3    23  VAL23       0.0252
     17  CG1       42.6200   47.8250   52.4110 C.3    23  VAL23       0.0019
     18  CG2       41.4250   45.9010   51.3440 C.3    23  VAL23       0.0019
     19  N         47.2000   46.3010   55.0440 N.3    25  LYS25      -0.1231
     20  CA        48.3850   47.0390   54.6240 C.3    25  LYS25       0.1693
     21  C         48.1690   47.4280   53.1720 C.2    25  LYS25       0.2592
     22  O         47.3540   46.8270   52.4720 O.2    25  LYS25      -0.2718
     23  CB        49.6900   46.2530   54.7830 C.3    25  LYS25       0.0285
     24  CG        50.4700   46.5670   56.0560 C.3    25  LYS25       0.0035
     25  CD        51.8680   45.9530   55.9990 C.3    25  LYS25       0.0206
     26  CE        52.7830   46.5290   57.0740 C.3    25  LYS25       0.1093
     27  NZ        54.1970   46.0950   56.8870 N.3    25  LYS25      -0.1314
     28  N         48.9130   48.4280   52.7230 N.am   26  MET26      -0.1965
     29  CA        48.8300   48.8850   51.3480 C.3    26  MET26       0.1736
     30  C         49.9130   48.2500   50.4800 C.2    26  MET26       0.2616
     31  O         50.2920   47.0970   50.6880 O.2    26  MET26      -0.2715
     32  CB        48.9490   50.4110   51.3280 C.3    26  MET26       0.0427
     33  CG        47.7410   51.1190   51.9380 C.3    26  MET26       0.0599
     34  SD        47.9180   52.9040   52.1580 S.3    26  MET26      -0.1393
     35  CE        48.4880   53.4240   50.5490 C.3    26  MET26       0.0692
     36  N         50.3830   49.0030   49.4940 N.am   27  PHE27      -0.1974
     37  CA        51.4820   48.5880   48.6300 C.3    27  PHE27       0.1639
     38  C         52.6050   49.6120   48.6370 C.2    27  PHE27       0.2290
     39  O         52.4290   50.7350   49.1140 O.2    27  PHE27      -0.2864
     40  CB        50.9970   48.3220   47.2040 C.3    27  PHE27       0.0560
     41  CG        50.1760   47.0720   47.0750 C.ar   27  PHE27      -0.0200
     42  CD1       50.5440   45.9230   47.7520 C.ar   27  PHE27      -0.0042
     43  CD2       49.0500   47.0370   46.2750 C.ar   27  PHE27      -0.0042
     44  CE1       49.8010   44.7660   47.6410 C.ar   27  PHE27      -0.0003
     45  CE2       48.3030   45.8770   46.1600 C.ar   27  PHE27      -0.0003
     46  CZ        48.6810   44.7430   46.8450 C.ar   27  PHE27      -0.0000
     47  N         51.4680   52.5820   46.3750 N.3    30  GLN30      -0.1245
     48  CA        50.3110   53.3550   46.8240 C.3    30  GLN30       0.1566
     49  C         50.6240   54.4020   47.8890 C.2    30  GLN30       0.2260
     50  O         50.0020   55.4630   47.9260 O.2    30  GLN30      -0.2867
     51  CB        49.2330   52.4010   47.3380 C.3    30  GLN30       0.0367
     52  CG        48.5350   51.6170   46.2460 C.3    30  GLN30       0.0905
     53  CD        47.5090   50.6500   46.7900 C.2    30  GLN30       0.2608
     54  OE1       47.5450   50.2890   47.9650 O.2    30  GLN30      -0.2717
     55  NE2       46.5860   50.2220   45.9370 N.am   30  GLN30      -0.0878
     56  N         47.2460   46.8770   35.2870 N.3    51  THR51      -0.1203
     57  CA        45.9110   46.4310   35.6530 C.3    51  THR51       0.1994
     58  C         45.9860   45.4470   36.8150 C.2    51  THR51       0.2619
     59  O         46.9550   44.6970   36.9340 O.2    51  THR51      -0.2717
     60  CB        45.1950   45.7900   34.4460 C.3    51  THR51       0.1784
     61  OG1       43.9670   45.1890   34.8710 O.3    51  THR51      -0.2211
     62  CG2       46.0780   44.7310   33.8080 C.3    51  THR51       0.0376
     63  N         44.9660   45.4690   37.6700 N.am   52  SER52      -0.1937
     64  CA        44.9110   44.6360   38.8730 C.3    52  SER52       0.2055
     65  C         46.0800   44.9160   39.8150 C.2    52  SER52       0.2643
     66  O         46.6760   43.9900   40.3570 O.2    52  SER52      -0.2714
     67  CB        44.8730   43.1500   38.4980 C.3    52  SER52       0.2130
     68  OG        46.1450   42.6980   38.0660 O.3    52  SER52      -0.2179
     69  N         46.3720   46.1920   40.0530 N.am   53  ALA53      -0.1963
     70  CA        47.4620   46.5610   40.9520 C.3    53  ALA53       0.1728
     71  C         46.9770   47.3510   42.1570 C.2    53  ALA53       0.2617
     72  O         47.7310   47.5670   43.1050 O.2    53  ALA53      -0.2715
     73  CB        48.5170   47.3590   40.2020 C.3    53  ALA53       0.0334
     74  N         45.7220   47.7850   42.1210 N.am   54  GLY54      -0.1940
     75  CA        45.1390   48.4670   43.2600 C.3    54  GLY54       0.2014
     76  C         44.9380   49.9540   43.0500 C.2    54  GLY54       0.2639
     77  O         45.0770   50.7430   43.9830 O.2    54  GLY54      -0.2714
     78  N         44.6160   50.3390   41.8190 N.am   55  LYS55      -0.1963
     79  CA        44.4040   51.7420   41.4830 C.3    55  LYS55       0.1728
     80  C         43.1680   52.3150   42.1780 C.2    55  LYS55       0.2617
     81  O         43.0680   53.5260   42.3720 O.2    55  LYS55      -0.2715
     82  CB        44.2850   51.9300   39.9660 C.3    55  LYS55       0.0311
     83  CG        45.5940   51.7540   39.2110 C.3    55  LYS55       0.0038
     84  CD        45.5170   52.3270   37.8000 C.3    55  LYS55       0.0206
     85  CE        44.6030   51.5090   36.9020 C.3    55  LYS55       0.1093
     86  NZ        45.0940   50.1190   36.7010 N.3    55  LYS55      -0.1314
     87  N         42.2260   51.4490   42.5420 N.am   56  THR56      -0.1937
     88  CA        40.9810   51.9060   43.1540 C.3    56  THR56       0.2028
     89  C         41.1790   52.4740   44.5570 C.2    56  THR56       0.2642
     90  O         40.5840   53.4940   44.9000 O.2    56  THR56      -0.2714
     91  CB        39.9480   50.7640   43.2520 C.3    56  THR56       0.1808
     92  OG1       40.6120   49.5370   43.5780 O.3    56  THR56      -0.2208
     93  CG2       39.1890   50.6070   41.9450 C.3    56  THR56       0.0379
     94  N         42.0080   51.8190   45.3630 N.am   57  LEU57      -0.1977
     95  CA        42.2190   52.2520   46.7430 C.3    57  LEU57       0.1596
     96  C         42.7900   53.6680   46.8310 C.2    57  LEU57       0.2287
     97  O         42.4010   54.4480   47.6980 O.2    57  LEU57      -0.2864
     98  CB        43.1370   51.2750   47.4790 C.3    57  LEU57       0.0297
     99  CG        43.3530   51.6170   48.9560 C.3    57  LEU57       0.0022
    100  CD1       42.2730   50.9770   49.8150 C.3    57  LEU57       0.0001
    101  CD2       44.7350   51.1970   49.4250 C.3    57  LEU57       0.0001
    102  N         29.7430   49.2900   44.4160 N.3    90  TYR90      -0.1241
    103  CA        30.9930   49.0460   45.1220 C.3    90  TYR90       0.1605
    104  C         31.2810   50.2230   46.0450 C.2    90  TYR90       0.2264
    105  O         31.8130   50.0550   47.1400 O.2    90  TYR90      -0.2867
    106  CB        32.1360   48.8260   44.1260 C.3    90  TYR90       0.0534
    107  CG        33.5240   48.7520   44.7300 C.ar   90  TYR90      -0.0201
    108  CD1       33.9850   47.5820   45.3210 C.ar   90  TYR90      -0.0009
    109  CD2       34.3840   49.8410   44.6790 C.ar   90  TYR90      -0.0009
    110  CE1       35.2580   47.5070   45.8610 C.ar   90  TYR90       0.0417
    111  CE2       35.6570   49.7750   45.2150 C.ar   90  TYR90       0.0417
    112  CZ        36.0890   48.6070   45.8050 C.ar   90  TYR90       0.1957
    113  OH        37.3570   48.5410   46.3380 O.3    90  TYR90      -0.2866
    114  N         35.6580   44.2480   35.5360 N.3   369  ASN369     -0.1240
    115  CA        36.8050   43.5190   36.0620 C.3   369  ASN369      0.1653
    116  C         36.4550   42.0390   36.2200 C.2   369  ASN369      0.2266
    117  O         35.5740   41.6860   37.0020 O.2   369  ASN369     -0.2867
    118  CB        37.2710   44.1140   37.3910 C.3   369  ASN369      0.1155
    119  CG        38.4430   43.3570   37.9870 C.2   369  ASN369      0.2627
    120  OD1       39.2380   42.7480   37.2670 O.2   369  ASN369     -0.2716
    121  ND2       38.5660   43.4020   39.3090 N.am  369  ASN369     -0.0877
    122  N         44.5170   38.0620   42.2100 N.3   402  LYS402     -0.1245
    123  CA        45.2420   38.5010   43.3970 C.3   402  LYS402      0.1561
    124  C         44.8150   37.6910   44.6180 C.2   402  LYS402      0.2260
    125  O         43.6420   37.6870   44.9940 O.2   402  LYS402     -0.2867
    126  CB        45.0110   39.9940   43.6460 C.3   402  LYS402      0.0271
    127  CG        45.7550   40.5930   44.8160 C.3   402  LYS402      0.0035
    128  CD        45.8870   42.0860   44.5920 C.3   402  LYS402      0.0206
    129  CE        44.5390   42.7780   44.7390 C.3   402  LYS402      0.1093
    130  NZ        44.6090   44.2420   44.7990 N.3   402  LYS402     -0.1314
@<TRIPOS>BOND
     1    62    60    1
     2    60    61    1
     3    60    57    1
     4    56    57    1
     5   114   115    1
     6    57    58    1
     7   115   116    1
     8   115   118    1
     9   116   117    2
    10    86    85    1
    11    58    59    2
    12    58    63   am
    13    85    84    1
    14   120   119    2
    15   118   119    1
    16    63    64    1
    17    84    83    1
    18   119   121   am
    19    68    67    1
    20    67    64    1
    21    64    65    1
    22    83    82    1
    23    65    69   am
    24    65    66    2
    25    82    79    1
    26    69    70    1
    27    73    70    1
    28    70    71    1
    29    79    78    1
    30    79    80    1
    31    78    76   am
    32    93    91    1
    33    74    71   am
    34    74    75    1
    35    71    72    2
    36    80    81    2
    37    80    87   am
    38   122   123    1
    39    87    88    1
    40    76    75    1
    41    76    77    2
    42    88    91    1
    43    88    89    1
    44    91    92    1
    45   123   126    1
    46   123   124    1
    47   126   127    1
    48   106   107    1
    49   106   103    1
    50   102   103    1
    51    89    90    2
    52    89    94   am
    53   128   129    1
    54   128   127    1
    55   124   125    2
    56   109   107   ar
    57   109   111   ar
    58   107   108   ar
    59   129   130    1
    60   103   104    1
    61   111   112   ar
    62   108   110   ar
    63    94    95    1
    64   112   110   ar
    65   112   113    1
    66    55    53   am
    67   104   105    2
    68    45    43   ar
    69    45    46   ar
    70    52    53    1
    71    52    51    1
    72    43    41   ar
    73    47    48    1
    74    95    96    1
    75    95    98    1
    76    53    54    2
    77    48    51    1
    78    48    49    1
    79    96    97    2
    80    46    44   ar
    81    41    40    1
    82    41    42   ar
    83    40    37    1
    84    98    99    1
    85    44    42   ar
    86    49    50    2
    87    37    38    1
    88    37    36    1
    89    38    39    2
    90    99   101    1
    91    99   100    1
    92    36    30   am
    93     9    11   ar
    94     9     7   ar
    95    11    10   ar
    96    30    31    2
    97    30    29    1
    98    35    34    1
    99     7     6   ar
   100    10     8   ar
   101     6     8   ar
   102     6     5    1
   103    32    29    1
   104    32    33    1
   105    18    16    1
   106    29    28    1
   107     4     3    2
   108     5     2    1
   109    33    34    1
   110    17    16    1
   111    22    21    2
   112     3     2    1
   113    16    13    1
   114    28    21   am
   115    12    13    1
   116     2     1    1
   117    13    14    1
   118    21    20    1
   119    14    15    2
   120    20    23    1
   121    20    19    1
   122    23    24    1
   123    25    24    1
   124    25    26    1
   125    27    26    1
