@<TRIPOS>MOLECULE
tmp/5a9sA00.pdb
 190 186 0 0 0
SMALL
GASTEIGER

@<TRIPOS>ATOM
      1  N         26.6710   -4.9320  -28.9260 N.3    11  GLY11      -0.1210
      2  CA        27.8860   -4.3690  -29.4420 C.3    11  GLY11       0.1956
      3  C         29.0570   -5.0080  -28.7020 C.2    11  GLY11       0.2612
      4  O         29.1980   -4.8040  -27.5180 O.2    11  GLY11      -0.2717
      5  N         29.9230   -5.7440  -29.3980 N.am   12  LEU12      -0.1965
      6  CA        31.0210   -6.5130  -28.8020 C.3    12  LEU12       0.1728
      7  C         32.3610   -6.1410  -29.4290 C.2    12  LEU12       0.2617
      8  O         33.2890   -6.9700  -29.5170 O.2    12  LEU12      -0.2715
      9  CB        30.7830   -8.0220  -28.8890 C.3    12  LEU12       0.0311
     10  CG        29.5840   -8.5620  -28.1450 C.3    12  LEU12       0.0022
     11  CD1       29.4750  -10.0740  -28.3210 C.3    12  LEU12       0.0001
     12  CD2       29.6570   -8.2360  -26.6630 C.3    12  LEU12       0.0001
     13  N         32.5050   -4.8780  -29.7870 N.am   13  GLY13      -0.1941
     14  CA        33.8380   -4.3060  -30.0000 C.3    13  GLY13       0.1998
     15  C         34.6630   -4.3440  -28.7180 C.2    13  GLY13       0.2481
     16  O         34.2460   -4.9220  -27.7100 O.2    13  GLY13      -0.2729
     17  N         35.8800   -3.7720  -28.7520 N.am   14  PRO14      -0.2715
     18  CA        36.7350   -3.8350  -27.5540 C.3    14  PRO14       0.1536
     19  C         35.9830   -3.3100  -26.2950 C.2    14  PRO14       0.2598
     20  O         36.0040   -3.9490  -25.2330 O.2    14  PRO14      -0.2715
     21  CB        37.9160   -2.9370  -27.9430 C.3    14  PRO14       0.0310
     22  CG        37.9810   -3.0270  -29.4520 C.3    14  PRO14       0.0237
     23  CD        36.5530   -3.1170  -29.8930 C.3    14  PRO14       0.0939
     24  N         35.2390   -2.2360  -26.4470 N.am   15  MET15      -0.1964
     25  CA        34.4840   -1.6770  -25.3180 C.3    15  MET15       0.1736
     26  C         33.2730   -2.4850  -24.8770 C.2    15  MET15       0.2617
     27  O         33.0930   -2.7580  -23.6930 O.2    15  MET15      -0.2715
     28  CB        34.0990   -0.2320  -25.6110 C.3    15  MET15       0.0427
     29  CG        33.4880    0.5050  -24.4050 C.3    15  MET15       0.0599
     30  SD        34.6450    0.5350  -22.9930 S.3    15  MET15      -0.1393
     31  CE        35.6720    1.9290  -23.3570 C.3    15  MET15       0.0692
     32  N         32.4120   -2.8540  -25.8140 N.am   16  GLY16      -0.1955
     33  CA        31.2970   -3.7470  -25.4950 C.3    16  GLY16       0.1869
     34  C         31.6600   -5.0680  -24.8310 C.2    16  GLY16       0.2309
     35  O         30.9710   -5.5240  -23.9250 O.2    16  GLY16      -0.2863
     36  N         25.1140   -9.6660  -27.8990 N.3    33  TRP33      -0.1227
     37  CA        24.7810   -9.6020  -29.2990 C.3    33  TRP33       0.1737
     38  C         25.7570   -8.7150  -29.9970 C.2    33  TRP33       0.2595
     39  O         26.1690   -7.7260  -29.4580 O.2    33  TRP33      -0.2718
     40  CB        23.3870   -9.0350  -29.4970 C.3    33  TRP33       0.0564
     41  CG        22.9650   -8.8510  -30.9950 C.ar   33  TRP33       0.0003
     42  CD1       22.3770   -9.7730  -31.7840 C.ar   33  TRP33       0.0946
     43  CD2       23.1460   -7.6840  -31.8220 C.ar   33  TRP33       0.0152
     44  NE1       22.1480   -9.2750  -33.0260 N.ar   33  TRP33      -0.2442
     45  CE2       22.5950   -7.9890  -33.0880 C.ar   33  TRP33       0.0810
     46  CE3       23.6970   -6.4190  -31.6160 C.ar   33  TRP33       0.0012
     47  CZ2       22.5880   -7.0800  -34.1590 C.ar   33  TRP33       0.0191
     48  CZ3       23.6860   -5.4850  -32.7060 C.ar   33  TRP33       0.0001
     49  CH2       23.1090   -5.8310  -33.9460 C.ar   33  TRP33       0.0015
     50  N         26.1310   -9.0980  -31.2000 N.am   34  ASN34      -0.1960
     51  CA        26.9050   -8.2600  -32.1170 C.3    34  ASN34       0.1819
     52  C         26.4400   -8.5160  -33.5530 C.2    34  ASN34       0.2621
     53  O         26.0380   -9.6350  -33.8690 O.2    34  ASN34      -0.2715
     54  CB        28.3890   -8.6190  -31.9660 C.3    34  ASN34       0.1195
     55  CG        29.3490   -7.6400  -32.6720 C.2    34  ASN34       0.2630
     56  OD1       30.0840   -8.0180  -33.6060 O.2    34  ASN34      -0.2716
     57  ND2       29.3420   -6.4070  -32.2530 N.am   34  ASN34      -0.0877
     58  N         26.5600   -7.5240  -34.4360 N.am   35  ARG35      -0.1963
     59  CA        26.2400   -7.7650  -35.8600 C.3    35  ARG35       0.1729
     60  C         27.1590   -8.8170  -36.4940 C.2    35  ARG35       0.2616
     61  O         26.6890   -9.8480  -37.0000 O.2    35  ARG35      -0.2715
     62  CB        26.2360   -6.4520  -36.6410 C.3    35  ARG35       0.0348
     63  CG        25.9470   -6.5900  -38.1310 C.3    35  ARG35       0.0492
     64  CD        26.3040   -5.3460  -38.9240 C.3    35  ARG35       0.2205
     65  NE        27.6430   -4.8620  -38.5820 N.pl3  35  ARG35      -0.0865
     66  CZ        28.1420   -3.6830  -38.9320 C.cat  35  ARG35       0.5346
     67  NH1       27.4450   -2.8290  -39.6780 N.pl3  35  ARG35       0.1354
     68  NH2       29.3570   -3.3460  -38.5080 N.pl3  35  ARG35       0.1354
     69  N         28.4630   -8.5780  -36.4710 N.am   36  SER36      -0.1950
     70  CA        29.4020   -9.5350  -36.9870 C.3    36  SER36       0.1924
     71  C         29.5290  -10.7180  -36.0170 C.2    36  SER36       0.2314
     72  O         29.8170  -10.4970  -34.8320 O.2    36  SER36      -0.2863
     73  CB        30.7780   -8.9180  -37.1550 C.3    36  SER36       0.2116
     74  OG        30.6570   -7.7920  -37.9760 O.3    36  SER36      -0.2180
     75  N         32.8690  -12.4880  -32.4700 N.3    39  LYS39      -0.1245
     76  CA        33.2900  -11.7600  -31.2730 C.3    39  LYS39       0.1561
     77  C         32.7300  -12.2390  -29.9260 C.2    39  LYS39       0.2260
     78  O         33.2480  -11.9110  -28.8800 O.2    39  LYS39      -0.2867
     79  CB        32.9880  -10.2870  -31.4870 C.3    39  LYS39       0.0271
     80  CG        33.9050   -9.7500  -32.5700 C.3    39  LYS39       0.0035
     81  CD        33.5250   -8.3740  -33.0790 C.3    39  LYS39       0.0206
     82  CE        34.6180   -7.7690  -33.9250 C.3    39  LYS39       0.1093
     83  NZ        34.3250   -6.3120  -34.0730 N.3    39  LYS39      -0.1314
     84  N         26.4320   -0.4320  -26.8460 N.3    67  CYS67      -0.1221
     85  CA        27.7570    0.0940  -27.0980 C.3    67  CYS67       0.1808
     86  C         28.1390   -0.1790  -28.5520 C.2    67  CYS67       0.2601
     87  O         28.9270   -1.0630  -28.8690 O.2    67  CYS67      -0.2717
     88  CB        28.7890   -0.5030  -26.1530 C.3    67  CYS67       0.0970
     89  SG        30.2830    0.5100  -26.2180 S.3    67  CYS67      -0.0800
     90  N         27.5090    0.5790  -29.4390 N.am   68  LEU68      -0.1965
     91  CA        27.7520    0.4450  -30.8630 C.3    68  LEU68       0.1728
     92  C         28.7980    1.4170  -31.3160 C.2    68  LEU68       0.2616
     93  O         29.0750    2.4060  -30.6380 O.2    68  LEU68      -0.2715
     94  CB        26.4540    0.6310  -31.6010 C.3    68  LEU68       0.0311
     95  CG        25.4370   -0.4330  -31.1570 C.3    68  LEU68       0.0022
     96  CD1       24.0790   -0.1450  -31.7490 C.3    68  LEU68       0.0001
     97  CD2       25.9120   -1.8400  -31.4840 C.3    68  LEU68       0.0001
     98  N         29.2920    1.2180  -32.5250 N.am   69  ALA69      -0.1963
     99  CA        30.2530    2.1860  -33.1370 C.3    69  ALA69       0.1728
    100  C         29.6340    3.4870  -33.5970 C.2    69  ALA69       0.2616
    101  O         30.3490    4.5210  -33.6760 O.2    69  ALA69      -0.2715
    102  CB        30.9190    1.5660  -34.3360 C.3    69  ALA69       0.0334
    103  N         28.3380    3.3910  -33.9640 N.am   70  ASP70      -0.1971
    104  CA        27.5690    4.3540  -34.8500 C.3    70  ASP70       0.1709
    105  C         28.2820    5.6920  -35.1300 C.2    70  ASP70       0.2293
    106  O         29.0700    5.7420  -36.0620 O.2    70  ASP70      -0.2864
    107  CB        26.1270    4.5730  -34.2440 C.3    70  ASP70       0.1436
    108  CG        26.2090    4.8580  -32.7620 C.2    70  ASP70       0.3671
    109  OD1       27.2720    5.3990  -32.3730 O.co2  70  ASP70      -0.2456
    110  OD2       25.3040    4.4920  -31.9730 O.co2  70  ASP70      -0.2456
    111  N         22.2620    2.7730  -33.8540 N.3    71  LEU71      -0.1245
    112  CA        21.2990    2.3580  -32.8170 C.3    71  LEU71       0.1561
    113  C         19.9280    2.0690  -33.3800 C.2    71  LEU71       0.2260
    114  O         19.2450    1.1310  -32.9480 O.2    71  LEU71      -0.2867
    115  CB        21.0830    3.4490  -31.7690 C.3    71  LEU71       0.0270
    116  CG        19.9940    3.1890  -30.6960 C.3    71  LEU71       0.0019
    117  CD1       20.3300    2.0720  -29.7080 C.3    71  LEU71       0.0001
    118  CD2       19.6990    4.4240  -29.9080 C.3    71  LEU71       0.0001
    119  N         19.2650    1.4470  -36.4270 N.3    73  SER73      -0.1202
    120  CA        19.3830    0.4220  -37.4000 C.3    73  SER73       0.2020
    121  C         19.5290   -0.9130  -36.6680 C.2    73  SER73       0.2618
    122  O         19.0330   -1.9290  -37.1260 O.2    73  SER73      -0.2717
    123  CB        20.5800    0.7140  -38.3470 C.3    73  SER73       0.2103
    124  OG        21.6470   -0.1810  -38.1040 O.3    73  SER73      -0.2182
    125  N         20.2710   -0.9290  -35.5580 N.am   74  ALA74      -0.1979
    126  CA        20.5720   -2.1940  -34.8870 C.3    74  ALA74       0.1597
    127  C         19.3500   -2.6830  -34.1530 C.2    74  ALA74       0.2287
    128  O         19.0780   -3.8710  -34.1540 O.2    74  ALA74      -0.2864
    129  CB        21.7520   -2.0630  -33.9330 C.3    74  ALA74       0.0319
    130  N         25.6550    3.8880  -24.5280 N.3    90  LEU90      -0.1231
    131  CA        27.0050    4.2890  -24.1380 C.3    90  LEU90       0.1693
    132  C         27.8590    4.7600  -25.3130 C.2    90  LEU90       0.2592
    133  O         29.0700    4.8940  -25.1700 O.2    90  LEU90      -0.2718
    134  CB        27.6660    3.1320  -23.4130 C.3    90  LEU90       0.0284
    135  CG        27.6670    2.9820  -21.8820 C.3    90  LEU90       0.0019
    136  CD1       26.9570    4.0040  -21.0450 C.3    90  LEU90       0.0001
    137  CD2       27.2890    1.6170  -21.4420 C.3    90  LEU90       0.0001
    138  N         27.2210    5.0010  -26.4330 N.am   91  ASN91      -0.1974
    139  CA        27.9390    5.4880  -27.5500 C.3    91  ASN91       0.1688
    140  C         27.3320    6.4950  -28.4860 C.2    91  ASN91       0.2292
    141  O         27.4740    6.3570  -29.6820 O.2    91  ASN91      -0.2864
    142  CB        28.7510    4.4270  -28.3030 C.3    91  ASN91       0.1181
    143  CG        29.9270    5.0270  -29.0990 C.2    91  ASN91       0.2629
    144  OD1       30.4860    6.0100  -28.7110 O.2    91  ASN91      -0.2716
    145  ND2       30.2760    4.4270  -30.2040 N.am   91  ASN91      -0.0877
    146  N         31.6470    6.8390  -21.3330 N.3   117  ILE117     -0.1231
    147  CA        32.6150    5.9860  -20.6660 C.3   117  ILE117      0.1692
    148  C         33.9160    6.7800  -20.6140 C.2   117  ILE117      0.2592
    149  O         34.4270    7.1940  -21.6440 O.2   117  ILE117     -0.2718
    150  CB        32.8430    4.6800  -21.4250 C.3   117  ILE117      0.0266
    151  CG1       31.5190    3.9180  -21.5400 C.3   117  ILE117      0.0019
    152  CG2       33.8770    3.8440  -20.7020 C.3   117  ILE117      0.0020
    153  CD1       31.5790    2.7810  -22.5050 C.3   117  ILE117      0.0001
    154  N         34.4470    7.0060  -19.4140 N.am  118  MET118     -0.1965
    155  CA        35.5770    7.9300  -19.2880 C.3   118  MET118      0.1736
    156  C         36.9450    7.2390  -19.1650 C.2   118  MET118      0.2616
    157  O         37.9190    7.8930  -18.8100 O.2   118  MET118     -0.2715
    158  CB        35.3180    8.8600  -18.0970 C.3   118  MET118      0.0427
    159  CG        33.9620    9.5900  -18.1810 C.3   118  MET118      0.0599
    160  SD        33.7040   10.5110  -19.7270 S.3   118  MET118     -0.1393
    161  CE        35.0250   11.7350  -19.5570 C.3   118  MET118      0.0692
    162  N         37.0190    5.9480  -19.4610 N.am  119  VAL119     -0.1964
    163  CA        38.2530    5.1880  -19.3460 C.3   119  VAL119      0.1712
    164  C         38.3420    4.2300  -20.5000 C.2   119  VAL119      0.2458
    165  O         37.3460    3.9370  -21.1120 O.2   119  VAL119     -0.2730
    166  CB        38.3120    4.3850  -18.0200 C.3   119  VAL119      0.0289
    167  CG1       38.3430    5.3040  -16.8080 C.3   119  VAL119      0.0023
    168  CG2       37.1470    3.3910  -17.9050 C.3   119  VAL119      0.0023
    169  N         39.5450    3.7140  -20.7860 N.am  120  PRO120     -0.2716
    170  CA        39.6220    2.7010  -21.8120 C.3   120  PRO120      0.1521
    171  C         39.0770    1.3360  -21.3720 C.2   120  PRO120      0.2440
    172  O         38.8170    1.0930  -20.1700 O.2   120  PRO120     -0.2731
    173  CB        41.1150    2.6610  -22.1470 C.3   120  PRO120      0.0310
    174  CG        41.8070    3.0840  -20.8920 C.3   120  PRO120      0.0237
    175  CD        40.8710    4.0460  -20.2020 C.3   120  PRO120      0.0939
    176  N         38.8020    0.4470  -22.3540 N.am  121  PRO121     -0.2727
    177  CA        38.1500   -0.8520  -22.1350 C.3   121  PRO121      0.1402
    178  C         38.7920   -1.6500  -21.0400 C.2   121  PRO121      0.2269
    179  O         38.0980   -2.1760  -20.1920 O.2   121  PRO121     -0.2865
    180  CB        38.3560   -1.5640  -23.4790 C.3   121  PRO121      0.0296
    181  CG        38.2840   -0.4540  -24.4780 C.3   121  PRO121      0.0237
    182  CD        38.9250    0.7320  -23.8020 C.3   121  PRO121      0.0939
    183  N         31.3080   14.9040  -21.6720 N.3   167  ASN167     -0.1240
    184  CA        32.3750   14.1290  -22.2720 C.3   167  ASN167      0.1653
    185  C         33.1420   14.8670  -23.3730 C.2   167  ASN167      0.2266
    186  O         34.3950   14.9320  -23.3360 O.2   167  ASN167     -0.2867
    187  CB        31.8230   12.8250  -22.8040 C.3   167  ASN167      0.1155
    188  CG        32.9170   11.8720  -23.2100 C.2   167  ASN167      0.2627
    189  OD1       33.9650   11.7780  -22.5720 O.2   167  ASN167     -0.2716
    190  ND2       32.6870   11.1860  -24.2810 N.am  167  ASN167     -0.0877
@<TRIPOS>BOND
     1    67    66    1
     2    66    65    2
     3    66    68    1
     4    64    65    1
     5    64    63    1
     6   123   124    1
     7   123   120    1
     8    63    62    1
     9    74    73    1
    10   120   121    1
    11   120   119    1
    12    73    70    1
    13   122   121    2
    14    61    60    2
    15    70    69    1
    16    70    71    1
    17   121   125   am
    18    62    59    1
    19    60    69   am
    20    60    59    1
    21   106   105    2
    22    71    72    2
    23    59    58    1
    24   125   126    1
    25   105   104    1
    26   126   127    1
    27   126   129    1
    28   104   107    1
    29   104   103    1
    30    58    52   am
    31   102    99    1
    32   107   108    1
    33    47    49   ar
    34    47    45   ar
    35   128   127    2
    36    83    82    1
    37   103   100   am
    38    49    48   ar
    39    82    81    1
    40    53    52    2
    41   111   112    1
    42   101   100    2
    43    56    55    2
    44   100    99    1
    45    52    51    1
    46   113   114    2
    47   113   112    1
    48    99    98    1
    49    45    44   ar
    50    45    43   ar
    51    81    80    1
    52    44    42   ar
    53   112   115    1
    54   108   109   ar
    55   108   110   ar
    56    48    46   ar
    57    55    57   am
    58    55    54    1
    59    80    79    1
    60    98    92   am
    61    75    76    1
    62    51    54    1
    63    51    50    1
    64    43    46   ar
    65    43    41   ar
    66    42    41   ar
    67   115   116    1
    68    96    95    1
    69    94    95    1
    70    94    91    1
    71    79    76    1
    72    97    95    1
    73    92    91    1
    74    92    93    2
    75    76    77    1
    76    50    38   am
    77    41    40    1
    78    91    90    1
    79   116   118    1
    80   116   117    1
    81   145   143   am
    82    14    13    1
    83    14    15    1
    84    38    39    2
    85    38    37    1
    86    77    78    2
    87    23    22    1
    88    23    17    1
    89    13     7   am
    90   141   140    2
    91     8     7    2
    92    40    37    1
    93    22    21    1
    94     2     1    1
    95     2     3    1
    96    90    86   am
    97     7     6    1
    98     5     6    1
    99     5     3   am
   100    37    36    1
   101   143   144    2
   102   143   142    1
   103     9     6    1
   104     9    10    1
   105    87    86    2
   106    17    15   am
   107    17    18    1
   108    15    16    2
   109     3     4    2
   110    86    85    1
   111   140   139    1
   112    11    10    1
   113   142   139    1
   114    10    12    1
   115    21    18    1
   116    18    19    1
   117   139   138    1
   118    85    84    1
   119    85    88    1
   120    24    19   am
   121    24    25    1
   122   138   132   am
   123    19    20    2
   124    89    88    1
   125    32    33    1
   126    32    26   am
   127    28    25    1
   128    28    29    1
   129    33    34    1
   130    25    26    1
   131   132   133    2
   132   132   131    1
   133    26    27    2
   134    34    35    2
   135   130   131    1
   136   181   182    1
   137   181   180    1
   138    29    30    1
   139   190   188   am
   140   131   134    1
   141   182   176    1
   142   180   177    1
   143   134   135    1
   144   185   186    2
   145   185   184    1
   146    31    30    1
   147   188   187    1
   148   188   189    2
   149   187   184    1
   150   153   151    1
   151   176   177    1
   152   176   171   am
   153   184   183    1
   154   173   170    1
   155   173   174    1
   156   177   178    1
   157   135   137    1
   158   135   136    1
   159   170   171    1
   160   170   169    1
   161   149   148    2
   162   151   150    1
   163   150   152    1
   164   150   147    1
   165   171   172    2
   166   146   147    1
   167   165   164    2
   168   178   179    2
   169   174   175    1
   170   169   164   am
   171   169   175    1
   172   147   148    1
   173   148   154   am
   174   164   163    1
   175   160   161    1
   176   160   159    1
   177   162   163    1
   178   162   156   am
   179   154   155    1
   180   163   166    1
   181   155   156    1
   182   155   158    1
   183   156   157    2
   184   159   158    1
   185   166   168    1
   186   166   167    1
