@<TRIPOS>MOLECULE
tmp/5a9wA00.pdb
 125 122 0 0 0
SMALL
GASTEIGER

@<TRIPOS>ATOM
      1  N         -0.1630  -27.5510   30.3130 N.3    13  HIS13      -0.1226
      2  CA        -0.0480  -28.4070   31.4880 C.3    13  HIS13       0.1752
      3  C          0.0220  -27.5810   32.7680 C.2    13  HIS13       0.2596
      4  O         -0.5060  -26.4710   32.8310 O.2    13  HIS13      -0.2718
      5  CB         1.1830  -29.3090   31.3750 C.3    13  HIS13       0.0759
      6  CG         1.2030  -30.4300   32.3680 C.ar   13  HIS13       0.0818
      7  ND1        0.3600  -31.5160   32.2820 N.ar   13  HIS13      -0.2268
      8  CD2        1.9660  -30.6320   33.4680 C.ar   13  HIS13       0.1154
      9  CE1        0.6010  -32.3390   33.2860 C.ar   13  HIS13       0.1986
     10  NE2        1.5720  -31.8260   34.0210 N.ar   13  HIS13      -0.2212
     11  N          0.6790  -28.1290   33.7850 N.am   14  VAL14      -0.1966
     12  CA         0.8190  -27.4440   35.0640 C.3    14  VAL14       0.1727
     13  C          1.2050  -25.9820   34.8680 C.2    14  VAL14       0.2616
     14  O          1.0010  -25.1520   35.7530 O.2    14  VAL14      -0.2715
     15  CB         1.8720  -28.1280   35.9580 C.3    14  VAL14       0.0290
     16  CG1        2.0780  -27.3320   37.2370 C.3    14  VAL14       0.0023
     17  CG2        1.4540  -29.5560   36.2720 C.3    14  VAL14       0.0023
     18  N          1.7650  -25.6750   33.7020 N.am   15  ASP15      -0.1957
     19  CA         2.1800  -24.3130   33.3870 C.3    15  ASP15       0.1840
     20  C          0.9840  -23.4420   33.0200 C.2    15  ASP15       0.2622
     21  O          0.2430  -23.7500   32.0860 O.2    15  ASP15      -0.2715
     22  CB         3.2000  -24.3150   32.2460 C.3    15  ASP15       0.1450
     23  CG         4.3920  -25.2050   32.5310 C.2    15  ASP15       0.3671
     24  OD1        5.3530  -24.7280   33.1710 O.co2  15  ASP15      -0.2456
     25  OD2        4.3700  -26.3830   32.1150 O.co2  15  ASP15      -0.2456
     26  N          0.8000  -22.3550   33.7610 N.am   16  HIS16      -0.1959
     27  CA        -0.3070  -21.4380   33.5150 C.3    16  HIS16       0.1787
     28  C         -0.0770  -20.6240   32.2460 C.2    16  HIS16       0.2621
     29  O         -0.3400  -19.4220   32.2120 O.2    16  HIS16      -0.2715
     30  CB        -0.5040  -20.5040   34.7110 C.3    16  HIS16       0.0785
     31  CG        -0.3440  -21.1780   36.0380 C.ar   16  HIS16       0.0821
     32  ND1        0.8750  -21.6150   36.5080 N.ar   16  HIS16      -0.2267
     33  CD2       -1.2500  -21.4910   36.9940 C.ar   16  HIS16       0.1154
     34  CE1        0.7140  -22.1680   37.6970 C.ar   16  HIS16       0.1986
     35  NE2       -0.5670  -22.1050   38.0150 N.ar   16  HIS16      -0.2212
     36  N          0.4160  -21.2870   31.2050 N.am   17  GLY17      -0.1940
     37  CA         0.6800  -20.6290   29.9390 C.3    17  GLY17       0.2014
     38  C         -0.1770  -21.1730   28.8130 C.2    17  GLY17       0.2639
     39  O          0.0950  -20.9250   27.6380 O.2    17  GLY17      -0.2714
     40  N         -1.2170  -21.9180   29.1740 N.am   18  LYS18      -0.1963
     41  CA        -2.1200  -22.5010   28.1890 C.3    18  LYS18       0.1728
     42  C         -2.9040  -21.4210   27.4520 C.2    18  LYS18       0.2617
     43  O         -2.4720  -20.9290   26.4090 O.2    18  LYS18      -0.2715
     44  CB        -3.0820  -23.4830   28.8600 C.3    18  LYS18       0.0311
     45  CG        -4.1800  -24.0010   27.9450 C.3    18  LYS18       0.0038
     46  CD        -4.5350  -25.4430   28.2690 C.3    18  LYS18       0.0206
     47  CE        -5.5020  -26.0160   27.2460 C.3    18  LYS18       0.1093
     48  NZ        -5.4990  -27.5050   27.2520 N.3    18  LYS18      -0.1314
     49  N         -4.0580  -21.0560   28.0000 N.am   19  THR19      -0.1937
     50  CA        -4.9050  -20.0330   27.3960 C.3    19  THR19       0.2028
     51  C         -5.8240  -19.3950   28.4350 C.2    19  THR19       0.2642
     52  O         -6.7610  -20.0370   28.9090 O.2    19  THR19      -0.2714
     53  CB        -5.7580  -20.6110   26.2520 C.3    19  THR19       0.1808
     54  OG1       -6.6750  -21.5790   26.7780 O.3    19  THR19      -0.2208
     55  CG2       -4.8710  -21.2740   25.2090 C.3    19  THR19       0.0379
     56  N         -5.5640  -18.1380   28.7930 N.am   20  THR20      -0.1950
     57  CA        -4.4560  -17.3490   28.2460 C.3    20  THR20       0.1897
     58  C         -4.5520  -17.1800   26.7280 C.2    20  THR20       0.2313
     59  O         -5.3070  -16.3410   26.2360 O.2    20  THR20      -0.2863
     60  CB        -3.0680  -17.9100   28.6550 C.3    20  THR20       0.1794
     61  OG1       -2.5390  -18.7460   27.6160 O.3    20  THR20      -0.2208
     62  CG2       -3.1610  -18.7090   29.9500 C.3    20  THR20       0.0378
     63  N         -8.0310  -17.0740   25.2770 N.3    23  ASP23      -0.1239
     64  CA        -8.6580  -15.8260   25.6960 C.3    23  ASP23       0.1674
     65  C         -7.8630  -14.6190   25.2110 C.2    23  ASP23       0.2266
     66  O         -8.3290  -13.4830   25.2930 O.2    23  ASP23      -0.2867
     67  CB        -8.8010  -15.7840   27.2190 C.3    23  ASP23       0.1410
     68  CG        -7.4980  -15.4520   27.9180 C.2    23  ASP23       0.3668
     69  OD1       -7.0290  -14.3010   27.7900 O.co2  23  ASP23      -0.2456
     70  OD2       -6.9410  -16.3410   28.5960 O.co2  23  ASP23      -0.2456
     71  N          5.4460  -19.4690   25.3650 N.3   107  ASN107     -0.1225
     72  CA         4.6140  -18.5220   26.0880 C.3   107  ASN107      0.1785
     73  C          5.4850  -17.7580   27.0730 C.2   107  ASN107      0.2597
     74  O          6.6590  -18.0880   27.2520 O.2   107  ASN107     -0.2718
     75  CB         3.4740  -19.2770   26.7970 C.3   107  ASN107      0.1169
     76  CG         2.2180  -18.4310   26.9900 C.2   107  ASN107      0.2627
     77  OD1        1.6340  -18.4210   28.0690 O.2   107  ASN107     -0.2716
     78  ND2        1.7940  -17.7300   25.9430 N.am  107  ASN107     -0.0877
     79  N          4.9130  -16.7160   27.6740 N.am  108  LYS108     -0.1980
     80  CA         5.5210  -16.0030   28.8100 C.3   108  LYS108      0.1596
     81  C          7.0380  -15.8140   28.6910 C.2   108  LYS108      0.2287
     82  O          7.8340  -16.2120   29.5590 O.2   108  LYS108     -0.2864
     83  CB         5.1030  -16.6180   30.1720 C.3   108  LYS108      0.0298
     84  CG         4.3780  -17.9680   30.1560 C.3   108  LYS108      0.0038
     85  CD         3.5680  -18.2370   31.4240 C.3   108  LYS108      0.0206
     86  CE         4.2280  -17.7100   32.6920 C.3   108  LYS108      0.1093
     87  NZ         3.7200  -18.3800   33.9130 N.3   108  LYS108     -0.1314
     88  N          7.8590  -12.7390   28.5140 N.3   110  ASP110     -0.1225
     89  CA         7.8980  -11.6080   29.4590 C.3   110  ASP110      0.1805
     90  C          8.6070  -11.9130   30.7790 C.2   110  ASP110      0.2597
     91  O          9.1750  -11.0080   31.3910 O.2   110  ASP110     -0.2718
     92  CB         6.4830  -11.1250   29.7940 C.3   110  ASP110      0.1424
     93  CG         5.8720  -10.2800   28.7010 C.2   110  ASP110      0.3668
     94  OD1        6.2410  -10.4650   27.5250 O.co2 110  ASP110     -0.2456
     95  OD2        5.0090   -9.4320   29.0210 O.co2 110  ASP110     -0.2456
     96  N          8.5330  -13.1680   31.2230 N.am  111  ARG111     -0.1979
     97  CA         9.2450  -13.6600   32.4170 C.3   111  ARG111      0.1597
     98  C         10.6990  -13.1350   32.5140 C.2   111  ARG111      0.2287
     99  O         11.3450  -12.8940   31.4840 O.2   111  ARG111     -0.2864
    100  CB         9.2020  -15.2100   32.4220 C.3   111  ARG111      0.0334
    101  CG        10.1770  -15.9650   33.3350 C.3   111  ARG111      0.0492
    102  CD         9.4980  -16.6710   34.4970 C.3   111  ARG111      0.2205
    103  NE         8.4360  -17.5840   34.0680 N.pl3 111  ARG111     -0.0865
    104  CZ         7.6550  -18.2890   34.8940 C.cat 111  ARG111      0.5346
    105  NH1        7.7960  -18.2160   36.2190 N.pl3 111  ARG111      0.1354
    106  NH2        6.7200  -19.0860   34.3930 N.pl3 111  ARG111      0.1354
    107  N          3.6400  -13.7200   24.1980 N.3   145  SER145     -0.1202
    108  CA         3.3300  -13.3220   25.5610 C.3   145  SER145      0.2020
    109  C          1.8210  -13.1570   25.6400 C.2   145  SER145      0.2619
    110  O          1.2790  -12.2670   24.9890 O.2   145  SER145     -0.2717
    111  CB         4.0140  -12.0010   25.9090 C.3   145  SER145      0.2103
    112  OG         3.5600  -11.5040   27.1580 O.3   145  SER145     -0.2182
    113  N          1.1500  -14.0000   26.4280 N.am  146  ALA146     -0.1965
    114  CA        -0.3060  -13.8720   26.6450 C.3   146  ALA146      0.1728
    115  C         -0.6640  -12.4790   27.1560 C.2   146  ALA146      0.2616
    116  O         -1.6680  -11.8900   26.7500 O.2   146  ALA146     -0.2715
    117  CB        -0.8090  -14.9160   27.6220 C.3   146  ALA146      0.0334
    118  N          0.1810  -11.9580   28.0410 N.am  147  LEU147     -0.1977
    119  CA         0.1120  -10.5710   28.4660 C.3   147  LEU147      0.1596
    120  C          0.5740   -9.6700   27.3140 C.2   147  LEU147      0.2287
    121  O          1.6550   -9.0730   27.3700 O.2   147  LEU147     -0.2864
    122  CB         0.9710  -10.3620   29.7260 C.3   147  LEU147      0.0297
    123  CG         0.6720  -11.2260   30.9670 C.3   147  LEU147      0.0022
    124  CD1        1.4580  -10.7320   32.1790 C.3   147  LEU147      0.0001
    125  CD2       -0.8150  -11.2650   31.2870 C.3   147  LEU147      0.0001
@<TRIPOS>BOND
     1   107   108    1
     2   110   109    2
     3    55    53    1
     4    65    66    2
     5    65    64    1
     6    63    64    1
     7    71    72    1
     8   108   109    1
     9   108   111    1
    10   109   113   am
    11    64    67    1
    12   111   112    1
    13    78    76   am
    14    72    75    1
    15    72    73    1
    16    59    58    2
    17    53    54    1
    18    53    50    1
    19    43    42    2
    20   113   114    1
    21   114   115    1
    22   114   117    1
    23    58    57    1
    24   116   115    2
    25    75    76    1
    26    76    77    2
    27    73    74    2
    28    73    79   am
    29   115   118   am
    30    67    68    1
    31    47    48    1
    32    47    46    1
    33   120   121    2
    34   120   119    1
    35    50    49    1
    36    50    51    1
    37    42    49   am
    38    42    41    1
    39    94    93   ar
    40    61    60    1
    41    39    38    2
    42    79    80    1
    43    69    68   ar
    44    68    70   ar
    45    45    46    1
    46    45    44    1
    47   118   119    1
    48    41    44    1
    49    41    40    1
    50    57    60    1
    51    57    56    1
    52    51    56   am
    53    51    52    2
    54   119   122    1
    55    88    89    1
    56    60    62    1
    57    81    80    1
    58    81    82    2
    59    93    95   ar
    60    93    92    1
    61    80    83    1
    62    38    40   am
    63    38    37    1
    64    89    92    1
    65    89    90    1
    66   122   123    1
    67    37    36    1
    68    84    83    1
    69    84    85    1
    70     1     2    1
    71    90    96   am
    72    90    91    2
    73   123   125    1
    74   123   124    1
    75    36    28   am
    76    96    97    1
    77     5     2    1
    78     5     6    1
    79    85    86    1
    80    99    98    2
    81     2     3    1
    82    21    20    2
    83    25    23   ar
    84    29    28    2
    85    22    23    1
    86    22    19    1
    87    28    27    1
    88     7     6   ar
    89     7     9   ar
    90     6     8   ar
    91    97   100    1
    92    97    98    1
    93   100   101    1
    94    23    24   ar
    95    86    87    1
    96     3     4    2
    97     3    11   am
    98    20    19    1
    99    20    26   am
   100     9    10   ar
   101   101   102    1
   102    19    18    1
   103     8    10   ar
   104    27    26    1
   105    27    30    1
   106    18    13   am
   107    11    12    1
   108   103   102    1
   109   103   104    2
   110   106   104    1
   111    30    31    1
   112    13    12    1
   113    13    14    2
   114   104   105    1
   115    12    15    1
   116    15    17    1
   117    15    16    1
   118    31    32   ar
   119    31    33   ar
   120    32    34   ar
   121    33    35   ar
   122    34    35   ar
