@<TRIPOS>MOLECULE
tmp/5a9xA00.pdb
 118 114 0 0 0
SMALL
GASTEIGER

@<TRIPOS>ATOM
      1  N          0.4380  -26.4060   33.4000 N.3    15  ASP15      -0.1225
      2  CA        -0.4360  -25.2400   33.4570 C.3    15  ASP15       0.1805
      3  C         -1.7010  -25.4600   32.6350 C.2    15  ASP15       0.2598
      4  O         -1.6360  -25.6990   31.4290 O.2    15  ASP15      -0.2718
      5  CB         0.3010  -23.9940   32.9640 C.3    15  ASP15       0.1424
      6  CG         1.0740  -24.2420   31.6830 C.2    15  ASP15       0.3668
      7  OD1        0.4330  -24.4340   30.6280 O.co2  15  ASP15      -0.2456
      8  OD2        2.3220  -24.2450   31.7310 O.co2  15  ASP15      -0.2456
      9  N         -2.8520  -25.3770   33.2950 N.am   16  HIS16      -0.1961
     10  CA        -4.1340  -25.5670   32.6270 C.3    16  HIS16       0.1787
     11  C         -4.7780  -24.2290   32.2790 C.2    16  HIS16       0.2621
     12  O         -4.6470  -23.2550   33.0190 O.2    16  HIS16      -0.2715
     13  CB        -5.0780  -26.3930   33.5030 C.3    16  HIS16       0.0785
     14  CG        -6.2480  -26.9620   32.7620 C.ar   16  HIS16       0.0821
     15  ND1       -7.1290  -26.1780   32.0490 N.ar   16  HIS16      -0.2267
     16  CD2       -6.6810  -28.2370   32.6230 C.ar   16  HIS16       0.1154
     17  CE1       -8.0550  -26.9460   31.5030 C.ar   16  HIS16       0.1986
     18  NE2       -7.8060  -28.2000   31.8360 N.ar   16  HIS16      -0.2212
     19  N         -5.4740  -24.1900   31.1470 N.am   17  GLY17      -0.1940
     20  CA        -6.1370  -22.9790   30.7010 C.3    17  GLY17       0.2014
     21  C         -5.6310  -22.5040   29.3530 C.2    17  GLY17       0.2639
     22  O         -6.3370  -22.5930   28.3480 O.2    17  GLY17      -0.2714
     23  N         -4.4020  -21.9980   29.3320 N.am   18  LYS18      -0.1963
     24  CA        -3.7970  -21.5060   28.1000 C.3    18  LYS18       0.1728
     25  C         -4.5780  -20.3230   27.5370 C.2    18  LYS18       0.2617
     26  O         -4.8070  -20.2360   26.3310 O.2    18  LYS18      -0.2715
     27  CB        -3.7140  -22.6240   27.0600 C.3    18  LYS18       0.0311
     28  CG        -3.0050  -23.8760   27.5500 C.3    18  LYS18       0.0038
     29  CD        -3.9800  -24.8460   28.1960 C.3    18  LYS18       0.0206
     30  CE        -4.9210  -25.4500   27.1670 C.3    18  LYS18       0.1093
     31  NZ        -5.7910  -26.5030   27.7600 N.3    18  LYS18      -0.1314
     32  N         -4.9840  -19.4150   28.4180 N.am   19  THR19      -0.1937
     33  CA        -5.7390  -18.2360   28.0110 C.3    19  THR19       0.2028
     34  C         -5.5930  -17.1090   29.0270 C.2    19  THR19       0.2642
     35  O         -6.3440  -17.0360   30.0000 O.2    19  THR19      -0.2714
     36  CB        -7.2330  -18.5580   27.8270 C.3    19  THR19       0.1808
     37  OG1       -7.8570  -18.6940   29.1100 O.3    19  THR19      -0.2208
     38  CG2       -7.4070  -19.8510   27.0450 C.3    19  THR19       0.0379
     39  N         -4.6210  -16.2320   28.7960 N.am   20  THR20      -0.1950
     40  CA        -3.7350  -16.3470   27.6180 C.3    20  THR20       0.1897
     41  C         -4.3830  -16.3280   26.2200 C.2    20  THR20       0.2313
     42  O         -4.7920  -15.2800   25.7120 O.2    20  THR20      -0.2863
     43  CB        -2.6690  -17.4890   27.7570 C.3    20  THR20       0.1794
     44  OG1       -2.2440  -17.6090   29.1210 O.3    20  THR20      -0.2208
     45  CG2       -1.4430  -17.2340   26.8550 C.3    20  THR20       0.0378
     46  N        -11.4650  -23.5210   35.9540 N.3    31  LYS31      -0.1231
     47  CA       -11.2470  -22.5920   34.8510 C.3    31  LYS31       0.1693
     48  C        -10.0040  -22.9730   34.0430 C.2    31  LYS31       0.2591
     49  O         -8.8830  -22.8280   34.5290 O.2    31  LYS31      -0.2718
     50  CB       -11.1160  -21.1600   35.3740 C.3    31  LYS31       0.0285
     51  CG       -11.8390  -20.1230   34.5300 C.3    31  LYS31       0.0035
     52  CD       -12.0320  -18.8250   35.2970 C.3    31  LYS31       0.0206
     53  CE       -13.2770  -18.8790   36.1680 C.3    31  LYS31       0.1093
     54  NZ       -13.5600  -17.5660   36.8120 N.3    31  LYS31      -0.1314
     55  N        -10.1950  -23.4590   32.8160 N.am   32  GLU32      -0.1979
     56  CA       -11.5170  -23.6400   32.2180 C.3    32  GLU32       0.1602
     57  C        -11.4430  -24.5100   30.9680 C.2    32  GLU32       0.2287
     58  O        -10.5010  -25.2820   30.7910 O.2    32  GLU32      -0.2864
     59  CB       -12.1430  -22.2860   31.8810 C.3    32  GLU32       0.0415
     60  CG       -13.6160  -22.3570   31.5130 C.3    32  GLU32       0.1163
     61  CD       -14.5240  -22.2670   32.7230 C.2    32  GLU32       0.3649
     62  OE1      -14.0380  -22.4940   33.8510 O.co2  32  GLU32      -0.2457
     63  OE2      -15.7240  -21.9680   32.5470 O.co2  32  GLU32      -0.2457
     64  N          5.1400  -20.5280   25.7380 N.3   105  ASN105     -0.1225
     65  CA         4.2680  -19.6500   26.5310 C.3   105  ASN105      0.1785
     66  C          5.0690  -18.9710   27.6420 C.2   105  ASN105      0.2597
     67  O          6.2470  -19.2870   27.8310 O.2   105  ASN105     -0.2718
     68  CB         3.1150  -20.4770   27.1250 C.3   105  ASN105      0.1169
     69  CG         1.9320  -19.6320   27.5920 C.2   105  ASN105      0.2627
     70  OD1        1.9340  -18.3980   27.4940 O.2   105  ASN105     -0.2716
     71  ND2        0.9140  -20.3030   28.1220 N.am  105  ASN105     -0.0877
     72  N          4.4370  -18.0370   28.3590 N.am  106  LYS106     -0.1980
     73  CA         5.0080  -17.3870   29.5560 C.3   106  LYS106      0.1596
     74  C          6.2480  -16.5310   29.2560 C.2   106  LYS106      0.2287
     75  O          6.9920  -16.1740   30.1730 O.2   106  LYS106     -0.2864
     76  CB         5.3660  -18.4010   30.6640 C.3   106  LYS106      0.0298
     77  CG         4.4840  -19.6320   30.8180 C.3   106  LYS106      0.0038
     78  CD         3.0230  -19.3420   31.0740 C.3   106  LYS106      0.0206
     79  CE         2.3130  -20.6630   31.3130 C.3   106  LYS106      0.1093
     80  NZ         0.9250  -20.4640   31.7740 N.3   106  LYS106     -0.1314
     81  N          7.1460  -13.6380   28.8460 N.3   108  ASP108     -0.1225
     82  CA         7.3730  -12.4320   29.6400 C.3   108  ASP108      0.1805
     83  C          7.9410  -12.6930   31.0580 C.2   108  ASP108      0.2597
     84  O          8.3280  -11.7410   31.7380 O.2   108  ASP108     -0.2718
     85  CB         6.0550  -11.6250   29.7370 C.3   108  ASP108      0.1424
     86  CG         6.2550  -10.1160   29.6030 C.2   108  ASP108      0.3668
     87  OD1        7.3480   -9.6010   29.9190 O.co2 108  ASP108     -0.2456
     88  OD2        5.2950   -9.4330   29.1810 O.co2 108  ASP108     -0.2456
     89  N          7.9880  -13.9540   31.5050 N.am  109  ARG109     -0.1979
     90  CA         8.5010  -14.3000   32.8500 C.3   109  ARG109      0.1597
     91  C          9.9860  -13.9240   32.9840 C.2   109  ARG109      0.2287
     92  O         10.7410  -14.1000   32.0270 O.2   109  ARG109     -0.2864
     93  CB         8.3160  -15.8070   33.1390 C.3   109  ARG109      0.0334
     94  CG         7.8000  -16.1480   34.5320 C.3   109  ARG109      0.0492
     95  CD         6.7230  -17.2190   34.4630 C.3   109  ARG109      0.2205
     96  NE         6.1690  -17.5330   35.7770 N.pl3 109  ARG109     -0.0865
     97  CZ         5.2860  -16.7850   36.4510 C.cat 109  ARG109      0.5346
     98  NH1        4.8190  -15.6310   35.9660 N.pl3 109  ARG109      0.1354
     99  NH2        4.8620  -17.1990   37.6440 N.pl3 109  ARG109      0.1354
    100  N          3.1340  -14.5470   24.6560 N.3   143  SER143     -0.1202
    101  CA         2.7750  -14.0560   25.9890 C.3   143  SER143      0.2020
    102  C          1.2530  -14.1040   26.2010 C.2   143  SER143      0.2619
    103  O          0.4960  -14.3880   25.2680 O.2   143  SER143     -0.2717
    104  CB         3.2860  -12.6200   26.1710 C.3   143  SER143      0.2103
    105  OG         3.1120  -12.1720   27.5040 O.3   143  SER143     -0.2182
    106  N          0.8170  -13.8040   27.4250 N.am  144  ALA144     -0.1965
    107  CA        -0.6040  -13.7780   27.7790 C.3   144  ALA144      0.1728
    108  C         -1.0870  -12.3290   27.7030 C.2   144  ALA144      0.2616
    109  O         -1.7560  -11.9420   26.7360 O.2   144  ALA144     -0.2715
    110  CB        -0.8260  -14.3760   29.1640 C.3   144  ALA144      0.0334
    111  N         -0.7760  -11.5550   28.7460 N.am  145  LEU145     -0.1977
    112  CA        -0.6830  -10.0930   28.6800 C.3   145  LEU145      0.1596
    113  C          0.0510   -9.6490   27.4040 C.2   145  LEU145      0.2287
    114  O          1.2730   -9.4520   27.4040 O.2   145  LEU145     -0.2864
    115  CB         0.0370   -9.5500   29.9320 C.3   145  LEU145      0.0297
    116  CG         1.3630  -10.2200   30.3750 C.3   145  LEU145      0.0022
    117  CD1        2.4530   -9.1820   30.6180 C.3   145  LEU145      0.0001
    118  CD2        1.2140  -11.1220   31.6020 C.3   145  LEU145      0.0001
@<TRIPOS>BOND
     1   100   101    1
     2   103   102    2
     3    42    41    2
     4    64    65    1
     5   101   104    1
     6   101   102    1
     7   104   105    1
     8   102   106   am
     9    41    40    1
    10    26    25    2
    11    65    68    1
    12    65    66    1
    13   109   108    2
    14    45    43    1
    15    38    36    1
    16    27    28    1
    17    27    24    1
    18    68    69    1
    19    30    31    1
    20    30    29    1
    21   113   114    2
    22   113   112    1
    23   106   107    1
    24    70    69    2
    25    25    24    1
    26    25    32   am
    27    28    29    1
    28    69    71   am
    29    40    43    1
    30    40    39    1
    31    66    67    2
    32    66    72   am
    33   108   107    1
    34   108   111   am
    35    43    44    1
    36   107   110    1
    37    36    33    1
    38    36    37    1
    39    33    32    1
    40    33    34    1
    41    24    23    1
    42    22    21    2
    43    72    73    1
    44   112   111    1
    45   112   115    1
    46    39    34   am
    47    81    82    1
    48    34    35    2
    49    88    86   ar
    50    74    73    1
    51    74    75    2
    52    23    21   am
    53    21    20    1
    54    73    76    1
    55    86    85    1
    56    86    87   ar
    57    82    85    1
    58    82    83    1
    59   115   116    1
    60   116   117    1
    61   116   118    1
    62     7     6   ar
    63    76    77    1
    64    20    19    1
    65    58    57    2
    66    77    78    1
    67    57    56    1
    68    83    89   am
    69    83    84    2
    70    78    79    1
    71    19    11   am
    72    79    80    1
    73     4     3    2
    74    17    18   ar
    75    17    15   ar
    76    89    90    1
    77    60    59    1
    78    60    61    1
    79     6     8   ar
    80     6     5    1
    81    18    16   ar
    82    59    56    1
    83    92    91    2
    84    15    14   ar
    85    56    55    1
    86    11    10    1
    87    11    12    2
    88    63    61   ar
    89    16    14   ar
    90    10     9    1
    91    10    13    1
    92     3     9   am
    93     3     2    1
    94    61    62   ar
    95    14    13    1
    96    55    48   am
    97    90    91    1
    98    90    93    1
    99     5     2    1
   100    93    94    1
   101     1     2    1
   102    48    49    2
   103    48    47    1
   104    95    94    1
   105    95    96    1
   106    51    52    1
   107    51    50    1
   108    47    50    1
   109    47    46    1
   110    52    53    1
   111    96    97    2
   112    98    97    1
   113    53    54    1
   114    97    99    1
