@<TRIPOS>MOLECULE
tmp/5a9yA00.pdb
 112 107 0 0 0
SMALL
GASTEIGER

@<TRIPOS>ATOM
      1  N         33.6710   -0.3380  -24.7230 N.3    16  HIS16      -0.1226
      2  CA        33.2570   -1.7000  -24.4090 C.3    16  HIS16       0.1752
      3  C         32.4640   -1.7500  -23.1070 C.2    16  HIS16       0.2597
      4  O         33.0280   -1.9590  -22.0330 O.2    16  HIS16      -0.2718
      5  CB        34.4750   -2.6220  -24.3190 C.3    16  HIS16       0.0759
      6  CG        34.1410   -4.0760  -24.4410 C.ar   16  HIS16       0.0818
      7  ND1       34.7900   -5.0520  -23.7140 N.ar   16  HIS16      -0.2268
      8  CD2       33.2280   -4.7210  -25.2050 C.ar   16  HIS16       0.1154
      9  CE1       34.2900   -6.2350  -24.0260 C.ar   16  HIS16       0.1986
     10  NE2       33.3410   -6.0620  -24.9280 N.ar   16  HIS16      -0.2212
     11  N         31.1540   -1.5560  -23.2110 N.am   17  GLY17      -0.1942
     12  CA        30.2850   -1.5780  -22.0490 C.3    17  GLY17       0.2014
     13  C         28.9010   -2.1060  -22.3690 C.2    17  GLY17       0.2639
     14  O         27.9030   -1.4070  -22.1910 O.2    17  GLY17      -0.2714
     15  N         28.8410   -3.3460  -22.8440 N.am   18  LYS18      -0.1963
     16  CA        27.5720   -3.9730  -23.1910 C.3    18  LYS18       0.1728
     17  C         26.8870   -4.5530  -21.9580 C.2    18  LYS18       0.2617
     18  O         25.8820   -4.0200  -21.4860 O.2    18  LYS18      -0.2715
     19  CB        27.7840   -5.0680  -24.2390 C.3    18  LYS18       0.0311
     20  CG        28.5470   -4.6090  -25.4700 C.3    18  LYS18       0.0038
     21  CD        28.5020   -5.6570  -26.5700 C.3    18  LYS18       0.0206
     22  CE        28.8760   -5.0600  -27.9170 C.3    18  LYS18       0.1093
     23  NZ        28.9170   -6.0920  -28.9900 N.3    18  LYS18      -0.1314
     24  N         27.4370   -5.6470  -21.4420 N.am   19  THR19      -0.1937
     25  CA        26.8800   -6.3000  -20.2630 C.3    19  THR19       0.2028
     26  C         27.9470   -7.1080  -19.5220 C.2    19  THR19       0.2642
     27  O         28.2530   -8.2340  -19.9140 O.2    19  THR19      -0.2714
     28  CB        25.7100   -7.2300  -20.6330 C.3    19  THR19       0.1808
     29  OG1       26.2210   -8.4930  -21.0780 O.3    19  THR19      -0.2208
     30  CG2       24.8670   -6.6120  -21.7380 C.3    19  THR19       0.0379
     31  N         28.5140   -6.5440  -18.4560 N.am   20  THR20      -0.1950
     32  CA        28.1680   -5.2080  -17.9700 C.3    20  THR20       0.1897
     33  C         26.7440   -5.1650  -17.4230 C.2    20  THR20       0.2313
     34  O         26.5090   -5.4740  -16.2550 O.2    20  THR20      -0.2863
     35  CB        28.3270   -4.1450  -19.0740 C.3    20  THR20       0.1794
     36  OG1       29.6800   -4.1380  -19.5440 O.3    20  THR20      -0.2208
     37  CG2       27.9740   -2.7650  -18.5390 C.3    20  THR20       0.0378
     38  N         25.0590   -8.9940  -17.3370 N.3    23  ASP23      -0.1239
     39  CA        25.7480   -9.6800  -16.2500 C.3    23  ASP23       0.1674
     40  C         25.1110   -9.3580  -14.9030 C.2    23  ASP23       0.2266
     41  O         24.7620  -10.2580  -14.1390 O.2    23  ASP23      -0.2867
     42  CB        27.2310   -9.3030  -16.2340 C.3    23  ASP23       0.1410
     43  CG        27.9950   -9.8950  -17.4020 C.2    23  ASP23       0.3668
     44  OD1       27.3750  -10.1390  -18.4580 O.co2  23  ASP23      -0.2456
     45  OD2       29.2170  -10.1170  -17.2640 O.co2  23  ASP23      -0.2456
     46  N         35.4060  -10.4690  -25.2920 N.3    33  LYS33      -0.1231
     47  CA        34.3170  -11.0230  -24.4980 C.3    33  LYS33       0.1693
     48  C         32.9930  -10.3180  -24.8020 C.2    33  LYS33       0.2591
     49  O         32.9200   -9.0910  -24.7450 O.2    33  LYS33      -0.2718
     50  CB        34.6360  -10.9210  -23.0050 C.3    33  LYS33       0.0285
     51  CG        35.9160  -11.6310  -22.5940 C.3    33  LYS33       0.0035
     52  CD        35.6520  -13.0860  -22.2440 C.3    33  LYS33       0.0206
     53  CE        35.6540  -13.9630  -23.4860 C.3    33  LYS33       0.1093
     54  NZ        35.3830  -15.3900  -23.1590 N.3    33  LYS33      -0.1314
     55  N         31.9490  -11.0820  -25.1260 N.am   34  GLU34      -0.1979
     56  CA        32.0130  -12.5410  -25.2000 C.3    34  GLU34       0.1602
     57  C         30.8540  -13.1040  -26.0170 C.2    34  GLU34       0.2287
     58  O         30.9430  -13.2220  -27.2390 O.2    34  GLU34      -0.2864
     59  CB        32.0130  -13.1510  -23.7970 C.3    34  GLU34       0.0415
     60  CG        32.1470  -14.6650  -23.7770 C.3    34  GLU34       0.1163
     61  CD        31.8020  -15.2630  -22.4280 C.2    34  GLU34       0.3649
     62  OE1       32.2360  -14.7030  -21.3990 O.co2  34  GLU34      -0.2457
     63  OE2       31.0960  -16.2930  -22.3960 O.co2  34  GLU34      -0.2457
     64  N         25.7550    5.3810  -20.6560 N.3   108  ASN108     -0.1225
     65  CA        26.5340    4.6360  -19.6340 C.3   108  ASN108      0.1785
     66  C         27.5360    5.5540  -18.9010 C.2   108  ASN108      0.2597
     67  O         27.3030    6.7490  -18.8420 O.2   108  ASN108     -0.2718
     68  CB        27.1970    3.3950  -20.2700 C.3   108  ASN108      0.1169
     69  CG        27.4350    2.2560  -19.2740 C.2   108  ASN108      0.2627
     70  OD1       27.3010    2.4220  -18.0550 O.2   108  ASN108     -0.2716
     71  ND2       27.8100    1.0930  -19.7990 N.am  108  ASN108     -0.0877
     72  N         28.5870    5.0060  -18.2800 N.am  109  LYS109     -0.1980
     73  CA        29.6870    5.7790  -17.6580 C.3   109  LYS109      0.1596
     74  C         29.3590    7.1690  -17.0750 C.2   109  LYS109      0.2287
     75  O         30.1440    8.1150  -17.2120 O.2   109  LYS109     -0.2864
     76  CB        30.8570    5.8950  -18.6470 C.3   109  LYS109      0.0298
     77  CG        31.4090    4.5550  -19.1160 C.3   109  LYS109      0.0038
     78  CD        30.8320    4.1170  -20.4560 C.3   109  LYS109      0.0206
     79  CE        30.7640    2.5990  -20.6010 C.3   109  LYS109      0.1093
     80  NZ        32.1050    1.9810  -20.7910 N.3   109  LYS109     -0.1314
     81  N         28.8510    7.4690  -13.7980 N.3   111  ASP111     -0.1225
     82  CA        29.6940    7.3440  -12.6010 C.3   111  ASP111      0.1805
     83  C         31.1390    7.8350  -12.7590 C.2   111  ASP111      0.2597
     84  O         31.8080    8.0710  -11.7520 O.2   111  ASP111     -0.2718
     85  CB        29.6940    5.8910  -12.0920 C.3   111  ASP111      0.1424
     86  CG        30.0020    4.8820  -13.1860 C.2   111  ASP111      0.3668
     87  OD1       31.0340    5.0320  -13.8710 O.co2 111  ASP111     -0.2456
     88  OD2       29.2070    3.9380  -13.3740 O.co2 111  ASP111     -0.2456
     89  N         31.6240    7.9620  -13.9980 N.am  112  ARG112     -0.1979
     90  CA        32.9280    8.5870  -14.2720 C.3   112  ARG112      0.1597
     91  C         32.9710   10.0570  -13.8140 C.2   112  ARG112      0.2287
     92  O         31.9610   10.7590  -13.9300 O.2   112  ARG112     -0.2864
     93  CB        33.2510    8.5340  -15.7720 C.3   112  ARG112      0.0334
     94  CG        33.5880    7.1540  -16.3170 C.3   112  ARG112      0.0492
     95  CD        34.9660    6.6830  -15.8670 C.3   112  ARG112      0.2205
     96  NE        35.5430    5.6770  -16.7640 N.pl3 112  ARG112     -0.0865
     97  CZ        36.7510    5.1230  -16.6210 C.cat 112  ARG112      0.5346
     98  NH1       37.5480    5.4530  -15.6040 N.pl3 112  ARG112      0.1354
     99  NH2       37.1700    4.2200  -17.5050 N.pl3 112  ARG112      0.1354
    100  N         27.3580    0.6960  -14.9410 N.3   147  ALA147     -0.1231
    101  CA        27.8930   -0.6310  -14.6870 C.3   147  ALA147      0.1694
    102  C         28.2330   -0.7240  -13.2140 C.2   147  ALA147      0.2591
    103  O         27.8740   -1.6950  -12.5530 O.2   147  ALA147     -0.2718
    104  CB        29.1300   -0.8830  -15.5190 C.3   147  ALA147      0.0304
    105  N         28.9040    0.3140  -12.7110 N.am  148  LEU148     -0.1980
    106  CA        29.2700    0.4100  -11.3000 C.3   148  LEU148      0.1596
    107  C         27.9980    0.4350  -10.4570 C.2   148  LEU148      0.2287
    108  O         27.4760    1.5000  -10.1190 O.2   148  LEU148     -0.2864
    109  CB        30.1300    1.6580  -11.0330 C.3   148  LEU148      0.0297
    110  CG        31.4020    1.8600  -11.8680 C.3   148  LEU148      0.0022
    111  CD1       32.2360    2.9930  -11.2890 C.3   148  LEU148      0.0001
    112  CD2       32.2230    0.5820  -11.9530 C.3   148  LEU148      0.0001
@<TRIPOS>BOND
     1    23    22    1
     2    22    21    1
     3    58    57    2
     4    21    20    1
     5    57    56    1
     6    20    19    1
     7    46    47    1
     8     8    10   ar
     9     8     6   ar
    10    56    55    1
    11    56    59    1
    12    55    48   am
    13    10     9   ar
    14    48    49    2
    15    48    47    1
    16     1     2    1
    17    47    50    1
    18     6     5    1
    19     6     7   ar
    20     2     5    1
    21     2     3    1
    22    19    16    1
    23     9     7   ar
    24    59    60    1
    25    60    61    1
    26    53    54    1
    27    53    52    1
    28    11     3   am
    29    11    12    1
    30    16    15    1
    31    16    17    1
    32     3     4    2
    33    50    51    1
    34    15    13   am
    35    51    52    1
    36    61    63   ar
    37    61    62   ar
    38    13    14    2
    39    13    12    1
    40    17    18    2
    41    17    24   am
    42    30    28    1
    43    24    25    1
    44    29    28    1
    45    80    79    1
    46    64    65    1
    47    28    25    1
    48    79    78    1
    49    78    77    1
    50    68    65    1
    51    68    69    1
    52    25    26    1
    53    27    26    2
    54    71    69   am
    55    65    66    1
    56    36    35    1
    57    26    31   am
    58    69    70    2
    59    77    76    1
    60    35    37    1
    61    35    32    1
    62    66    67    2
    63    66    72   am
    64    76    73    1
    65    44    43   ar
    66    31    32    1
    67    72    73    1
    68    32    33    1
    69    73    74    1
    70    99    97    1
    71    33    34    2
    72    43    45   ar
    73    43    42    1
    74    38    39    1
    75    75    74    2
    76    96    97    2
    77    96    95    1
    78    97    98    1
    79    94    95    1
    80    94    93    1
    81    39    42    1
    82    39    40    1
    83    93    90    1
    84   104   101    1
    85   100   101    1
    86    40    41    2
    87   101   102    1
    88    90    89    1
    89    90    91    1
    90    89    83   am
    91    92    91    2
    92    87    86   ar
    93    81    82    1
    94    88    86   ar
    95   102   105   am
    96   102   103    2
    97    86    85    1
    98    83    82    1
    99    83    84    2
   100   105   106    1
   101    82    85    1
   102   112   110    1
   103   110   111    1
   104   110   109    1
   105   106   109    1
   106   106   107    1
   107   107   108    2
