@<TRIPOS>MOLECULE
tmp/5aa3A00.pdb
 120 112 0 0 0
SMALL
GASTEIGER

@<TRIPOS>ATOM
      1  N         34.2910   16.1070   75.5360 N.3     8  ARG8       -0.1245
      2  CA        35.5220   16.2840   76.2690 C.3     8  ARG8        0.1563
      3  C         36.5530   15.2040   75.8700 C.2     8  ARG8        0.2260
      4  O         36.2510   14.0140   75.7680 O.2     8  ARG8       -0.2867
      5  CB        35.2340   16.2150   77.7610 C.3     8  ARG8        0.0307
      6  CG        34.3220   17.2890   78.2860 C.3     8  ARG8        0.0489
      7  CD        34.0480   17.0970   79.7700 C.3     8  ARG8        0.2205
      8  NE        34.3650   15.7480   80.2240 N.pl3   8  ARG8       -0.0865
      9  CZ        34.0180   15.2760   81.4100 C.cat   8  ARG8        0.5346
     10  NH1       33.3880   16.0880   82.2510 N.pl3   8  ARG8        0.1354
     11  NH2       34.3220   14.0240   81.7590 N.pl3   8  ARG8        0.1354
     12  N         34.9890   22.5150   80.7400 N.3    48  LEU48      -0.1245
     13  CA        33.5210   22.4940   80.7150 C.3    48  LEU48       0.1561
     14  C         32.9110   23.8520   80.4030 C.2    48  LEU48       0.2260
     15  O         31.8950   23.9260   79.7150 O.2    48  LEU48      -0.2867
     16  CB        32.9860   21.9710   82.0200 C.3    48  LEU48       0.0270
     17  CG        33.4310   20.5370   82.1590 C.3    48  LEU48       0.0019
     18  CD1       33.1950   20.1140   83.5660 C.3    48  LEU48       0.0001
     19  CD2       32.6370   19.6770   81.2190 C.3    48  LEU48       0.0001
     20  N         29.0090   14.4580   76.8430 N.3    66  ALA66      -0.1231
     21  CA        30.2430   14.5910   77.6410 C.3    66  ALA66       0.1694
     22  C         30.0540   14.1740   79.0920 C.2    66  ALA66       0.2593
     23  O         30.7060   14.7220   80.0000 O.2    66  ALA66      -0.2718
     24  CB        30.7790   16.0000   77.5830 C.3    66  ALA66       0.0304
     25  N         29.1600   13.2040   79.2880 N.am   67  GLY67      -0.1942
     26  CA        28.7720   12.7160   80.5960 C.3    67  GLY67       0.2014
     27  C         28.2610   13.8920   81.3890 C.2    67  GLY67       0.2638
     28  O         28.5360   14.0270   82.5680 O.2    67  GLY67      -0.2714
     29  N         27.4080   14.6910   80.7750 N.am   68  LEU68      -0.1977
     30  CA        26.9990   15.9200   81.4220 C.3    68  LEU68       0.1596
     31  C         25.8720   15.6270   82.3930 C.2    68  LEU68       0.2287
     32  O         24.9630   14.8300   82.1270 O.2    68  LEU68      -0.2864
     33  CB        26.5520   16.9780   80.3940 C.3    68  LEU68       0.0297
     34  CG        27.5380   17.3940   79.2990 C.3    68  LEU68       0.0022
     35  CD1       26.9070   18.3760   78.3160 C.3    68  LEU68       0.0001
     36  CD2       28.8210   17.9550   79.9210 C.3    68  LEU68       0.0001
     37  N         38.6030   20.0860   92.0480 N.3   113  VAL113     -0.1231
     38  CA        37.4630   19.6810   91.2510 C.3   113  VAL113      0.1692
     39  C         37.5270   20.3270   89.9040 C.2   113  VAL113      0.2591
     40  O         38.3640   21.1890   89.6810 O.2   113  VAL113     -0.2718
     41  CB        36.1320   20.0410   91.9400 C.3   113  VAL113      0.0266
     42  CG1       35.7870   19.0350   93.0220 C.3   113  VAL113      0.0020
     43  CG2       36.1540   21.5020   92.4250 C.3   113  VAL113      0.0020
     44  N         36.7150   19.8560   88.9720 N.am  114  LEU114     -0.1980
     45  CA        36.7290   20.5050   87.6820 C.3   114  LEU114      0.1596
     46  C         36.1070   21.8820   87.8550 C.2   114  LEU114      0.2287
     47  O         35.0730   22.0210   88.5150 O.2   114  LEU114     -0.2864
     48  CB        35.9780   19.7040   86.6190 C.3   114  LEU114      0.0297
     49  CG        36.6540   18.4440   86.0770 C.3   114  LEU114      0.0022
     50  CD1       35.9230   17.9950   84.8330 C.3   114  LEU114      0.0001
     51  CD2       38.1510   18.5770   85.8690 C.3   114  LEU114      0.0001
     52  N         32.1990   22.7500   86.7750 N.3   117  SER117     -0.1202
     53  CA        31.5020   21.4620   86.7510 C.3   117  SER117      0.2020
     54  C         30.3600   21.5070   87.7370 C.2   117  SER117      0.2619
     55  O         30.3530   22.3570   88.6300 O.2   117  SER117     -0.2717
     56  CB        32.4060   20.3110   87.1280 C.3   117  SER117      0.2103
     57  OG        32.6110   20.3400   88.5190 O.3   117  SER117     -0.2182
     58  N         29.3960   20.6090   87.5640 N.am  118  SER118     -0.1937
     59  CA        28.3520   20.4300   88.5560 C.3   118  SER118      0.2055
     60  C         28.9640   20.3300   89.9500 C.2   118  SER118      0.2643
     61  O         28.4620   20.9720   90.8740 O.2   118  SER118     -0.2714
     62  CB        27.4720   19.2090   88.2450 C.3   118  SER118      0.2130
     63  OG        28.1040   17.9950   88.5790 O.3   118  SER118     -0.2179
     64  N         30.0770   19.5980   90.1020 N.am  119  HIS119     -0.1973
     65  CA        30.5680   19.2500   91.4540 C.3   119  HIS119      0.1656
     66  C         31.1680   20.4630   92.1440 C.2   119  HIS119      0.2291
     67  O         31.0990   20.6090   93.3600 O.2   119  HIS119     -0.2864
     68  CB        31.6100   18.1280   91.4300 C.3   119  HIS119      0.0771
     69  CG        31.1440   16.8950   90.7320 C.ar  119  HIS119      0.0820
     70  ND1       31.3870   16.6550   89.3960 N.ar  119  HIS119     -0.2267
     71  CD2       30.3540   15.8820   91.1620 C.ar  119  HIS119      0.1154
     72  CE1       30.8240   15.5130   89.0480 C.ar  119  HIS119      0.1986
     73  NE2       30.1860   15.0280   90.0960 N.ar  119  HIS119     -0.2212
     74  N         39.1500   14.7720   84.9890 N.3   143  VAL143     -0.1245
     75  CA        38.9800   13.8530   86.1250 C.3   143  VAL143      0.1561
     76  C         40.1180   12.8580   86.2820 C.2   143  VAL143      0.2260
     77  O         40.5190   12.5390   87.3960 O.2   143  VAL143     -0.2867
     78  CB        37.6390   13.1100   86.0560 C.3   143  VAL143      0.0252
     79  CG1       37.6210   11.9250   86.9500 C.3   143  VAL143      0.0019
     80  CG2       36.5340   14.0580   86.4160 C.3   143  VAL143      0.0019
     81  N         42.5690   14.4100   88.5330 N.3   146  LEU146     -0.1245
     82  CA        42.1440   14.5070   89.9180 C.3   146  LEU146      0.1561
     83  C         42.4190   13.2340   90.6900 C.2   146  LEU146      0.2260
     84  O         42.8760   13.2800   91.8450 O.2   146  LEU146     -0.2867
     85  CB        40.6560   14.8640   89.9800 C.3   146  LEU146      0.0270
     86  CG        40.2220   16.2140   89.3830 C.3   146  LEU146      0.0019
     87  CD1       38.7130   16.4080   89.4690 C.3   146  LEU146      0.0001
     88  CD2       40.9420   17.3070   90.0940 C.3   146  LEU146      0.0001
     89  N         35.9500   15.2760   94.2010 N.3   159  LEU159     -0.1231
     90  CA        34.5460   14.9800   94.0840 C.3   159  LEU159      0.1693
     91  C         34.1850   14.6620   92.6480 C.2   159  LEU159      0.2592
     92  O         34.2030   15.5660   91.8200 O.2   159  LEU159     -0.2718
     93  CB        33.7440   16.1740   94.5880 C.3   159  LEU159      0.0284
     94  CG        32.2580   15.9640   94.3940 C.3   159  LEU159      0.0019
     95  CD1       31.8910   14.6350   95.0470 C.3   159  LEU159      0.0001
     96  CD2       31.4590   17.1090   94.9890 C.3   159  LEU159      0.0001
     97  N         33.7970   13.4090   92.3680 N.am  160  VAL160     -0.1966
     98  CA        33.5390   12.9740   90.9820 C.3   160  VAL160      0.1727
     99  C         32.3540   12.0210   90.8190 C.2   160  VAL160      0.2616
    100  O         31.9300   11.3780   91.7900 O.2   160  VAL160     -0.2715
    101  CB        34.7560   12.2530   90.3780 C.3   160  VAL160      0.0290
    102  CG1       36.0430   13.0800   90.6140 C.3   160  VAL160      0.0023
    103  CG2       34.9110   10.8960   90.9890 C.3   160  VAL160      0.0023
    104  N         31.8240   11.9460   89.5860 N.am  161  ASP161     -0.1971
    105  CA        30.7180   11.0200   89.2480 C.3   161  ASP161      0.1709
    106  C         31.2050    9.5720   89.3220 C.2   161  ASP161      0.2293
    107  O         32.3000    9.2900   88.8840 O.2   161  ASP161     -0.2864
    108  CB        30.1640   11.3150   87.8380 C.3   161  ASP161      0.1436
    109  CG        29.1730   12.5140   87.7930 C.2   161  ASP161      0.3671
    110  OD1       28.5210   12.8440   88.8290 O.co2 161  ASP161     -0.2456
    111  OD2       29.0800   13.1460   86.6940 O.co2 161  ASP161     -0.2456
    112  N         33.2110    7.6750   86.6010 N.3   164  GLU164     -0.1245
    113  CA        34.5650    8.0900   86.2740 C.3   164  GLU164      0.1567
    114  C         35.4410    7.2840   87.1610 C.2   164  GLU164      0.2260
    115  O         36.5140    6.8780   86.7700 O.2   164  GLU164     -0.2867
    116  CB        34.7990    9.5720   86.5670 C.3   164  GLU164      0.0388
    117  CG        34.2460   10.6280   85.5830 C.3   164  GLU164      0.1160
    118  CD        35.0450   10.8290   84.3050 C.2   164  GLU164      0.3649
    119  OE1       36.0270   10.0610   84.0800 O.co2 164  GLU164     -0.2457
    120  OE2       34.7280   11.8360   83.5880 O.co2 164  GLU164     -0.2457
@<TRIPOS>BOND
     1     1     2    1
     2     4     3    2
     3     3     2    1
     4     2     5    1
     5    20    21    1
     6    24    21    1
     7    21    22    1
     8     5     6    1
     9     6     7    1
    10    35    34    1
    11    22    25   am
    12    22    23    2
    13    25    26    1
    14    34    36    1
    15    34    33    1
    16    15    14    2
    17     7     8    1
    18     8     9    2
    19    33    30    1
    20    14    13    1
    21    26    27    1
    22    13    12    1
    23    13    16    1
    24    29    27   am
    25    29    30    1
    26    19    17    1
    27    27    28    2
    28     9    11    1
    29     9    10    1
    30    30    31    1
    31    16    17    1
    32    32    31    2
    33    17    18    1
    34   120   118   ar
    35   119   118   ar
    36   118   117    1
    37    50    49    1
    38    74    75    1
    39   117   116    1
    40    51    49    1
    41    78    75    1
    42    78    80    1
    43    78    79    1
    44    49    48    1
    45    75    76    1
    46   113   116    1
    47   113   112    1
    48   113   114    1
    49    76    77    2
    50    48    45    1
    51   111   109   ar
    52    53    52    1
    53    53    56    1
    54    53    54    1
    55   115   114    2
    56    56    57    1
    57    58    54   am
    58    58    59    1
    59    45    46    1
    60    45    44    1
    61    54    55    2
    62   109   108    1
    63   109   110   ar
    64   108   105    1
    65    46    47    2
    66    62    59    1
    67    62    63    1
    68    81    82    1
    69    59    60    1
    70   107   106    2
    71    44    39   am
    72    72    70   ar
    73    72    73   ar
    74   105   106    1
    75   105   104    1
    76    86    87    1
    77    86    85    1
    78    86    88    1
    79    70    69   ar
    80   104    99   am
    81    40    39    2
    82    39    38    1
    83    82    85    1
    84    82    83    1
    85    60    64   am
    86    60    61    2
    87    73    71   ar
    88    64    65    1
    89   101   102    1
    90   101    98    1
    91   101   103    1
    92    83    84    2
    93    69    71   ar
    94    69    68    1
    95    99    98    1
    96    99   100    2
    97    98    97    1
    98    38    41    1
    99    38    37    1
   100    68    65    1
   101    65    66    1
   102    92    91    2
   103    41    43    1
   104    41    42    1
   105    66    67    2
   106    97    91   am
   107    91    90    1
   108    90    89    1
   109    90    93    1
   110    94    93    1
   111    94    96    1
   112    94    95    1
