@<TRIPOS>MOLECULE
tmp/5aa5L00.pdb
 75 73 0 0 0
SMALL
GASTEIGER

@<TRIPOS>ATOM
      1  N         16.9240  140.5820   -6.3340 N.3   233  TYR233     -0.1241
      2  CA        17.1400  139.5130   -5.3680 C.3   233  TYR233      0.1605
      3  C         18.0490  139.9880   -4.2440 C.2   233  TYR233      0.2264
      4  O         17.7760  139.7520   -3.0650 O.2   233  TYR233     -0.2867
      5  CB        17.7460  138.2950   -6.0630 C.3   233  TYR233      0.0534
      6  CG        17.8810  137.0640   -5.1980 C.ar  233  TYR233     -0.0201
      7  CD1       18.9960  136.8740   -4.3940 C.ar  233  TYR233     -0.0009
      8  CD2       16.9040  136.0770   -5.2060 C.ar  233  TYR233     -0.0009
      9  CE1       19.1310  135.7410   -3.6120 C.ar  233  TYR233      0.0417
     10  CE2       17.0290  134.9400   -4.4300 C.ar  233  TYR233      0.0417
     11  CZ        18.1440  134.7770   -3.6330 C.ar  233  TYR233      0.1957
     12  OH        18.2720  133.6460   -2.8590 O.3   233  TYR233     -0.2866
     13  N         11.7440  133.8770   -7.9950 N.3   249  VAL249     -0.1245
     14  CA        12.0950  132.6570   -7.2700 C.3   249  VAL249      0.1561
     15  C         10.9140  132.0950   -6.4790 C.2   249  VAL249      0.2260
     16  O         10.7240  130.8810   -6.4220 O.2   249  VAL249     -0.2867
     17  CB        13.2680  132.8880   -6.3050 C.3   249  VAL249      0.0252
     18  CG1       12.9190  133.9680   -5.2910 C.3   249  VAL249      0.0019
     19  CG2       13.6330  131.5930   -5.6040 C.3   249  VAL249      0.0019
     20  N         11.0840  129.7370   -9.6710 N.3   253  CYS253     -0.1221
     21  CA        12.3940  129.7990  -10.2860 C.3   253  CYS253      0.1808
     22  C         13.3950  128.9650   -9.5040 C.2   253  CYS253      0.2601
     23  O         13.6790  129.2500   -8.3490 O.2   253  CYS253     -0.2717
     24  CB        12.8720  131.2450  -10.3880 C.3   253  CYS253      0.0970
     25  SG        14.4260  131.4150  -11.2920 S.3   253  CYS253     -0.0800
     26  N         13.9230  127.9280  -10.1450 N.am  254  TRP254     -0.1976
     27  CA        14.9870  127.1160   -9.5650 C.3   254  TRP254      0.1640
     28  C         16.3730  127.6640   -9.9140 C.2   254  TRP254      0.2290
     29  O         17.3600  126.9300   -9.9080 O.2   254  TRP254     -0.2864
     30  CB        14.8720  125.6780  -10.0530 C.3   254  TRP254      0.0576
     31  CG        13.9100  124.8430   -9.2980 C.ar  254  TRP254      0.0006
     32  CD1       12.5770  124.6810   -9.5490 C.ar  254  TRP254      0.0946
     33  CD2       14.2120  124.0230   -8.1740 C.ar  254  TRP254      0.0152
     34  NE1       12.0270  123.8090   -8.6370 N.ar  254  TRP254     -0.2442
     35  CE2       13.0140  123.3910   -7.7820 C.ar  254  TRP254      0.0810
     36  CE3       15.3800  123.7640   -7.4530 C.ar  254  TRP254      0.0012
     37  CZ2       12.9550  122.5180   -6.7020 C.ar  254  TRP254      0.0191
     38  CZ3       15.3180  122.9000   -6.3850 C.ar  254  TRP254      0.0001
     39  CH2       14.1150  122.2890   -6.0170 C.ar  254  TRP254      0.0015
     40  N         19.0190  129.6120   -8.8290 N.3   256  PRO256     -0.2102
     41  CA        20.3070  129.6300   -8.1250 C.3   256  PRO256      0.1504
     42  C         21.0050  128.2790   -8.0300 C.2   256  PRO256      0.2575
     43  O         22.1740  128.2530   -7.6470 O.2   256  PRO256     -0.2718
     44  CB        19.9320  130.1260   -6.7300 C.3   256  PRO256      0.0282
     45  CG        18.6770  130.8870   -6.9290 C.3   256  PRO256      0.0208
     46  CD        17.9320  130.1340   -7.9870 C.3   256  PRO256      0.0893
     47  N         20.3230  127.1890   -8.3720 N.am  257  VAL257     -0.1980
     48  CA        20.9360  125.8670   -8.2750 C.3   257  VAL257      0.1595
     49  C         20.9970  125.1130   -9.5980 C.2   257  VAL257      0.2287
     50  O         21.3900  123.9460   -9.6270 O.2   257  VAL257     -0.2864
     51  CB        20.1950  124.9900   -7.2610 C.3   257  VAL257      0.0276
     52  CG1       20.4200  125.5240   -5.8580 C.3   257  VAL257      0.0022
     53  CG2       18.7140  124.9400   -7.5890 C.3   257  VAL257      0.0022
     54  N         10.6250  126.7010   -4.9330 N.3   300  PRO300     -0.2116
     55  CA        11.5930  125.6960   -4.4800 C.3   300  PRO300      0.1372
     56  C         11.8290  125.8210   -2.9820 C.2   300  PRO300      0.2244
     57  O         12.0240  126.9350   -2.4900 O.2   300  PRO300     -0.2868
     58  CB        12.8580  126.0320   -5.2790 C.3   300  PRO300      0.0268
     59  CG        12.7010  127.4720   -5.6470 C.3   300  PRO300      0.0207
     60  CD        11.2280  127.6720   -5.8620 C.3   300  PRO300      0.0892
     61  N         14.0730  125.5870   -0.7270 N.3   302  GLY302     -0.1210
     62  CA        15.1560  126.3440   -0.1220 C.3   302  GLY302      0.1956
     63  C         15.1620  127.8350   -0.4240 C.2   302  GLY302      0.2611
     64  O         16.0820  128.5470   -0.0190 O.2   302  GLY302     -0.2717
     65  N         14.1410  128.3170   -1.1250 N.am  303  ALA303     -0.1979
     66  CA        14.1180  129.7080   -1.5720 C.3   303  ALA303      0.1597
     67  C         13.7990  130.6770   -0.4420 C.2   303  ALA303      0.2287
     68  O         14.5730  131.5940   -0.1570 O.2   303  ALA303     -0.2864
     69  CB        13.1140  129.8800   -2.7000 C.3   303  ALA303      0.0319
     70  N         16.7040  132.1870    2.2230 N.3   306  SER306     -0.1217
     71  CA        17.6140  133.3030    1.9710 C.3   306  SER306      0.1889
     72  C         16.8830  134.6400    1.8840 C.2   306  SER306      0.2288
     73  O         17.4980  135.7020    1.9850 O.2   306  SER306     -0.2866
     74  CB        18.3990  133.0620    0.6830 C.3   306  SER306      0.2089
     75  OG        17.5200  132.9400   -0.4220 O.3   306  SER306     -0.2183
@<TRIPOS>BOND
     1    25    24    1
     2    24    21    1
     3    21    20    1
     4    21    22    1
     5    26    27    1
     6    26    22   am
     7    30    27    1
     8    30    31    1
     9    28    29    2
    10    28    27    1
    11    50    49    2
    12    49    48    1
    13    32    31   ar
    14    32    34   ar
    15    22    23    2
    16    31    33   ar
    17    40    41    1
    18    40    46    1
    19    34    35   ar
    20    47    48    1
    21    47    42   am
    22    48    51    1
    23    33    35   ar
    24    33    36   ar
    25    41    42    1
    26    41    44    1
    27    42    43    2
    28    13    14    1
    29    46    45    1
    30    35    37   ar
    31    53    51    1
    32    36    38   ar
    33    14    15    1
    34    14    17    1
    35    51    52    1
    36    45    44    1
    37    37    39   ar
    38    15    16    2
    39    38    39   ar
    40     1     2    1
    41    17    19    1
    42    17    18    1
    43     5     2    1
    44     5     6    1
    45    60    59    1
    46    60    54    1
    47    59    58    1
    48     2     3    1
    49    58    55    1
    50     8     6   ar
    51     8    10   ar
    52     6     7   ar
    53    54    55    1
    54    55    56    1
    55    10    11   ar
    56     7     9   ar
    57     3     4    2
    58    11     9   ar
    59    11    12    1
    60    56    57    2
    61    69    66    1
    62    66    65    1
    63    66    67    1
    64    65    63   am
    65    61    62    1
    66    67    68    2
    67    63    62    1
    68    63    64    2
    69    75    74    1
    70    74    71    1
    71    72    71    1
    72    72    73    2
    73    71    70    1
