@<TRIPOS>MOLECULE
tmp/5aa9A00.pdb
 136 128 0 0 0
SMALL
GASTEIGER

@<TRIPOS>ATOM
      1  N         28.1290   46.6940    1.0170 N.3    30  LEU30      -0.1231
      2  CA        28.3280   47.6040    2.1390 C.3    30  LEU30       0.1693
      3  C         29.6710   48.3060    2.0380 C.2    30  LEU30       0.2592
      4  O         30.1410   48.9160    2.9940 O.2    30  LEU30      -0.2718
      5  CB        28.2480   46.8400    3.4600 C.3    30  LEU30       0.0284
      6  CG        26.8560   46.3160    3.8060 C.3    30  LEU30       0.0019
      7  CD1       26.8750   45.6300    5.1610 C.3    30  LEU30       0.0001
      8  CD2       25.8750   47.4800    3.8090 C.3    30  LEU30       0.0001
      9  N         30.2820   48.2230    0.8660 N.am   31  GLY31      -0.1957
     10  CA        31.6350   48.7100    0.7230 C.3    31  GLY31       0.1869
     11  C         32.5590   47.5490    0.9910 C.2    31  GLY31       0.2309
     12  O         32.9020   47.2610    2.1340 O.2    31  GLY31      -0.2863
     13  N         31.5570   42.5980    1.4670 N.3    38  VAL38      -0.1245
     14  CA        30.6130   42.5740    2.5730 C.3    38  VAL38       0.1561
     15  C         29.2690   43.1230    2.1120 C.2    38  VAL38       0.2260
     16  O         29.1970   44.1830    1.4900 O.2    38  VAL38      -0.2867
     17  CB        31.1280   43.4060    3.7710 C.3    38  VAL38       0.0252
     18  CG1       30.1350   43.3420    4.9200 C.3    38  VAL38       0.0019
     19  CG2       32.4850   42.8770    4.2230 C.3    38  VAL38       0.0019
     20  N         24.8680   41.0160    8.2980 N.3    48  ALA48      -0.1245
     21  CA        25.9480   41.3950    7.4050 C.3    48  ALA48       0.1562
     22  C         26.6450   40.1260    6.9380 C.2    48  ALA48       0.2260
     23  O         26.9510   39.2430    7.7380 O.2    48  ALA48      -0.2867
     24  CB        26.9350   42.3020    8.1250 C.3    48  ALA48       0.0290
     25  N         29.8760   38.4760    5.2670 N.3    50  LYS50      -0.1245
     26  CA        31.2680   38.5630    4.8670 C.3    50  LYS50       0.1561
     27  C         31.5850   37.3660    3.9760 C.2    50  LYS50       0.2260
     28  O         31.3000   36.2230    4.3350 O.2    50  LYS50      -0.2867
     29  CB        32.1630   38.5700    6.1110 C.3    50  LYS50       0.0271
     30  CG        33.6490   38.6830    5.8270 C.3    50  LYS50       0.0035
     31  CD        34.4200   38.9580    7.1130 C.3    50  LYS50       0.0206
     32  CE        35.8940   39.2500    6.8360 C.3    50  LYS50       0.1093
     33  NZ        36.0700   40.3810    5.8760 N.3    50  LYS50      -0.1314
     34  N         30.6690   41.9260   18.2170 N.3    80  VAL80      -0.1245
     35  CA        29.6130   41.5560   17.2850 C.3    80  VAL80       0.1561
     36  C         29.3200   40.0660   17.3570 C.2    80  VAL80       0.2260
     37  O         30.2380   39.2500   17.4770 O.2    80  VAL80      -0.2867
     38  CB        29.9710   41.9200   15.8160 C.3    80  VAL80       0.0252
     39  CG1       30.0070   43.4290   15.6490 C.3    80  VAL80       0.0019
     40  CG2       31.3070   41.3000   15.4270 C.3    80  VAL80       0.0019
     41  N         27.1700   37.9610   10.1980 N.3    96  LEU96      -0.1231
     42  CA        27.3870   38.7070   11.4320 C.3    96  LEU96       0.1693
     43  C         26.1990   39.5880   11.7810 C.2    96  LEU96       0.2592
     44  O         25.3970   39.9600   10.9170 O.2    96  LEU96      -0.2718
     45  CB        28.6350   39.5870   11.3100 C.3    96  LEU96       0.0284
     46  CG        29.9440   38.8940   10.9190 C.3    96  LEU96       0.0019
     47  CD1       30.9980   39.9500   10.6150 C.3    96  LEU96       0.0001
     48  CD2       30.4050   37.9750   12.0450 C.3    96  LEU96       0.0001
     49  N         26.1060   39.9180   13.0630 N.am   97  GLU97      -0.1966
     50  CA        25.2100   40.9550   13.5450 C.3    97  GLU97       0.1733
     51  C         25.3290   42.1840   12.6380 C.2    97  GLU97       0.2616
     52  O         26.4290   42.6910   12.4080 O.2    97  GLU97      -0.2715
     53  CB        25.6020   41.3050   14.9870 C.3    97  GLU97       0.0429
     54  CG        24.7830   42.4010   15.6420 C.3    97  GLU97       0.1163
     55  CD        25.2380   42.6880   17.0710 C.2    97  GLU97       0.3649
     56  OE1       26.2140   42.0610   17.5360 O.co2  97  GLU97      -0.2457
     57  OE2       24.6210   43.5430   17.7330 O.co2  97  GLU97      -0.2457
     58  N         24.2000   42.6610   12.1230 N.am   98  PHE98      -0.1960
     59  CA        24.1960   43.8200   11.2340 C.3    98  PHE98       0.1771
     60  C         24.3520   45.1200   12.0260 C.2    98  PHE98       0.2619
     61  O         23.5400   45.4350   12.8920 O.2    98  PHE98      -0.2715
     62  CB        22.8940   43.8590   10.4240 C.3    98  PHE98       0.0574
     63  CG        22.8320   44.9820    9.4280 C.ar   98  PHE98      -0.0200
     64  CD1       23.6140   44.9560    8.2860 C.ar   98  PHE98      -0.0042
     65  CD2       22.0040   46.0720    9.6420 C.ar   98  PHE98      -0.0042
     66  CE1       23.5720   46.0010    7.3730 C.ar   98  PHE98      -0.0003
     67  CE2       21.9570   47.1180    8.7360 C.ar   98  PHE98      -0.0003
     68  CZ        22.7430   47.0820    7.6010 C.ar   98  PHE98      -0.0000
     69  N         25.4020   45.8760   11.7200 N.am   99  MET99      -0.1963
     70  CA        25.7110   47.0860   12.4690 C.3    99  MET99       0.1736
     71  C         25.5180   48.3120   11.5880 C.2    99  MET99       0.2616
     72  O         26.4460   48.7610   10.9140 O.2    99  MET99      -0.2715
     73  CB        27.1490   47.0250   12.9900 C.3    99  MET99       0.0427
     74  CG        27.4250   45.8290   13.8910 C.3    99  MET99       0.0599
     75  SD        26.6830   45.9950   15.5320 S.3    99  MET99      -0.1393
     76  CE        25.0080   45.5420   15.2370 C.3    99  MET99       0.0692
     77  N         24.3050   48.8580   11.6230 N.am  100  ALA100     -0.1963
     78  CA        23.8570   49.8540   10.6540 C.3   100  ALA100      0.1728
     79  C         24.6290   51.1680   10.7330 C.2   100  ALA100      0.2617
     80  O         24.6040   51.9680    9.7930 O.2   100  ALA100     -0.2715
     81  CB        22.3590   50.1180   10.8430 C.3   100  ALA100      0.0334
     82  N         25.3010   51.3970   11.8560 N.am  101  GLY101     -0.1940
     83  CA        26.0970   52.6040   11.9950 C.3   101  GLY101      0.2014
     84  C         27.4230   52.5390   11.2550 C.2   101  GLY101      0.2639
     85  O         28.1310   53.5400   11.1610 O.2   101  GLY101     -0.2714
     86  N         27.7670   51.3630   10.7380 N.am  102  GLY102     -0.1939
     87  CA        29.0230   51.2060   10.0270 C.3   102  GLY102      0.2014
     88  C         30.2360   51.1580   10.9400 C.2   102  GLY102      0.2638
     89  O         30.0960   51.0350   12.1590 O.2   102  GLY102     -0.2714
     90  N         31.4300   51.2580   10.3610 N.am  103  ASP103     -0.1971
     91  CA        32.6540   51.2710   11.1610 C.3   103  ASP103      0.1709
     92  C         32.8620   52.6290   11.8330 C.2   103  ASP103      0.2293
     93  O         32.3580   53.6520   11.3710 O.2   103  ASP103     -0.2864
     94  CB        33.8750   50.9150   10.2980 C.3   103  ASP103      0.1436
     95  CG        34.3770   52.0850    9.4680 C.2   103  ASP103      0.3671
     96  OD1       35.2090   52.8660    9.9770 O.co2 103  ASP103     -0.2456
     97  OD2       33.9490   52.2210    8.3040 O.co2 103  ASP103     -0.2456
     98  N         38.9540   51.5550   12.8410 N.3   153  ARG153     -0.1231
     99  CA        38.5540   50.8740   11.6050 C.3   153  ARG153      0.1694
    100  C         37.9820   49.4850   11.9040 C.2   153  ARG153      0.2592
    101  O         37.2660   48.9130   11.0800 O.2   153  ARG153     -0.2718
    102  CB        39.7500   50.7390   10.6490 C.3   153  ARG153      0.0321
    103  CG        40.8270   49.7750   11.1450 C.3   153  ARG153      0.0489
    104  CD        42.0850   49.7750   10.2730 C.3   153  ARG153      0.2205
    105  NE        43.2130   49.1640   10.9810 N.pl3 153  ARG153     -0.0865
    106  CZ        44.0670   49.8450   11.7430 C.cat 153  ARG153      0.5346
    107  NH1       43.9210   51.1520   11.8870 N.pl3 153  ARG153      0.1354
    108  NH2       45.0510   49.2260   12.3770 N.pl3 153  ARG153      0.1354
    109  N         38.2940   48.9480   13.0830 N.am  154  ASN154     -0.1974
    110  CA        37.8720   47.5960   13.4450 C.3   154  ASN154      0.1688
    111  C         36.7100   47.5650   14.4380 C.2   154  ASN154      0.2292
    112  O         36.3700   46.5070   14.9610 O.2   154  ASN154     -0.2864
    113  CB        39.0560   46.8050   14.0120 C.3   154  ASN154      0.1181
    114  CG        40.1110   46.5130   12.9640 C.2   154  ASN154      0.2629
    115  OD1       39.7900   46.2450   11.8030 O.2   154  ASN154     -0.2716
    116  ND2       41.3780   46.5700   13.3620 N.am  154  ASN154     -0.0877
    117  N         32.5380   48.7570   15.1890 N.3   156  LEU156     -0.1245
    118  CA        31.2750   49.0060   14.4910 C.3   156  LEU156      0.1561
    119  C         30.2440   49.6320   15.4290 C.2   156  LEU156      0.2260
    120  O         30.3630   49.5350   16.6570 O.2   156  LEU156     -0.2867
    121  CB        30.7270   47.6900   13.9290 C.3   156  LEU156      0.0270
    122  CG        31.5590   46.9670   12.8610 C.3   156  LEU156      0.0019
    123  CD1       31.0760   45.5250   12.7170 C.3   156  LEU156      0.0001
    124  CD2       31.4520   47.7000   11.5390 C.3   156  LEU156      0.0001
    125  N         34.5110   44.5090   15.8870 N.3   169  GLY169     -0.1210
    126  CA        33.8620   43.8240   14.7850 C.3   169  GLY169      0.1956
    127  C         34.7810   43.0520   13.8580 C.2   169  GLY169      0.2611
    128  O         34.3030   42.3470   12.9660 O.2   169  GLY169     -0.2717
    129  N         36.0910   43.1850   14.0510 N.am  170  ASP170     -0.1973
    130  CA        37.0660   42.4900   13.2110 C.3   170  ASP170      0.1709
    131  C         38.1650   41.8510   14.0590 C.2   170  ASP170      0.2293
    132  O         38.6810   42.4660   14.9920 O.2   170  ASP170     -0.2864
    133  CB        37.6930   43.4670   12.2100 C.3   170  ASP170      0.1436
    134  CG        38.7530   42.8120   11.3370 C.2   170  ASP170      0.3671
    135  OD1       39.8820   42.5760   11.8260 O.co2 170  ASP170     -0.2456
    136  OD2       38.4630   42.5360   10.1540 O.co2 170  ASP170     -0.2456
@<TRIPOS>BOND
     1    10     9    1
     2    10    11    1
     3     9     3   am
     4    11    12    2
     5     1     2    1
     6    13    14    1
     7    16    15    2
     8     3     2    1
     9     3     4    2
    10    15    14    1
    11     2     5    1
    12    14    17    1
    13     5     6    1
    14    17    19    1
    15    17    18    1
    16     6     8    1
    17     6     7    1
    18    27    28    2
    19    27    26    1
    20    26    25    1
    21    26    29    1
    22    30    29    1
    23    30    31    1
    24    33    32    1
    25    32    31    1
    26    22    21    1
    27    22    23    2
    28    66    68   ar
    29    66    64   ar
    30    21    24    1
    31    21    20    1
    32    68    67   ar
    33    64    63   ar
    34    97    95   ar
    35    67    65   ar
    36    63    65   ar
    37    63    62    1
    38    95    96   ar
    39    95    94    1
    40    80    79    2
    41    87    86    1
    42    87    88    1
    43   136   134   ar
    44    41    42    1
    45   104   105    1
    46   104   103    1
    47    94    91    1
    48    90    88   am
    49    90    91    1
    50    62    59    1
    51    47    46    1
    52   102   103    1
    53   102    99    1
    54    78    79    1
    55    78    81    1
    56    78    77    1
    57    79    82   am
    58    86    84   am
    59    72    71    2
    60    44    43    2
    61    46    45    1
    62    46    48    1
    63    88    89    2
    64   105   106    2
    65   101   100    2
    66    85    84    2
    67    91    92    1
    68    59    60    1
    69    59    58    1
    70    84    83    1
    71    45    42    1
    72   134   135   ar
    73   134   133    1
    74    93    92    2
    75    42    43    1
    76   124   122    1
    77    71    77   am
    78    71    70    1
    79    99   100    1
    80    99    98    1
    81    69    60   am
    82    69    70    1
    83   106   107    1
    84   106   108    1
    85    43    49   am
    86   115   114    2
    87    82    83    1
    88   100   109   am
    89    60    61    2
    90    58    51   am
    91   133   130    1
    92    52    51    2
    93    70    73    1
    94    51    50    1
    95   123   122    1
    96   122   121    1
    97   114   116   am
    98   114   113    1
    99   128   127    2
   100    73    74    1
   101    49    50    1
   102   109   110    1
   103   130   129    1
   104   130   131    1
   105   110   113    1
   106   110   111    1
   107    50    53    1
   108   127   129   am
   109   127   126    1
   110    74    75    1
   111   121   118    1
   112   131   132    2
   113   111   112    2
   114   118   117    1
   115   118   119    1
   116   126   125    1
   117    53    54    1
   118    76    75    1
   119    40    38    1
   120   119   120    2
   121    54    55    1
   122    39    38    1
   123    38    35    1
   124    55    56   ar
   125    55    57   ar
   126    35    36    1
   127    35    34    1
   128    36    37    2
