@<TRIPOS>MOLECULE
tmp/5aadA00.pdb
 214 206 0 0 0
SMALL
GASTEIGER

@<TRIPOS>ATOM
      1  N          5.5750   27.6970   81.0890 N.3    11  ARG11      -0.1245
      2  CA         4.8010   27.6250   82.3100 C.3    11  ARG11       0.1563
      3  C          3.3810   27.2070   81.9900 C.2    11  ARG11       0.2260
      4  O          2.8510   27.5500   80.9450 O.2    11  ARG11      -0.2867
      5  CB         4.8120   28.9540   83.0510 C.3    11  ARG11       0.0307
      6  CG         4.8130   30.1430   82.1420 C.3    11  ARG11       0.0489
      7  CD         3.4560   30.7830   82.1000 C.3    11  ARG11       0.2205
      8  NE         3.0050   31.2270   83.4100 N.pl3  11  ARG11      -0.0865
      9  CZ         2.0950   32.1770   83.5810 C.cat  11  ARG11       0.5346
     10  NH1        1.5590   32.7830   82.5190 N.pl3  11  ARG11       0.1354
     11  NH2        1.7230   32.5260   84.8100 N.pl3  11  ARG11       0.1354
     12  N         -0.3730   27.4400   82.0080 N.3    13  LEU13      -0.1231
     13  CA        -1.2590   28.6030   82.0040 C.3    13  LEU13       0.1693
     14  C         -2.5250   28.3700   82.8280 C.2    13  LEU13       0.2593
     15  O         -2.8250   29.1410   83.7570 O.2    13  LEU13      -0.2718
     16  CB        -1.6680   28.9840   80.5650 C.3    13  LEU13       0.0284
     17  CG        -0.6710   29.3900   79.4680 C.3    13  LEU13       0.0019
     18  CD1       -1.3850   30.2890   78.4920 C.3    13  LEU13       0.0001
     19  CD2        0.5490   30.0790   80.0250 C.3    13  LEU13       0.0001
     20  N         -3.2750   27.3260   82.4610 N.am   14  GLY14      -0.1942
     21  CA        -4.4760   26.9300   83.1810 C.3    14  GLY14       0.2014
     22  C         -4.4800   25.4740   83.6230 C.2    14  GLY14       0.2639
     23  O         -3.8170   24.6260   83.0330 O.2    14  GLY14      -0.2714
     24  N         -5.2190   25.1810   84.6860 N.am   15  LYS15      -0.1963
     25  CA        -5.4690   23.7980   85.0780 C.3    15  LYS15       0.1728
     26  C         -6.9120   23.4600   84.7250 C.2    15  LYS15       0.2617
     27  O         -7.7560   24.3520   84.6360 O.2    15  LYS15      -0.2715
     28  CB        -5.2020   23.5790   86.5690 C.3    15  LYS15       0.0311
     29  CG        -3.7500   23.8240   86.9600 C.3    15  LYS15       0.0038
     30  CD        -2.8760   22.6770   86.4730 C.3    15  LYS15       0.0206
     31  CE        -1.4550   22.8920   86.9910 C.3    15  LYS15       0.1093
     32  NZ        -0.4560   22.3430   86.0310 N.3    15  LYS15      -0.1314
     33  N         -7.1980   22.1820   84.5060 N.am   16  GLY16      -0.1940
     34  CA        -8.5300   21.7920   84.0840 C.3    16  GLY16       0.2014
     35  C         -8.9560   20.4310   84.5710 C.2    16  GLY16       0.2639
     36  O         -8.1410   19.6390   85.0410 O.2    16  GLY16      -0.2714
     37  N        -10.2510   20.1710   84.4500 N.am   17  LYS17      -0.1963
     38  CA       -10.8340   18.9160   84.8960 C.3    17  LYS17       0.1728
     39  C        -10.2120   17.7360   84.1690 C.2    17  LYS17       0.2616
     40  O         -9.9110   16.7120   84.7730 O.2    17  LYS17      -0.2715
     41  CB       -12.3520   18.9190   84.6790 C.3    17  LYS17       0.0311
     42  CG       -13.0430   17.8000   85.4320 C.3    17  LYS17       0.0038
     43  CD       -14.5450   17.7980   85.2230 C.3    17  LYS17       0.0206
     44  CE       -15.2410   17.1280   86.4010 C.3    17  LYS17       0.1093
     45  NZ       -14.6550   15.7890   86.7160 N.3    17  LYS17      -0.1314
     46  N        -10.0030   17.9010   82.8680 N.am   18  PHE18      -0.1960
     47  CA        -9.5980   16.7970   82.0080 C.3    18  PHE18       0.1771
     48  C         -8.1580   16.8970   81.5670 C.2    18  PHE18       0.2620
     49  O         -7.4290   15.9050   81.5160 O.2    18  PHE18      -0.2715
     50  CB       -10.4790   16.7510   80.7770 C.3    18  PHE18       0.0574
     51  CG       -11.9260   16.5430   81.0770 C.ar   18  PHE18      -0.0200
     52  CD1      -12.4520   15.2670   81.1510 C.ar   18  PHE18      -0.0042
     53  CD2      -12.7650   17.6240   81.2760 C.ar   18  PHE18      -0.0042
     54  CE1      -13.7830   15.0760   81.4190 C.ar   18  PHE18      -0.0003
     55  CE2      -14.0960   17.4380   81.5440 C.ar   18  PHE18      -0.0003
     56  CZ       -14.6080   16.1650   81.6170 C.ar   18  PHE18      -0.0000
     57  N         -7.7690   18.1100   81.2120 N.am   19  GLY19      -0.1940
     58  CA        -6.4020   18.3820   80.8440 C.3    19  GLY19       0.2014
     59  C         -5.9970   19.7790   81.2580 C.2    19  GLY19       0.2639
     60  O         -6.7890   20.5110   81.8450 O.2    19  GLY19      -0.2714
     61  N         -4.7570   20.1420   80.9440 N.am   20  ASN20      -0.1958
     62  CA        -4.2120   21.4480   81.2870 C.3    20  ASN20       0.1819
     63  C         -3.8010   22.2450   80.0680 C.2    20  ASN20       0.2621
     64  O         -3.8750   21.7660   78.9480 O.2    20  ASN20      -0.2715
     65  CB        -3.0110   21.2890   82.2040 C.3    20  ASN20       0.1195
     66  CG        -3.3010   20.3980   83.3710 C.2    20  ASN20       0.2630
     67  OD1       -4.4300   20.3460   83.8610 O.2    20  ASN20      -0.2716
     68  ND2       -2.2830   19.6760   83.8270 N.am   20  ASN20      -0.0877
     69  N         -3.3610   23.4730   80.2940 N.am   21  VAL21      -0.1977
     70  CA        -2.8280   24.2990   79.2140 C.3    21  VAL21       0.1596
     71  C         -1.4840   24.9430   79.5610 C.2    21  VAL21       0.2287
     72  O         -1.3130   25.5450   80.6140 O.2    21  VAL21      -0.2864
     73  CB        -3.7920   25.4080   78.8360 C.3    21  VAL21       0.0276
     74  CG1       -3.1780   26.2610   77.7490 C.3    21  VAL21       0.0022
     75  CG2       -5.1230   24.8180   78.4010 C.3    21  VAL21       0.0022
     76  N         -0.6770   29.0140   72.9860 N.3    34  ALA34      -0.1245
     77  CA        -1.1280   28.2060   74.1060 C.3    34  ALA34       0.1562
     78  C         -1.4150   26.8170   73.6010 C.2    34  ALA34       0.2260
     79  O         -1.8700   26.6380   72.4700 O.2    34  ALA34      -0.2867
     80  CB        -2.3430   28.7990   74.7480 C.3    34  ALA34       0.0290
     81  N         -3.2780   23.3550   74.6930 N.3    36  LYS36      -0.1245
     82  CA        -4.1430   22.5900   75.5960 C.3    36  LYS36       0.1561
     83  C         -3.8740   21.0980   75.4560 C.2    36  LYS36       0.2260
     84  O         -3.8480   20.5650   74.3520 O.2    36  LYS36      -0.2867
     85  CB        -5.6170   22.8950   75.3250 C.3    36  LYS36       0.0271
     86  CG        -6.5910   22.0670   76.1380 C.3    36  LYS36       0.0035
     87  CD        -7.7760   22.9040   76.6480 C.3    36  LYS36       0.0206
     88  CE        -8.6080   23.5130   75.5170 C.3    36  LYS36       0.1093
     89  NZ        -9.7210   24.3930   76.0110 N.3    36  LYS36      -0.1314
     90  N         -5.1810   17.4540   76.5760 N.3    38  LEU38      -0.1245
     91  CA        -6.3010   16.7340   77.1660 C.3    38  LEU38       0.1561
     92  C         -5.9540   15.2650   77.3160 C.2    38  LEU38       0.2260
     93  O         -5.1000   14.7530   76.6030 O.2    38  LEU38      -0.2867
     94  CB        -7.5600   16.9210   76.3200 C.3    38  LEU38       0.0270
     95  CG        -7.9750   18.3840   76.1340 C.3    38  LEU38       0.0019
     96  CD1       -9.2980   18.4950   75.4060 C.3    38  LEU38       0.0001
     97  CD2       -8.0340   19.0870   77.4770 C.3    38  LEU38       0.0001
     98  N        -10.8440   33.3770   70.5610 N.3    68  LEU68      -0.1245
     99  CA        -9.5650   32.6920   70.5740 C.3    68  LEU68       0.1561
    100  C         -9.4060   31.7350   69.3970 C.2    68  LEU68       0.2260
    101  O        -10.1450   30.7600   69.2750 O.2    68  LEU68      -0.2867
    102  CB        -9.3970   31.9160   71.8700 C.3    68  LEU68       0.0270
    103  CG        -7.9520   31.5350   72.1360 C.3    68  LEU68       0.0019
    104  CD1       -7.1150   32.7970   72.1780 C.3    68  LEU68       0.0001
    105  CD2       -7.8160   30.7590   73.4340 C.3    68  LEU68       0.0001
    106  N         -3.6510   26.2670   70.3770 N.3    84  LEU84      -0.1231
    107  CA        -4.4470   27.4900   70.4710 C.3    84  LEU84       0.1693
    108  C         -3.6550   28.7660   70.4140 C.2    84  LEU84       0.2592
    109  O         -2.4780   28.7940   70.7220 O.2    84  LEU84      -0.2718
    110  CB        -5.2250   27.4930   71.7630 C.3    84  LEU84       0.0284
    111  CG        -6.1850   26.3400   71.9230 C.3    84  LEU84       0.0019
    112  CD1       -6.5620   26.2130   73.3850 C.3    84  LEU84       0.0001
    113  CD2       -7.3830   26.6590   71.0760 C.3    84  LEU84       0.0001
    114  N         -4.3540   29.8310   70.0650 N.am   85  GLU85      -0.1966
    115  CA        -3.7880   31.1640   70.0750 C.3    85  GLU85       0.1733
    116  C         -3.4210   31.5240   71.4920 C.2    85  GLU85       0.2616
    117  O         -3.9940   30.9990   72.4290 O.2    85  GLU85      -0.2715
    118  CB        -4.7760   32.1670   69.5090 C.3    85  GLU85       0.0429
    119  CG        -4.2490   33.5510   69.4170 C.3    85  GLU85       0.1163
    120  CD        -5.3460   34.5690   69.3980 C.2    85  GLU85       0.3649
    121  OE1       -6.3890   34.2990   68.7670 O.co2  85  GLU85      -0.2457
    122  OE2       -5.1710   35.6370   70.0270 O.co2  85  GLU85      -0.2457
    123  N         -2.4690   32.4120   71.6840 N.am   86  TYR86      -0.1960
    124  CA        -2.0940   32.7060   73.0470 C.3    86  TYR86       0.1771
    125  C         -2.5740   34.0970   73.4640 C.2    86  TYR86       0.2619
    126  O         -2.5000   35.0690   72.7050 O.2    86  TYR86      -0.2715
    127  CB        -0.5850   32.5460   73.2140 C.3    86  TYR86       0.0574
    128  CG        -0.0600   33.1480   74.4820 C.ar   86  TYR86      -0.0198
    129  CD1       -0.4890   32.6900   75.7080 C.ar   86  TYR86      -0.0009
    130  CD2        0.8590   34.1800   74.4500 C.ar   86  TYR86      -0.0009
    131  CE1       -0.0190   33.2400   76.8670 C.ar   86  TYR86       0.0417
    132  CE2        1.3320   34.7350   75.5990 C.ar   86  TYR86       0.0417
    133  CZ         0.8930   34.2640   76.8090 C.ar   86  TYR86       0.1957
    134  OH         1.3610   34.8310   77.9720 O.3    86  TYR86      -0.2866
    135  N         -3.1150   34.1650   74.6710 N.am   87  ALA87      -0.1964
    136  CA        -3.5940   35.4150   75.2180 C.3    87  ALA87       0.1713
    137  C         -2.5620   35.9370   76.1890 C.2    87  ALA87       0.2458
    138  O         -2.4060   35.3870   77.2730 O.2    87  ALA87      -0.2730
    139  CB        -4.9300   35.2310   75.8980 C.3    87  ALA87       0.0333
    140  N         -1.8360   36.9890   75.7900 N.am   88  PRO88      -0.2716
    141  CA        -0.7600   37.5550   76.5890 C.3    88  PRO88       0.1536
    142  C         -1.2660   38.0570   77.9030 C.2    88  PRO88       0.2598
    143  O         -0.7010   37.7050   78.9360 O.2    88  PRO88      -0.2715
    144  CB        -0.2680   38.7220   75.7570 C.3    88  PRO88       0.0310
    145  CG        -0.7340   38.4680   74.4260 C.3    88  PRO88       0.0237
    146  CD        -2.0090   37.7200   74.5380 C.3    88  PRO88       0.0939
    147  N         -2.3300   38.8560   77.8660 N.am   89  LEU89      -0.1964
    148  CA        -2.7510   39.6600   79.0190 C.3    89  LEU89       0.1728
    149  C         -3.7130   38.9420   79.9390 C.2    89  LEU89       0.2617
    150  O         -4.3420   39.5610   80.7920 O.2    89  LEU89      -0.2715
    151  CB        -3.4030   40.9530   78.5530 C.3    89  LEU89       0.0311
    152  CG        -2.5550   42.1820   78.2520 C.3    89  LEU89       0.0022
    153  CD1       -1.5390   41.9070   77.1840 C.3    89  LEU89       0.0001
    154  CD2       -3.4790   43.2710   77.7960 C.3    89  LEU89       0.0001
    155  N         -3.8430   37.6400   79.7460 N.am   90  GLY90      -0.1940
    156  CA        -4.5160   36.8030   80.7160 C.3    90  GLY90       0.2014
    157  C         -6.0240   36.7080   80.6350 C.2    90  GLY90       0.2639
    158  O         -6.6510   36.9970   79.6060 O.2    90  GLY90      -0.2714
    159  N         -6.5900   36.2810   81.7560 N.am   91  THR91      -0.1950
    160  CA        -7.9980   35.9910   81.8670 C.3    91  THR91       0.1897
    161  C         -8.7180   37.1360   82.5780 C.2    91  THR91       0.2313
    162  O         -8.1210   37.8630   83.3660 O.2    91  THR91      -0.2863
    163  CB        -8.2170   34.6890   82.6160 C.3    91  THR91       0.1794
    164  OG1       -9.6070   34.5330   82.8950 O.3    91  THR91      -0.2208
    165  CG2       -7.4660   34.7160   83.9230 C.3    91  THR91       0.0378
    166  N         -9.1280   36.5090   86.5390 N.3    94  ARG94      -0.1245
    167  CA        -8.1930   37.0440   87.5050 C.3    94  ARG94       0.1563
    168  C         -8.2970   38.5370   87.4800 C.2    94  ARG94       0.2260
    169  O         -8.2000   39.1880   88.5120 O.2    94  ARG94      -0.2867
    170  CB        -6.7600   36.6320   87.2270 C.3    94  ARG94       0.0307
    171  CG        -5.8120   37.1440   88.3010 C.3    94  ARG94       0.0489
    172  CD        -4.3770   36.6560   88.0720 C.3    94  ARG94       0.2205
    173  NE        -3.5600   37.6330   87.3470 N.pl3  94  ARG94      -0.0865
    174  CZ        -3.2860   37.5640   86.0370 C.cat  94  ARG94       0.5346
    175  NH1       -3.7300   36.5690   85.2550 N.pl3  94  ARG94       0.1354
    176  NH2       -2.5420   38.5270   85.4980 N.pl3  94  ARG94       0.1354
    177  N        -13.6960   32.8280   83.4790 N.3   134  GLU134     -0.1231
    178  CA       -12.5370   31.9830   83.2080 C.3   134  GLU134      0.1699
    179  C        -12.5750   31.4340   81.7900 C.2   134  GLU134      0.2592
    180  O        -11.8510   30.5180   81.4700 O.2   134  GLU134     -0.2718
    181  CB       -12.4320   30.8290   84.2160 C.3   134  GLU134      0.0402
    182  CG       -13.7200   30.1180   84.5110 C.3   134  GLU134      0.1161
    183  CD       -14.5550   30.8430   85.5450 C.2   134  GLU134      0.3649
    184  OE1      -15.0420   31.9610   85.2500 O.co2 134  GLU134     -0.2457
    185  OE2      -14.7230   30.2930   86.6530 O.co2 134  GLU134     -0.2457
    186  N        -13.4110   31.9890   80.9280 N.am  135  ASN135     -0.1974
    187  CA       -13.3700   31.6080   79.5220 C.3   135  ASN135      0.1688
    188  C        -13.0620   32.8000   78.6440 C.2   135  ASN135      0.2292
    189  O        -12.8620   32.6860   77.4360 O.2   135  ASN135     -0.2864
    190  CB       -14.6790   30.9850   79.1020 C.3   135  ASN135      0.1181
    191  CG       -14.8910   29.6560   79.7300 C.2   135  ASN135      0.2629
    192  OD1      -13.9500   29.0570   80.2420 O.2   135  ASN135     -0.2716
    193  ND2      -16.1270   29.1690   79.6990 N.am  135  ASN135     -0.0877
    194  N        -10.5730   35.7410   77.7260 N.3   137  LEU137     -0.1245
    195  CA        -9.1400   36.0140   77.7070 C.3   137  LEU137      0.1561
    196  C         -8.8810   37.4030   77.1820 C.2   137  LEU137      0.2260
    197  O         -9.7040   37.9620   76.4480 O.2   137  LEU137     -0.2867
    198  CB        -8.4170   34.9720   76.8470 C.3   137  LEU137      0.0270
    199  CG        -8.7170   33.6210   77.4730 C.3   137  LEU137      0.0019
    200  CD1       -8.1790   32.4430   76.6780 C.3   137  LEU137      0.0001
    201  CD2       -8.1420   33.6720   78.8830 C.3   137  LEU137      0.0001
    202  N        -13.2910   31.8000   74.5210 N.3   147  ALA147     -0.1231
    203  CA       -12.5300   30.5820   74.2830 C.3   147  ALA147      0.1694
    204  C        -13.2320   29.3510   74.8350 C.2   147  ALA147      0.2592
    205  O        -14.3920   29.4250   75.2310 O.2   147  ALA147     -0.2718
    206  CB       -11.1840   30.7240   74.8900 C.3   147  ALA147      0.0304
    207  N        -12.5290   28.2220   74.8570 N.am  148  ASP148     -0.1974
    208  CA       -13.0580   26.9680   75.4150 C.3   148  ASP148      0.1709
    209  C        -14.4750   26.6510   74.9480 C.2   148  ASP148      0.2293
    210  O        -15.4370   26.9050   75.6600 O.2   148  ASP148     -0.2864
    211  CB       -13.0240   27.0070   76.9450 C.3   148  ASP148      0.1436
    212  CG       -13.4300   25.6860   77.5740 C.2   148  ASP148      0.3671
    213  OD1      -13.5270   24.6800   76.8400 O.co2 148  ASP148     -0.2456
    214  OD2      -13.6400   25.6550   78.8050 O.co2 148  ASP148     -0.2456
@<TRIPOS>BOND
     1   121   120   ar
     2   101   100    2
     3   100    99    1
     4   120   119    1
     5   120   122   ar
     6   119   118    1
     7   118   115    1
     8   114   115    1
     9   114   108   am
    10   115   116    1
    11   106   107    1
    12   108   107    1
    13   108   109    2
    14   107   110    1
    15    98    99    1
    16    99   102    1
    17   113   111    1
    18   116   123   am
    19   116   117    2
    20   123   124    1
    21   110   111    1
    22   102   103    1
    23   111   112    1
    24   103   104    1
    25   103   105    1
    26    79    78    2
    27   126   125    2
    28    76    77    1
    29   124   127    1
    30   124   125    1
    31   127   128    1
    32   125   135   am
    33    78    77    1
    34    77    80    1
    35   203   202    1
    36   203   204    1
    37   203   206    1
    38    84    83    2
    39   145   146    1
    40   145   144    1
    41   130   128   ar
    42   130   132   ar
    43   128   129   ar
    44   146   140    1
    45   135   136    1
    46    81    82    1
    47   204   207   am
    48   204   205    2
    49   207   208    1
    50   209   208    1
    51   209   210    2
    52   136   139    1
    53   136   137    1
    54    85    82    1
    55    85    86    1
    56    96    95    1
    57   208   211    1
    58    83    82    1
    59    88    89    1
    60    88    87    1
    61   132   133   ar
    62   129   131   ar
    63   144   141    1
    64   140   137   am
    65   140   141    1
    66    95    94    1
    67    95    97    1
    68    86    87    1
    69   137   138    2
    70    94    91    1
    71   197   196    2
    72    90    91    1
    73   141   142    1
    74    93    92    2
    75   200   199    1
    76   133   131   ar
    77   133   134    1
    78   213   212   ar
    79   198   199    1
    80   198   195    1
    81   211   212    1
    82    91    92    1
    83   196   195    1
    84   153   152    1
    85   189   188    2
    86   199   201    1
    87   212   214   ar
    88   195   194    1
    89    74    73    1
    90   154   152    1
    91   147   142   am
    92   147   148    1
    93   142   143    2
    94   152   151    1
    95    75    73    1
    96    18    17    1
    97   151   148    1
    98   188   187    1
    99    73    70    1
   100    64    63    2
   101   148   149    1
   102   190   187    1
   103   190   191    1
   104    70    71    1
   105    70    69    1
   106    17    19    1
   107    17    16    1
   108   187   186    1
   109    71    72    2
   110   158   157    2
   111   193   191   am
   112   191   192    2
   113   155   149   am
   114   155   156    1
   115   149   150    2
   116    63    69   am
   117    63    62    1
   118    16    13    1
   119   157   156    1
   120   157   159   am
   121    50    51    1
   122    50    47    1
   123    58    57    1
   124    58    59    1
   125   186   179   am
   126    61    59   am
   127    61    62    1
   128     4     3    2
   129    51    52   ar
   130    51    53   ar
   131     1     2    1
   132    52    54   ar
   133    57    48   am
   134    59    60    2
   135    53    55   ar
   136    62    65    1
   137    54    56   ar
   138   180   179    2
   139    49    48    2
   140    55    56   ar
   141    48    47    1
   142   159   160    1
   143   179   178    1
   144   160   161    1
   145   160   163    1
   146     3     2    1
   147    13    12    1
   148    13    14    1
   149    47    46    1
   150     7     6    1
   151     7     8    1
   152     6     5    1
   153    65    66    1
   154     2     5    1
   155    20    14   am
   156    20    21    1
   157    10     9    1
   158   161   162    2
   159   163   164    1
   160   163   165    1
   161    14    15    2
   162    46    39   am
   163    23    22    2
   164    21    22    1
   165   178   177    1
   166   178   181    1
   167    66    68   am
   168    66    67    2
   169     8     9    2
   170     9    11    1
   171    22    24   am
   172    34    33    1
   173    34    35    1
   174    39    40    2
   175    39    38    1
   176   181   182    1
   177    37    35   am
   178    37    38    1
   179    33    26   am
   180   182   183    1
   181    35    36    2
   182    27    26    2
   183    41    38    1
   184    41    42    1
   185    24    25    1
   186    26    25    1
   187    25    28    1
   188    43    42    1
   189    43    44    1
   190   184   183   ar
   191   175   174    1
   192   176   174    1
   193   183   185   ar
   194    32    31    1
   195   174   173    2
   196    44    45    1
   197    30    29    1
   198    30    31    1
   199   166   167    1
   200    28    29    1
   201   170   167    1
   202   170   171    1
   203   173   172    1
   204   168   167    1
   205   168   169    2
   206   172   171    1
