@<TRIPOS>MOLECULE
tmp/5aaeA00.pdb
 184 174 0 0 0
SMALL
GASTEIGER

@<TRIPOS>ATOM
      1  N         -5.9050  -27.6420   -4.8370 N.3    12  ARG12      -0.1245
      2  CA        -5.1310  -27.9420   -3.6330 C.3    12  ARG12       0.1563
      3  C         -3.6730  -27.4960   -3.7110 C.2    12  ARG12       0.2260
      4  O         -2.9770  -27.8000   -4.6800 O.2    12  ARG12      -0.2867
      5  CB        -5.1770  -29.4440   -3.3380 C.3    12  ARG12       0.0307
      6  CG        -4.1010  -29.9140   -2.3670 C.3    12  ARG12       0.0489
      7  CD        -4.1030  -31.4220   -2.2090 C.3    12  ARG12       0.2205
      8  NE        -2.9600  -31.8890   -1.4300 N.pl3  12  ARG12      -0.0865
      9  CZ        -2.0190  -32.7030   -1.8990 C.cat  12  ARG12       0.5346
     10  NH1       -2.0880  -33.1490   -3.1460 N.pl3  12  ARG12       0.1354
     11  NH2       -1.0120  -33.0770   -1.1200 N.pl3  12  ARG12       0.1354
     12  N          0.1030  -27.7580   -3.1790 N.3    14  LEU14      -0.1231
     13  CA         0.9890  -28.9140   -3.1010 C.3    14  LEU14       0.1693
     14  C          2.2450  -28.6110   -2.2900 C.2    14  LEU14       0.2593
     15  O          2.7790  -29.4890   -1.6130 O.2    14  LEU14      -0.2718
     16  CB         1.3730  -29.3890   -4.5060 C.3    14  LEU14       0.0284
     17  CG         0.2380  -29.5610   -5.5200 C.3    14  LEU14       0.0019
     18  CD1        0.7840  -29.9230   -6.8930 C.3    14  LEU14       0.0001
     19  CD2       -0.7570  -30.6050   -5.0480 C.3    14  LEU14       0.0001
     20  N          2.7130  -27.3680   -2.3570 N.am   15  GLY15      -0.1942
     21  CA         3.9230  -26.9740   -1.6560 C.3    15  GLY15       0.2014
     22  C          4.0290  -25.4820   -1.3990 C.2    15  GLY15       0.2639
     23  O          3.6380  -24.6650   -2.2330 O.2    15  GLY15      -0.2714
     24  N          4.5720  -25.1280   -0.2370 N.am   16  LYS16      -0.1963
     25  CA         4.7110  -23.7300    0.1590 C.3    16  LYS16       0.1728
     26  C          6.1770  -23.3250    0.3120 C.2    16  LYS16       0.2617
     27  O          7.0710  -24.1710    0.2720 O.2    16  LYS16      -0.2715
     28  CB         3.9600  -23.4720    1.4690 C.3    16  LYS16       0.0311
     29  CG         2.4400  -23.7220    1.3580 C.3    16  LYS16       0.0038
     30  CD         1.7820  -23.6400    2.7430 C.3    16  LYS16       0.0206
     31  CE         0.2670  -23.6680    2.6710 C.3    16  LYS16       0.1093
     32  NZ        -0.2130  -24.9930    2.2290 N.3    16  LYS16      -0.1314
     33  N          6.4160  -22.0270    0.4800 N.am   17  GLY17      -0.1940
     34  CA         7.7530  -21.5210    0.7470 C.3    17  GLY17       0.2014
     35  C          8.5030  -21.0110   -0.4690 C.2    17  GLY17       0.2638
     36  O          8.0610  -21.1910   -1.6020 O.2    17  GLY17      -0.2714
     37  N          9.6480  -20.3770   -0.2200 N.am   18  LYS18      -0.1977
     38  CA        10.5060  -19.8190   -1.2680 C.3    18  LYS18       0.1596
     39  C          9.8000  -18.7310   -2.0780 C.2    18  LYS18       0.2287
     40  O          9.9400  -18.6690   -3.3010 O.2    18  LYS18      -0.2864
     41  CB        11.0100  -20.9250   -2.2030 C.3    18  LYS18       0.0298
     42  CG        11.9230  -21.9540   -1.5710 C.3    18  LYS18       0.0038
     43  CD        12.7460  -22.6810   -2.6420 C.3    18  LYS18       0.0206
     44  CE        12.1540  -24.0420   -3.0650 C.3    18  LYS18       0.1093
     45  NZ        10.8030  -23.9950   -3.7200 N.3    18  LYS18      -0.1314
     46  N          6.7740  -18.1650   -3.0290 N.3    20  GLY20      -0.1225
     47  CA         5.9310  -18.6820   -4.0880 C.3    20  GLY20       0.1811
     48  C          5.2610  -19.9610   -3.6250 C.2    20  GLY20       0.2280
     49  O          5.7380  -20.6160   -2.7030 O.2    20  GLY20      -0.2866
     50  N          2.8340  -23.5510   -5.0330 N.3    22  VAL22      -0.1245
     51  CA         2.2800  -24.3280   -6.1370 C.3    22  VAL22       0.1561
     52  C          0.9300  -24.9510   -5.7710 C.2    22  VAL22       0.2260
     53  O          0.7560  -25.5190   -4.6910 O.2    22  VAL22      -0.2867
     54  CB         3.2590  -25.4330   -6.5960 C.3    22  VAL22       0.0252
     55  CG1        3.5770  -26.3810   -5.4560 C.3    22  VAL22       0.0019
     56  CG2        2.6890  -26.1920   -7.7840 C.3    22  VAL22       0.0019
     57  N          0.5130  -28.7340  -12.5300 N.3    35  ALA35      -0.1245
     58  CA         0.9230  -27.9980  -11.3420 C.3    35  ALA35       0.1562
     59  C          1.2660  -26.5620  -11.7120 C.2    35  ALA35       0.2260
     60  O          2.0050  -26.3200  -12.6660 O.2    35  ALA35      -0.2867
     61  CB         2.1080  -28.6730  -10.6770 C.3    35  ALA35       0.0290
     62  N          3.1350  -23.5580  -10.3100 N.3    37  LYS37      -0.1245
     63  CA         4.0440  -22.8380   -9.4270 C.3    37  LYS37       0.1561
     64  C          3.8140  -21.3400   -9.5860 C.2    37  LYS37       0.2260
     65  O          3.9950  -20.7960  -10.6750 O.2    37  LYS37      -0.2867
     66  CB         5.4990  -23.1950   -9.7460 C.3    37  LYS37       0.0271
     67  CG         6.5330  -22.5410   -8.8390 C.3    37  LYS37       0.0035
     68  CD         7.9510  -22.8170   -9.3250 C.3    37  LYS37       0.0206
     69  CE         8.2710  -24.3050   -9.3260 C.3    37  LYS37       0.1093
     70  NZ         8.3230  -24.8740   -7.9550 N.3    37  LYS37      -0.1314
     71  N          4.9280  -17.7120   -8.3800 N.3    39  LEU39      -0.1245
     72  CA         5.8700  -16.8190   -7.7170 C.3    39  LEU39       0.1561
     73  C          5.4020  -15.3700   -7.8530 C.2    39  LEU39       0.2260
     74  O          4.7700  -15.0090   -8.8480 O.2    39  LEU39      -0.2867
     75  CB         7.2730  -16.9920   -8.3070 C.3    39  LEU39       0.0270
     76  CG         7.7990  -18.4280   -8.4080 C.3    39  LEU39       0.0019
     77  CD1        8.9390  -18.5270   -9.4160 C.3    39  LEU39       0.0001
     78  CD2        8.2430  -18.9390   -7.0440 C.3    39  LEU39       0.0001
     79  N         10.7910  -33.2760  -15.1450 N.3    69  LEU69      -0.1245
     80  CA         9.4860  -32.6400  -15.0990 C.3    69  LEU69       0.1561
     81  C          9.3860  -31.6090  -16.2120 C.2    69  LEU69       0.2260
     82  O         10.1380  -30.6370  -16.2380 O.2    69  LEU69      -0.2867
     83  CB         9.2490  -31.9820  -13.7420 C.3    69  LEU69       0.0270
     84  CG         7.7950  -31.6230  -13.4380 C.3    69  LEU69       0.0019
     85  CD1        7.0060  -32.8760  -13.0960 C.3    69  LEU69       0.0001
     86  CD2        7.7070  -30.6000  -12.3220 C.3    69  LEU69       0.0001
     87  N          3.5970  -26.1650  -14.9680 N.3    85  LEU85      -0.1231
     88  CA         4.4020  -27.3810  -14.9040 C.3    85  LEU85       0.1693
     89  C          3.5830  -28.6650  -14.9870 C.2    85  LEU85       0.2592
     90  O          2.4010  -28.6880  -14.6500 O.2    85  LEU85      -0.2718
     91  CB         5.2180  -27.3930  -13.6100 C.3    85  LEU85       0.0284
     92  CG         6.3260  -26.3510  -13.4780 C.3    85  LEU85       0.0019
     93  CD1        6.5460  -25.9990  -12.0200 C.3    85  LEU85       0.0001
     94  CD2        7.6070  -26.8750  -14.1000 C.3    85  LEU85       0.0001
     95  N          4.2360  -29.7310  -15.4370 N.am   86  GLU86      -0.1966
     96  CA         3.6620  -31.0710  -15.4160 C.3    86  GLU86       0.1733
     97  C          3.3000  -31.4700  -13.9910 C.2    86  GLU86       0.2616
     98  O          4.0150  -31.1270  -13.0500 O.2    86  GLU86      -0.2715
     99  CB         4.6480  -32.0790  -16.0140 C.3    86  GLU86       0.0429
    100  CG         4.2700  -33.5320  -15.8070 C.3    86  GLU86       0.1163
    101  CD         5.3550  -34.4870  -16.2590 C.2    86  GLU86       0.3649
    102  OE1        6.4480  -34.0140  -16.6350 O.co2  86  GLU86      -0.2457
    103  OE2        5.1150  -35.7120  -16.2400 O.co2  86  GLU86      -0.2457
    104  N          2.1910  -32.1830  -13.8240 N.am   87  TYR87      -0.1960
    105  CA         1.8000  -32.6440  -12.4980 C.3    87  TYR87       0.1771
    106  C          2.3540  -34.0310  -12.1960 C.2    87  TYR87       0.2619
    107  O          2.1620  -34.9760  -12.9640 O.2    87  TYR87      -0.2715
    108  CB         0.2810  -32.6530  -12.3500 C.3    87  TYR87       0.0574
    109  CG        -0.1900  -33.1640  -11.0070 C.ar   87  TYR87      -0.0198
    110  CD1       -0.0670  -32.3860   -9.8650 C.ar   87  TYR87      -0.0009
    111  CD2       -0.7610  -34.4230  -10.8820 C.ar   87  TYR87      -0.0009
    112  CE1       -0.4970  -32.8480   -8.6350 C.ar   87  TYR87       0.0417
    113  CE2       -1.1940  -34.8940   -9.6560 C.ar   87  TYR87       0.0417
    114  CZ        -1.0610  -34.1030   -8.5360 C.ar   87  TYR87       0.1957
    115  OH        -1.4930  -34.5690   -7.3150 O.3    87  TYR87      -0.2866
    116  N          3.0490  -34.1350  -11.0680 N.am   88  ALA88      -0.1964
    117  CA         3.5820  -35.4050  -10.5940 C.3    88  ALA88       0.1713
    118  C          2.5940  -36.0510   -9.6280 C.2    88  ALA88       0.2458
    119  O          2.4010  -35.5630   -8.5140 O.2    88  ALA88      -0.2730
    120  CB         4.9290  -35.2000   -9.9290 C.3    88  ALA88       0.0333
    121  N          1.9630  -37.1530  -10.0630 N.am   89  PRO89      -0.2716
    122  CA         0.8730  -37.8260   -9.3460 C.3    89  PRO89       0.1536
    123  C          1.2440  -38.3540   -7.9580 C.2    89  PRO89       0.2598
    124  O          0.4420  -38.2140   -7.0330 O.2    89  PRO89      -0.2715
    125  CB         0.5200  -38.9930  -10.2750 C.3    89  PRO89       0.0310
    126  CG         0.9730  -38.5570  -11.6220 C.3    89  PRO89       0.0237
    127  CD         2.2230  -37.7770  -11.3710 C.3    89  PRO89       0.0939
    128  N          2.4290  -38.9440   -7.8140 N.am   90  LEU90      -0.1964
    129  CA         2.7660  -39.6730   -6.5900 C.3    90  LEU90       0.1728
    130  C          3.5790  -38.8700   -5.5760 C.2    90  LEU90       0.2617
    131  O          3.9610  -39.3970   -4.5300 O.2    90  LEU90      -0.2715
    132  CB         3.5200  -40.9590   -6.9340 C.3    90  LEU90       0.0311
    133  CG         2.6810  -42.2060   -7.2300 C.3    90  LEU90       0.0022
    134  CD1        1.8450  -42.0410   -8.4920 C.3    90  LEU90       0.0001
    135  CD2        3.5730  -43.4340   -7.3340 C.3    90  LEU90       0.0001
    136  N          3.8480  -37.6040   -5.8800 N.am   91  GLY91      -0.1940
    137  CA         4.4800  -36.7180   -4.9150 C.3    91  GLY91       0.2014
    138  C          5.9880  -36.5900   -5.0230 C.2    91  GLY91       0.2639
    139  O          6.5500  -36.6810   -6.1140 O.2    91  GLY91      -0.2714
    140  N          6.6390  -36.3720   -3.8820 N.am   92  THR92      -0.1950
    141  CA         8.0870  -36.1780   -3.8370 C.3    92  THR92       0.1897
    142  C          8.8040  -37.3920   -3.2490 C.2    92  THR92       0.2313
    143  O          8.2200  -38.1610   -2.4860 O.2    92  THR92      -0.2863
    144  CB         8.4740  -34.9330   -3.0010 C.3    92  THR92       0.1794
    145  OG1        8.3990  -35.2430   -1.6050 O.3    92  THR92      -0.2208
    146  CG2        7.5520  -33.7650   -3.3030 C.3    92  THR92       0.0378
    147  N         14.0300  -32.8980   -2.3340 N.3   135  GLU135     -0.1231
    148  CA        12.9130  -31.9600   -2.3390 C.3   135  GLU135      0.1699
    149  C         12.4360  -31.6440   -3.7540 C.2   135  GLU135      0.2592
    150  O         11.2550  -31.3700   -3.9710 O.2   135  GLU135     -0.2718
    151  CB        13.2990  -30.6670   -1.6160 C.3   135  GLU135      0.0402
    152  CG        13.4560  -30.8150   -0.1060 C.3   135  GLU135      0.1161
    153  CD        14.8280  -31.3200    0.3000 C.2   135  GLU135      0.3649
    154  OE1       15.7570  -31.2550   -0.5320 O.co2 135  GLU135     -0.2457
    155  OE2       14.9790  -31.7840    1.4500 O.co2 135  GLU135     -0.2457
    156  N         13.3550  -31.6820   -4.7150 N.am  136  ASN136     -0.1974
    157  CA        13.0050  -31.4160   -6.1050 C.3   136  ASN136      0.1688
    158  C         13.0010  -32.6840   -6.9500 C.2   136  ASN136      0.2292
    159  O         13.1070  -32.6280   -8.1710 O.2   136  ASN136     -0.2864
    160  CB        13.9590  -30.3890   -6.7100 C.3   136  ASN136      0.1181
    161  CG        14.2770  -29.2580   -5.7540 C.2   136  ASN136      0.2629
    162  OD1       13.4200  -28.4290   -5.4460 O.2   136  ASN136     -0.2716
    163  ND2       15.5190  -29.2090   -5.2920 N.am  136  ASN136     -0.0877
    164  N         10.5890  -35.7900   -7.9950 N.3   138  LEU138     -0.1245
    165  CA         9.1640  -36.0980   -8.0200 C.3   138  LEU138      0.1561
    166  C          8.8930  -37.4740   -8.6190 C.2   138  LEU138      0.2260
    167  O          9.7910  -38.1130   -9.1690 O.2   138  LEU138     -0.2867
    168  CB         8.4050  -35.0220   -8.8000 C.3   138  LEU138      0.0270
    169  CG         8.5100  -33.6070   -8.2280 C.3   138  LEU138      0.0019
    170  CD1        7.8910  -32.5930   -9.1670 C.3   138  LEU138      0.0001
    171  CD2        7.8500  -33.5420   -6.8670 C.3   138  LEU138      0.0001
    172  N         12.8150  -31.8300  -11.0110 N.3   148  ALA148     -0.1231
    173  CA        11.8630  -30.7240  -11.0410 C.3   148  ALA148      0.1694
    174  C         12.4560  -29.3890  -11.4850 C.2   148  ALA148      0.2592
    175  O         12.7020  -29.1760  -12.6700 O.2   148  ALA148     -0.2718
    176  CB        11.2190  -30.5660   -9.6730 C.3   148  ALA148      0.0304
    177  N         12.6670  -28.4920  -10.5260 N.am  149  ASP149     -0.1974
    178  CA        12.9590  -27.0910  -10.8270 C.3   149  ASP149      0.1709
    179  C         14.4230  -26.8330  -11.1650 C.2   149  ASP149      0.2293
    180  O         15.3100  -27.5090  -10.6610 O.2   149  ASP149     -0.2864
    181  CB        12.5330  -26.2030   -9.6510 C.3   149  ASP149      0.1436
    182  CG        12.9580  -26.7660   -8.3050 C.2   149  ASP149      0.3671
    183  OD1       13.9620  -27.5060   -8.2530 O.co2 149  ASP149     -0.2456
    184  OD2       12.2790  -26.4730   -7.2970 O.co2 149  ASP149     -0.2456
@<TRIPOS>BOND
     1   102   101   ar
     2   101   103   ar
     3   101   100    1
     4    82    81    2
     5    81    80    1
     6    99   100    1
     7    99    96    1
     8    95    96    1
     9    95    89   am
    10    96    97    1
    11    79    80    1
    12    80    83    1
    13    89    88    1
    14    89    90    2
    15    87    88    1
    16    88    91    1
    17    94    92    1
    18    97   104   am
    19    97    98    2
    20   104   105    1
    21    83    84    1
    22    91    92    1
    23    92    93    1
    24    84    85    1
    25    84    86    1
    26   107   106    2
    27   175   174    2
    28    60    59    2
    29    57    58    1
    30   105   108    1
    31   105   106    1
    32   108   109    1
    33   106   116   am
    34    59    58    1
    35   126   127    1
    36   126   125    1
    37   174   173    1
    38   174   177   am
    39   127   121    1
    40    58    61    1
    41   179   178    1
    42   179   180    2
    43   116   117    1
    44   173   172    1
    45   173   176    1
    46   109   111   ar
    47   109   110   ar
    48   111   113   ar
    49   178   177    1
    50   178   181    1
    51    65    64    2
    52   117   120    1
    53   117   118    1
    54    62    63    1
    55   125   122    1
    56   121   118   am
    57   121   122    1
    58   110   112   ar
    59    66    63    1
    60    66    67    1
    61   113   114   ar
    62   181   182    1
    63   118   119    2
    64    64    63    1
    65    77    76    1
    66   122   123    1
    67    69    68    1
    68    69    70    1
    69    68    67    1
    70   167   166    2
    71   170   169    1
    72    74    73    2
    73   168   169    1
    74   168   165    1
    75   112   114   ar
    76   166   165    1
    77   114   115    1
    78   134   133    1
    79    76    75    1
    80    76    78    1
    81    71    72    1
    82    75    72    1
    83   182   183   ar
    84   182   184   ar
    85   169   171    1
    86   159   158    2
    87   165   164    1
    88   123   128   am
    89   123   124    2
    90    73    72    1
    91   128   129    1
    92    56    54    1
    93   135   133    1
    94   133   132    1
    95   158   157    1
    96   132   129    1
    97    18    17    1
    98   160   157    1
    99   160   161    1
   100    54    51    1
   101    54    55    1
   102   129   130    1
   103    51    52    1
   104    51    50    1
   105   139   138    2
   106   157   156    1
   107   136   130   am
   108   136   137    1
   109    52    53    2
   110   161   162    2
   111   161   163   am
   112   130   131    2
   113    17    19    1
   114    17    16    1
   115   138   137    1
   116   138   140   am
   117     1     2    1
   118   156   149   am
   119     4     3    2
   120    16    13    1
   121    47    48    1
   122    47    46    1
   123   150   149    2
   124   140   141    1
   125   141   142    1
   126   141   144    1
   127   149   148    1
   128    45    44    1
   129     3     2    1
   130     2     5    1
   131    48    49    2
   132     5     6    1
   133   146   144    1
   134    40    39    2
   135   142   143    2
   136    12    13    1
   137    10     9    1
   138    13    14    1
   139    44    43    1
   140   144   145    1
   141    43    42    1
   142     6     7    1
   143    20    14   am
   144    20    21    1
   145   148   147    1
   146   148   151    1
   147    14    15    2
   148    23    22    2
   149     7     8    1
   150    41    42    1
   151    41    38    1
   152    39    38    1
   153     9     8    2
   154     9    11    1
   155    21    22    1
   156   151   152    1
   157    36    35    2
   158    22    24   am
   159    38    37    1
   160   154   153   ar
   161    35    37   am
   162    35    34    1
   163    24    25    1
   164   152   153    1
   165    25    26    1
   166    25    28    1
   167    27    26    2
   168   153   155   ar
   169    26    33   am
   170    33    34    1
   171    29    28    1
   172    29    30    1
   173    32    31    1
   174    31    30    1
