@<TRIPOS>MOLECULE
tmp/5aafA00.pdb
 166 158 0 0 0
SMALL
GASTEIGER

@<TRIPOS>ATOM
      1  N          6.2280   28.1280   -4.4970 N.3    12  ARG12      -0.1245
      2  CA         5.4530   28.4530   -3.3010 C.3    12  ARG12       0.1563
      3  C          4.0430   27.8720   -3.3260 C.2    12  ARG12       0.2260
      4  O          3.3580   27.9390   -4.3460 O.2    12  ARG12      -0.2867
      5  CB         5.3720   29.9730   -3.1250 C.3    12  ARG12       0.0307
      6  CG         4.2760   30.4330   -2.1700 C.3    12  ARG12       0.0489
      7  CD         4.2250   31.9460   -2.0590 C.3    12  ARG12       0.2205
      8  NE         3.0830   32.4030   -1.2710 N.pl3  12  ARG12      -0.0865
      9  CZ         2.1120   33.1790   -1.7420 C.cat  12  ARG12       0.5346
     10  NH1        2.1410   33.5930   -3.0020 N.pl3  12  ARG12       0.1354
     11  NH2        1.1120   33.5470   -0.9520 N.pl3  12  ARG12       0.1354
     12  N          0.4520   28.2590   -3.0020 N.3    14  LEU14      -0.1231
     13  CA        -0.4420   29.4080   -3.0700 C.3    14  LEU14       0.1693
     14  C         -1.6330   29.2450   -2.1300 C.2    14  LEU14       0.2593
     15  O         -1.9450   30.1430   -1.3470 O.2    14  LEU14      -0.2718
     16  CB        -0.9230   29.6180   -4.5070 C.3    14  LEU14       0.0284
     17  CG         0.1920   29.8270   -5.5340 C.3    14  LEU14       0.0019
     18  CD1       -0.3760   29.9340   -6.9410 C.3    14  LEU14       0.0001
     19  CD2        1.0100   31.0610   -5.1870 C.3    14  LEU14       0.0001
     20  N         -2.2920   28.0930   -2.2110 N.am   15  GLY15      -0.1942
     21  CA        -3.4270   27.7940   -1.3570 C.3    15  GLY15       0.2014
     22  C         -3.5000   26.3150   -1.0320 C.2    15  GLY15       0.2638
     23  O         -2.9060   25.4930   -1.7290 O.2    15  GLY15      -0.2714
     24  N         -4.2310   25.9700    0.0240 N.am   16  LYS16      -0.1977
     25  CA        -4.3120   24.5810    0.4650 C.3    16  LYS16       0.1596
     26  C         -5.7120   24.1860    0.9290 C.2    16  LYS16       0.2287
     27  O         -6.2380   24.7410    1.8940 O.2    16  LYS16      -0.2864
     28  CB        -3.3040   24.3250    1.5880 C.3    16  LYS16       0.0298
     29  CG        -3.6520   24.9290    2.9280 C.3    16  LYS16       0.0038
     30  CD        -2.6020   24.5990    3.9820 C.3    16  LYS16       0.0206
     31  CE        -1.2870   25.2930    3.6870 C.3    16  LYS16       0.1093
     32  NZ        -0.1960   24.8500    4.5900 N.3    16  LYS16      -0.1314
     33  N         -2.6380   23.8110   -4.3800 N.3    22  VAL22      -0.1245
     34  CA        -2.2610   24.7060   -5.4670 C.3    22  VAL22       0.1561
     35  C         -0.8750   25.2900   -5.2280 C.2    22  VAL22       0.2260
     36  O         -0.6120   25.8810   -4.1800 O.2    22  VAL22      -0.2867
     37  CB        -3.2650   25.8620   -5.6310 C.3    22  VAL22       0.0252
     38  CG1       -2.8670   26.7420   -6.8070 C.3    22  VAL22       0.0019
     39  CG2       -4.6740   25.3250   -5.8100 C.3    22  VAL22       0.0019
     40  N         -0.1700   28.9530  -12.3120 N.3    35  ALA35      -0.1245
     41  CA        -0.5970   28.2310  -11.1210 C.3    35  ALA35       0.1562
     42  C         -0.8540   26.7690  -11.4660 C.2    35  ALA35       0.2260
     43  O         -1.5530   26.4640  -12.4320 O.2    35  ALA35      -0.2867
     44  CB        -1.8400   28.8670  -10.5240 C.3    35  ALA35       0.0290
     45  N         -2.4390   23.4910  -10.0600 N.3    37  LYS37      -0.1245
     46  CA        -3.2990   22.8650   -9.0590 C.3    37  LYS37       0.1561
     47  C         -3.2130   21.3410   -9.1120 C.2    37  LYS37       0.2260
     48  O         -3.4380   20.7300  -10.1570 O.2    37  LYS37      -0.2867
     49  CB        -4.7490   23.3180   -9.2420 C.3    37  LYS37       0.0271
     50  CG        -5.6960   22.8200   -8.1620 C.3    37  LYS37       0.0035
     51  CD        -6.9980   23.6050   -8.1600 C.3    37  LYS37       0.0206
     52  CE        -7.7140   23.4920   -9.4940 C.3    37  LYS37       0.1093
     53  NZ        -7.8990   22.0720   -9.8990 N.3    37  LYS37      -0.1314
     54  N        -10.4620   33.3390  -14.9140 N.3    69  LEU69      -0.1245
     55  CA        -9.1790   32.6590  -14.8020 C.3    69  LEU69       0.1561
     56  C         -9.0700   31.5660  -15.8540 C.2    69  LEU69       0.2260
     57  O         -9.8260   30.6020  -15.8490 O.2    69  LEU69      -0.2867
     58  CB        -8.9930   32.0700  -13.4050 C.3    69  LEU69       0.0270
     59  CG        -7.5440   31.7430  -13.0380 C.3    69  LEU69       0.0019
     60  CD1       -6.7520   33.0160  -12.7600 C.3    69  LEU69       0.0001
     61  CD2       -7.4760   30.7870  -11.8590 C.3    69  LEU69       0.0001
     62  N         -3.2340   26.3060  -14.6120 N.3    85  LEU85      -0.1231
     63  CA        -4.0970   27.4850  -14.5880 C.3    85  LEU85       0.1693
     64  C         -3.3260   28.7920  -14.7410 C.2    85  LEU85       0.2592
     65  O         -2.1090   28.8350  -14.5610 O.2    85  LEU85      -0.2718
     66  CB        -4.8970   27.5200  -13.2840 C.3    85  LEU85       0.0284
     67  CG        -5.9700   26.4520  -13.0830 C.3    85  LEU85       0.0019
     68  CD1       -6.2200   26.2310  -11.6020 C.3    85  LEU85       0.0001
     69  CD2       -7.2530   26.8640  -13.7800 C.3    85  LEU85       0.0001
     70  N         -4.0500   29.8580  -15.0730 N.am   86  GLU86      -0.1966
     71  CA        -3.4820   31.2000  -15.0860 C.3    86  GLU86       0.1733
     72  C         -3.1020   31.5980  -13.6660 C.2    86  GLU86       0.2616
     73  O         -3.7720   31.2120  -12.7080 O.2    86  GLU86      -0.2715
     74  CB        -4.4740   32.2070  -15.6800 C.3    86  GLU86       0.0429
     75  CG        -4.0140   33.6590  -15.6090 C.3    86  GLU86       0.1163
     76  CD        -5.0830   34.6430  -16.0490 C.2    86  GLU86       0.3649
     77  OE1       -6.1630   34.1970  -16.4900 O.co2  86  GLU86      -0.2457
     78  OE2       -4.8410   35.8640  -15.9500 O.co2  86  GLU86      -0.2457
     79  N         -2.0220   32.3580  -13.5290 N.am   87  TYR87      -0.1960
     80  CA        -1.5890   32.8330  -12.2230 C.3    87  TYR87       0.1771
     81  C         -2.1070   34.2420  -11.9480 C.2    87  TYR87       0.2619
     82  O         -1.9390   35.1480  -12.7660 O.2    87  TYR87      -0.2715
     83  CB        -0.0630   32.7980  -12.1220 C.3    87  TYR87       0.0574
     84  CG         0.4850   33.4450  -10.8730 C.ar   87  TYR87      -0.0198
     85  CD1        0.2300   32.9060   -9.6180 C.ar   87  TYR87      -0.0009
     86  CD2        1.2650   34.5910  -10.9480 C.ar   87  TYR87      -0.0009
     87  CE1        0.7320   33.4960   -8.4720 C.ar   87  TYR87       0.0417
     88  CE2        1.7720   35.1860   -9.8100 C.ar   87  TYR87       0.0417
     89  CZ         1.5040   34.6360   -8.5750 C.ar   87  TYR87       0.1957
     90  OH         2.0080   35.2280   -7.4400 O.3    87  TYR87      -0.2866
     91  N         -2.7470   34.4150  -10.7960 N.am   88  ALA88      -0.1964
     92  CA        -3.2780   35.7120  -10.3900 C.3    88  ALA88       0.1713
     93  C         -2.3770   36.3480   -9.3340 C.2    88  ALA88       0.2458
     94  O         -2.4260   35.9710   -8.1630 O.2    88  ALA88      -0.2730
     95  CB        -4.6930   35.5640   -9.8660 C.3    88  ALA88       0.0333
     96  N         -1.5540   37.3220   -9.7530 N.am   89  PRO89      -0.2716
     97  CA        -0.4940   37.9350   -8.9410 C.3    89  PRO89       0.1536
     98  C         -0.9640   38.5680   -7.6300 C.2    89  PRO89       0.2598
     99  O         -0.2210   38.5280   -6.6500 O.2    89  PRO89      -0.2715
    100  CB         0.0740   39.0130   -9.8720 C.3    89  PRO89       0.0310
    101  CG        -0.2470   38.5350  -11.2430 C.3    89  PRO89       0.0237
    102  CD        -1.5860   37.8770  -11.1170 C.3    89  PRO89       0.0939
    103  N         -2.1630   39.1430   -7.6070 N.am   90  LEU90      -0.1964
    104  CA        -2.6190   39.8720   -6.4240 C.3    90  LEU90       0.1728
    105  C         -3.4950   39.0260   -5.5000 C.2    90  LEU90       0.2617
    106  O         -4.1350   39.5520   -4.5890 O.2    90  LEU90      -0.2715
    107  CB        -3.3710   41.1400   -6.8370 C.3    90  LEU90       0.0311
    108  CG        -2.5350   42.4140   -6.9930 C.3    90  LEU90       0.0022
    109  CD1       -1.5140   42.2810   -8.1150 C.3    90  LEU90       0.0001
    110  CD2       -3.4320   43.6180   -7.2230 C.3    90  LEU90       0.0001
    111  N         -3.5210   37.7200   -5.7380 N.am   91  GLY91      -0.1940
    112  CA        -4.1830   36.7950   -4.8350 C.3    91  GLY91       0.2014
    113  C         -5.7000   36.8270   -4.8440 C.2    91  GLY91       0.2639
    114  O         -6.3250   37.2790   -5.8040 O.2    91  GLY91      -0.2714
    115  N         -6.2900   36.3410   -3.7550 N.am   92  THR92      -0.1950
    116  CA        -7.7370   36.1910   -3.6510 C.3    92  THR92       0.1897
    117  C         -8.4310   37.4660   -3.1830 C.2    92  THR92       0.2313
    118  O         -7.8020   38.3620   -2.6190 O.2    92  THR92      -0.2863
    119  CB        -8.1150   35.0610   -2.6720 C.3    92  THR92       0.1794
    120  OG1       -7.8270   35.4750   -1.3310 O.3    92  THR92      -0.2208
    121  CG2       -7.3360   33.7920   -2.9820 C.3    92  THR92       0.0378
    122  N        -10.8100   36.9140   -1.1230 N.3    94  TYR94      -0.1227
    123  CA       -11.0700   36.3950    0.2130 C.3    94  TYR94       0.1736
    124  C        -10.1380   37.0180    1.2530 C.2    94  TYR94       0.2595
    125  O        -10.6030   37.6350    2.2090 O.2    94  TYR94      -0.2718
    126  CB       -10.9460   34.8670    0.2200 C.3    94  TYR94       0.0548
    127  CG       -11.1840   34.2400    1.5740 C.ar   94  TYR94      -0.0200
    128  CD1      -12.4740   34.0290    2.0500 C.ar   94  TYR94      -0.0009
    129  CD2      -10.1210   33.8330    2.3650 C.ar   94  TYR94      -0.0009
    130  CE1      -12.6910   33.4510    3.2900 C.ar   94  TYR94       0.0417
    131  CE2      -10.3320   33.2470    3.5880 C.ar   94  TYR94       0.0417
    132  CZ       -11.6090   33.0650    4.0550 C.ar   94  TYR94       0.1957
    133  OH       -11.7870   32.4850    5.2900 O.3    94  TYR94      -0.2866
    134  N         -8.8290   36.8750    1.0610 N.am   95  ARG95      -0.1980
    135  CA        -7.8800   37.4210    2.0270 C.3    95  ARG95       0.1597
    136  C         -7.9110   38.9410    1.9840 C.2    95  ARG95       0.2287
    137  O         -7.8130   39.5970    3.0160 O.2    95  ARG95      -0.2864
    138  CB        -6.4620   36.9030    1.7750 C.3    95  ARG95       0.0334
    139  CG        -5.7770   36.4240    3.0500 C.3    95  ARG95       0.0492
    140  CD        -4.2680   36.5980    3.0070 C.3    95  ARG95       0.2205
    141  NE        -3.6310   35.9530    4.1520 N.pl3  95  ARG95      -0.0865
    142  CZ        -2.3180   35.8090    4.3000 C.cat  95  ARG95       0.5346
    143  NH1       -1.4900   36.2670    3.3730 N.pl3  95  ARG95       0.1354
    144  NH2       -1.8340   35.2070    5.3770 N.pl3  95  ARG95       0.1354
    145  N        -13.8470   33.0530   -2.2690 N.3   135  GLU135     -0.1245
    146  CA       -12.7240   32.1220   -2.3310 C.3   135  GLU135      0.1567
    147  C        -12.4250   31.7110   -3.7690 C.2   135  GLU135      0.2260
    148  O        -11.3410   31.2060   -4.0670 O.2   135  GLU135     -0.2867
    149  CB       -13.0060   30.8850   -1.4750 C.3   135  GLU135      0.0388
    150  CG       -13.9070   31.1550   -0.2790 C.3   135  GLU135      0.1160
    151  CD       -14.3660   29.8830    0.4140 C.2   135  GLU135      0.3649
    152  OE1      -13.8980   28.7900    0.0300 O.co2 135  GLU135     -0.2457
    153  OE2      -15.1960   29.9800    1.3430 O.co2 135  GLU135     -0.2457
    154  N        -10.1940   35.7810   -7.7990 N.3   138  LEU138     -0.1245
    155  CA        -8.7860   36.1460   -7.7580 C.3   138  LEU138      0.1561
    156  C         -8.5640   37.5210   -8.3740 C.2   138  LEU138      0.2260
    157  O         -9.4780   38.1060   -8.9560 O.2   138  LEU138     -0.2867
    158  CB        -7.9500   35.0930   -8.4810 C.3   138  LEU138      0.0270
    159  CG        -8.1490   33.6690   -7.9640 C.3   138  LEU138      0.0019
    160  CD1       -7.3790   32.6840   -8.8120 C.3   138  LEU138      0.0001
    161  CD2       -7.7230   33.5660   -6.5130 C.3   138  LEU138      0.0001
    162  N        -12.4150   32.0340  -10.8250 N.3   148  ALA148     -0.1245
    163  CA       -11.4720   30.9240  -10.9070 C.3   148  ALA148      0.1562
    164  C        -12.1330   29.5520  -11.0370 C.2   148  ALA148      0.2260
    165  O        -12.0480   28.9110  -12.0840 O.2   148  ALA148     -0.2867
    166  CB       -10.5530   30.9400   -9.6950 C.3   148  ALA148      0.0290
@<TRIPOS>BOND
     1    77    76   ar
     2    76    78   ar
     3    76    75    1
     4    56    57    2
     5    56    55    1
     6    74    75    1
     7    74    71    1
     8    71    70    1
     9    71    72    1
    10    70    64   am
    11    54    55    1
    12    55    58    1
    13    64    63    1
    14    64    65    2
    15    62    63    1
    16    63    66    1
    17    69    67    1
    18    72    79   am
    19    72    73    2
    20    79    80    1
    21    58    59    1
    22    66    67    1
    23    67    68    1
    24    59    60    1
    25    59    61    1
    26    82    81    2
    27    43    42    2
    28    40    41    1
    29    80    83    1
    30    80    81    1
    31    83    84    1
    32   165   164    2
    33    81    91   am
    34    42    41    1
    35   101   102    1
    36   101   100    1
    37    41    44    1
    38   102    96    1
    39   164   163    1
    40    86    84   ar
    41    86    88   ar
    42   163   162    1
    43   163   166    1
    44    84    85   ar
    45    91    92    1
    46    92    95    1
    47    92    93    1
    48    48    47    2
    49    45    46    1
    50    53    52    1
    51   100    97    1
    52    88    89   ar
    53    96    93   am
    54    96    97    1
    55    85    87   ar
    56    52    51    1
    57    93    94    2
    58    49    46    1
    59    49    50    1
    60    47    46    1
    61   157   156    2
    62    97    98    1
    63   160   159    1
    64    89    87   ar
    65    89    90    1
    66   158   159    1
    67   158   155    1
    68   156   155    1
    69    50    51    1
    70   109   108    1
    71   159   161    1
    72   154   155    1
    73    98   103   am
    74    98    99    2
    75   103   104    1
    76   110   108    1
    77   108   107    1
    78    18    17    1
    79   107   104    1
    80    38    37    1
    81   104   105    1
    82    39    37    1
    83   114   113    2
    84   111   105   am
    85   111   112    1
    86    37    34    1
    87    17    19    1
    88    17    16    1
    89   105   106    2
    90    34    35    1
    91    34    33    1
    92    35    36    2
    93   113   112    1
    94   113   115   am
    95    16    13    1
    96     1     2    1
    97     4     3    2
    98   148   147    2
    99   147   146    1
   100   115   116    1
   101   116   117    1
   102   116   119    1
   103     3     2    1
   104     2     5    1
   105   117   118    2
   106     5     6    1
   107    13    12    1
   108    13    14    1
   109    10     9    1
   110   121   119    1
   111   119   120    1
   112   146   145    1
   113   146   149    1
   114    20    14   am
   115    20    21    1
   116     6     7    1
   117    14    15    2
   118     7     8    1
   119     9     8    2
   120     9    11    1
   121    23    22    2
   122   149   150    1
   123    21    22    1
   124   122   123    1
   125    22    24   am
   126   150   151    1
   127    24    25    1
   128   152   151   ar
   129   123   126    1
   130   123   124    1
   131   126   127    1
   132   151   153   ar
   133    25    26    1
   134    25    28    1
   135    26    27    2
   136   134   124   am
   137   134   135    1
   138   124   125    2
   139   127   128   ar
   140   127   129   ar
   141    28    29    1
   142   138   135    1
   143   138   139    1
   144   136   135    1
   145   136   137    2
   146   128   130   ar
   147   129   131   ar
   148    29    30    1
   149   140   139    1
   150   140   141    1
   151   130   132   ar
   152   143   142    1
   153   131   132   ar
   154    31    30    1
   155    31    32    1
   156   132   133    1
   157   141   142    2
   158   142   144    1
