@<TRIPOS>MOLECULE
tmp/5aagA00.pdb
 175 166 0 0 0
SMALL
GASTEIGER

@<TRIPOS>ATOM
      1  N          6.3110   28.1940   -4.3420 N.3    11  ARG11      -0.1245
      2  CA         5.5200   28.5680   -3.1720 C.3    11  ARG11       0.1563
      3  C          4.0890   28.0430   -3.2290 C.2    11  ARG11       0.2260
      4  O          3.4060   28.1920   -4.2430 O.2    11  ARG11      -0.2867
      5  CB         5.5040   30.0920   -3.0130 C.3    11  ARG11       0.0307
      6  CG         4.2190   30.6530   -2.4190 C.3    11  ARG11       0.0489
      7  CD         4.3420   32.1480   -2.1640 C.3    11  ARG11       0.2205
      8  NE         3.0450   32.8140   -2.0820 N.pl3  11  ARG11      -0.0865
      9  CZ         2.3480   32.9610   -0.9610 C.cat  11  ARG11       0.5346
     10  NH1        2.8170   32.4850    0.1850 N.pl3  11  ARG11       0.1354
     11  NH2        1.1790   33.5840   -0.9880 N.pl3  11  ARG11       0.1354
     12  N          0.3640   28.2660   -2.8870 N.3    13  LEU13      -0.1231
     13  CA        -0.5590   29.3910   -2.9490 C.3    13  LEU13       0.1693
     14  C         -1.7620   29.1600   -2.0420 C.2    13  LEU13       0.2593
     15  O         -2.4720   30.1010   -1.6840 O.2    13  LEU13      -0.2718
     16  CB        -1.0090   29.6280   -4.3910 C.3    13  LEU13       0.0284
     17  CG         0.1310   29.9330   -5.3650 C.3    13  LEU13       0.0019
     18  CD1       -0.3920   30.1240   -6.7790 C.3    13  LEU13       0.0001
     19  CD2        0.9110   31.1540   -4.9050 C.3    13  LEU13       0.0001
     20  N         -1.9850   27.9050   -1.6700 N.am   14  GLY14      -0.1942
     21  CA        -3.0690   27.5670   -0.7680 C.3    14  GLY14       0.2014
     22  C         -3.4110   26.0920   -0.7860 C.2    14  GLY14       0.2638
     23  O         -3.0890   25.3800   -1.7370 O.2    14  GLY14      -0.2714
     24  N         -4.0680   25.6330    0.2740 N.am   15  LYS15      -0.1977
     25  CA        -4.4550   24.2330    0.3860 C.3    15  LYS15       0.1596
     26  C         -5.9710   24.0800    0.3350 C.2    15  LYS15       0.2287
     27  O         -6.7060   24.9110    0.8670 O.2    15  LYS15      -0.2864
     28  CB        -3.9040   23.6280    1.6800 C.3    15  LYS15       0.0298
     29  CG        -4.3230   24.3370    2.9470 C.3    15  LYS15       0.0038
     30  CD        -3.7950   23.6940    4.2140 C.3    15  LYS15       0.0206
     31  CE        -4.6080   24.2850    5.3460 C.3    15  LYS15       0.1093
     32  NZ        -4.0110   24.1220    6.6470 N.3    15  LYS15      -0.1314
     33  N         -2.6700   24.2430   -4.1640 N.3    21  VAL21      -0.1245
     34  CA        -2.2740   25.0300   -5.3240 C.3    21  VAL21       0.1561
     35  C         -0.8720   25.5980   -5.1290 C.2    21  VAL21       0.2260
     36  O         -0.6050   26.2940   -4.1470 O.2    21  VAL21      -0.2867
     37  CB        -3.2610   26.1830   -5.5890 C.3    21  VAL21       0.0252
     38  CG1       -2.7890   27.0290   -6.7620 C.3    21  VAL21       0.0019
     39  CG2       -4.6610   25.6410   -5.8380 C.3    21  VAL21       0.0019
     40  N         -0.1810   29.0300  -12.1370 N.3    34  ALA34      -0.1245
     41  CA        -0.6180   28.2840  -10.9620 C.3    34  ALA34       0.1562
     42  C         -0.8680   26.8290  -11.3280 C.2    34  ALA34       0.2260
     43  O         -1.4910   26.5340  -12.3490 O.2    34  ALA34      -0.2867
     44  CB        -1.8670   28.9050  -10.3670 C.3    34  ALA34       0.0290
     45  N         -2.5220   23.4670   -9.8730 N.3    36  LYS36      -0.1245
     46  CA        -3.3550   22.8030   -8.8710 C.3    36  LYS36       0.1561
     47  C         -3.1650   21.2890   -8.8990 C.2    36  LYS36       0.2260
     48  O         -3.3200   20.6530   -9.9430 O.2    36  LYS36      -0.2867
     49  CB        -4.8320   23.1470   -9.0850 C.3    36  LYS36       0.0271
     50  CG        -5.6650   22.6360   -7.8860 C.3    36  LYS36       0.0035
     51  CD        -7.0910   23.1270   -8.1360 C.3    36  LYS36       0.0206
     52  CE        -7.8750   23.0060   -6.8580 C.3    36  LYS36       0.1093
     53  NZ        -9.2790   23.4720   -7.0280 N.3    36  LYS36      -0.1314
     54  N        -10.4510   33.2670  -15.0970 N.3    68  LEU68      -0.1245
     55  CA        -9.1330   32.6560  -14.9950 C.3    68  LEU68       0.1561
     56  C         -8.9460   31.5930  -16.0720 C.2    68  LEU68       0.2260
     57  O         -9.6710   30.5990  -16.1100 O.2    68  LEU68      -0.2867
     58  CB        -8.9310   32.0470  -13.6050 C.3    68  LEU68       0.0270
     59  CG        -7.4860   31.7880  -13.1800 C.3    68  LEU68       0.0019
     60  CD1       -6.7320   33.1030  -13.0500 C.3    68  LEU68       0.0001
     61  CD2       -7.4450   31.0070  -11.8770 C.3    68  LEU68       0.0001
     62  N         -3.2060   26.3220  -14.5750 N.3    84  LEU84      -0.1231
     63  CA        -4.0510   27.5120  -14.6070 C.3    84  LEU84       0.1693
     64  C         -3.2550   28.8000  -14.7780 C.2    84  LEU84       0.2592
     65  O         -2.0260   28.8010  -14.7050 O.2    84  LEU84      -0.2718
     66  CB        -4.8820   27.5980  -13.3260 C.3    84  LEU84       0.0284
     67  CG        -5.8640   26.4580  -13.0610 C.3    84  LEU84       0.0019
     68  CD1       -5.8850   26.1200  -11.5810 C.3    84  LEU84       0.0001
     69  CD2       -7.2520   26.8430  -13.5410 C.3    84  LEU84       0.0001
     70  N         -3.9700   29.8960  -15.0120 N.am   85  GLU85      -0.1966
     71  CA        -3.3640   31.2200  -15.0210 C.3    85  GLU85       0.1733
     72  C         -2.9940   31.6090  -13.5930 C.2    85  GLU85       0.2616
     73  O         -3.6020   31.1270  -12.6380 O.2    85  GLU85      -0.2715
     74  CB        -4.3140   32.2550  -15.6300 C.3    85  GLU85       0.0429
     75  CG        -3.8240   33.6930  -15.5160 C.3    85  GLU85       0.1163
     76  CD        -4.8660   34.7110  -15.9470 C.2    85  GLU85       0.3649
     77  OE1       -5.9380   34.3020  -16.4470 O.co2  85  GLU85      -0.2457
     78  OE2       -4.6110   35.9240  -15.7830 O.co2  85  GLU85      -0.2457
     79  N         -1.9990   32.4770  -13.4510 N.am   86  TYR86      -0.1960
     80  CA        -1.5730   32.9440  -12.1360 C.3    86  TYR86       0.1771
     81  C         -2.1190   34.3420  -11.8520 C.2    86  TYR86       0.2619
     82  O         -2.0310   35.2380  -12.6930 O.2    86  TYR86      -0.2715
     83  CB        -0.0450   32.9300  -12.0330 C.3    86  TYR86       0.0574
     84  CG         0.5020   33.5790  -10.7820 C.ar   86  TYR86      -0.0198
     85  CD1        0.3340   32.9870   -9.5360 C.ar   86  TYR86      -0.0009
     86  CD2        1.2000   34.7780  -10.8480 C.ar   86  TYR86      -0.0009
     87  CE1        0.8370   33.5760   -8.3900 C.ar   86  TYR86       0.0417
     88  CE2        1.7070   35.3760   -9.7050 C.ar   86  TYR86       0.0417
     89  CZ         1.5230   34.7700   -8.4800 C.ar   86  TYR86       0.1957
     90  OH         2.0250   35.3630   -7.3440 O.3    86  TYR86      -0.2866
     91  N         -2.6950   34.5150  -10.6650 N.am   87  ALA87      -0.1964
     92  CA        -3.2460   35.8030  -10.2560 C.3    87  ALA87       0.1713
     93  C         -2.3250   36.4810   -9.2480 C.2    87  ALA87       0.2458
     94  O         -2.3460   36.1510   -8.0610 O.2    87  ALA87      -0.2730
     95  CB        -4.6390   35.6260   -9.6750 C.3    87  ALA87       0.0333
     96  N         -1.5110   37.4340   -9.7260 N.am   88  PRO88      -0.2716
     97  CA        -0.4610   38.1200   -8.9590 C.3    88  PRO88       0.1536
     98  C         -0.9350   38.7370   -7.6420 C.2    88  PRO88       0.2598
     99  O         -0.2020   38.6840   -6.6530 O.2    88  PRO88      -0.2715
    100  CB         0.0080   39.2150   -9.9210 C.3    88  PRO88       0.0310
    101  CG        -0.2860   38.6710  -11.2740 C.3    88  PRO88       0.0237
    102  CD        -1.5600   37.8930  -11.1250 C.3    88  PRO88       0.0939
    103  N         -2.1350   39.3090   -7.6260 N.am   89  LEU89      -0.1964
    104  CA        -2.6170   40.0230   -6.4450 C.3    89  LEU89       0.1728
    105  C         -3.4590   39.1510   -5.5160 C.2    89  LEU89       0.2617
    106  O         -4.0900   39.6540   -4.5870 O.2    89  LEU89      -0.2715
    107  CB        -3.4160   41.2610   -6.8620 C.3    89  LEU89       0.0311
    108  CG        -2.5900   42.5240   -7.1310 C.3    89  LEU89       0.0022
    109  CD1       -1.5400   42.2770   -8.2040 C.3    89  LEU89       0.0001
    110  CD2       -3.4870   43.6880   -7.5200 C.3    89  LEU89       0.0001
    111  N         -3.4660   37.8460   -5.7660 N.am   90  GLY90      -0.1940
    112  CA        -4.1170   36.9080   -4.8690 C.3    90  GLY90       0.2014
    113  C         -5.6310   36.8810   -4.9520 C.2    90  GLY90       0.2639
    114  O         -6.2200   37.2880   -5.9540 O.2    90  GLY90      -0.2714
    115  N         -6.2620   36.3980   -3.8850 N.am   91  THR91      -0.1950
    116  CA        -7.7110   36.2250   -3.8540 C.3    91  THR91       0.1897
    117  C         -8.4300   37.4320   -3.2600 C.2    91  THR91       0.2313
    118  O         -7.8290   38.2510   -2.5650 O.2    91  THR91      -0.2863
    119  CB        -8.1100   34.9790   -3.0410 C.3    91  THR91       0.1794
    120  OG1       -7.9650   35.2530   -1.6420 O.3    91  THR91      -0.2208
    121  CG2       -7.2360   33.7920   -3.4170 C.3    91  THR91       0.0378
    122  N        -10.7950   36.9170   -1.1840 N.3    93  TYR93      -0.1227
    123  CA       -11.0500   36.4190    0.1630 C.3    93  TYR93       0.1736
    124  C        -10.1160   37.0580    1.1860 C.2    93  TYR93       0.2595
    125  O        -10.5680   37.7270    2.1140 O.2    93  TYR93      -0.2718
    126  CB       -10.9070   34.8950    0.2010 C.3    93  TYR93       0.0548
    127  CG       -11.1210   34.2870    1.5690 C.ar   93  TYR93      -0.0200
    128  CD1      -12.3890   33.9080    1.9930 C.ar   93  TYR93      -0.0009
    129  CD2      -10.0550   34.0860    2.4360 C.ar   93  TYR93      -0.0009
    130  CE1      -12.5870   33.3500    3.2430 C.ar   93  TYR93       0.0417
    131  CE2      -10.2440   33.5290    3.6870 C.ar   93  TYR93       0.0417
    132  CZ       -11.5120   33.1630    4.0850 C.ar   93  TYR93       0.1957
    133  OH       -11.7030   32.6080    5.3290 O.3    93  TYR93      -0.2866
    134  N         -8.8130   36.8470    1.0100 N.am   94  ARG94      -0.1980
    135  CA        -7.8140   37.4160    1.9110 C.3    94  ARG94       0.1597
    136  C         -7.8260   38.9360    1.8240 C.2    94  ARG94       0.2287
    137  O         -7.5420   39.6290    2.8030 O.2    94  ARG94      -0.2864
    138  CB        -6.4180   36.8750    1.5870 C.3    94  ARG94       0.0334
    139  CG        -6.3280   35.4040    1.7600 C.3    94  ARG94       0.0492
    140  CD        -4.9250   34.8710    1.5020 C.3    94  ARG94       0.2205
    141  NE        -4.7370   34.8910    0.0020 N.pl3  94  ARG94      -0.0865
    142  CZ        -3.6250   34.5310   -0.5850 C.cat  94  ARG94       0.5346
    143  NH1       -2.5590   34.0830    0.1200 N.pl3  94  ARG94       0.1354
    144  NH2       -3.5760   34.5690   -1.9140 N.pl3  94  ARG94       0.1354
    145  N        -10.4750   39.8920    4.2870 N.3    97  GLN97      -0.1245
    146  CA       -10.1430   39.6860    5.6930 C.3    97  GLN97       0.1566
    147  C         -9.0210   40.6210    6.1380 C.2    97  GLN97       0.2260
    148  O         -8.6670   40.6630    7.3170 O.2    97  GLN97      -0.2867
    149  CB        -9.7550   38.2260    5.9530 C.3    97  GLN97       0.0367
    150  CG        -8.4420   37.7870    5.3210 C.3    97  GLN97       0.0905
    151  CD        -8.0630   36.3620    5.6960 C.2    97  GLN97       0.2608
    152  OE1       -8.8340   35.6510    6.3430 O.2    97  GLN97      -0.2717
    153  NE2       -6.8680   35.9390    5.2930 N.am   97  GLN97      -0.0878
    154  N        -13.8440   33.0140   -2.3420 N.3   134  GLU134     -0.1245
    155  CA       -12.7290   32.0760   -2.4000 C.3   134  GLU134      0.1567
    156  C        -12.4040   31.6850   -3.8380 C.2   134  GLU134      0.2260
    157  O        -11.3380   31.1340   -4.1140 O.2   134  GLU134     -0.2867
    158  CB       -13.0380   30.8300   -1.5690 C.3   134  GLU134      0.0388
    159  CG       -13.2580   31.1190   -0.0930 C.3   134  GLU134      0.1160
    160  CD       -13.5600   29.8680    0.7080 C.2   134  GLU134      0.3649
    161  OE1      -13.8860   28.8310    0.0920 O.co2 134  GLU134     -0.2457
    162  OE2      -13.4680   29.9220    1.9530 O.co2 134  GLU134     -0.2457
    163  N        -10.1190   35.8480   -7.8170 N.3   137  LEU137     -0.1245
    164  CA        -8.7080   36.2140   -7.7730 C.3   137  LEU137      0.1561
    165  C         -8.4810   37.6010   -8.3620 C.2   137  LEU137      0.2260
    166  O         -9.4090   38.2280   -8.8740 O.2   137  LEU137     -0.2867
    167  CB        -7.8680   35.1760   -8.5150 C.3   137  LEU137      0.0270
    168  CG        -7.9310   33.7670   -7.9230 C.3   137  LEU137      0.0019
    169  CD1       -7.3510   32.7430   -8.8860 C.3   137  LEU137      0.0001
    170  CD2       -7.1990   33.7250   -6.5920 C.3   137  LEU137      0.0001
    171  N        -12.3740   31.9340  -10.8930 N.3   147  ALA147     -0.1245
    172  CA       -11.4530   30.8130  -11.0440 C.3   147  ALA147      0.1562
    173  C        -12.1460   29.4530  -11.0790 C.2   147  ALA147      0.2260
    174  O        -12.2210   28.8160  -12.1290 O.2   147  ALA147     -0.2867
    175  CB       -10.4200   30.8400   -9.9260 C.3   147  ALA147      0.0290
@<TRIPOS>BOND
     1    77    76   ar
     2    57    56    2
     3    56    55    1
     4    76    78   ar
     5    76    75    1
     6    74    75    1
     7    74    71    1
     8    54    55    1
     9    71    70    1
    10    71    72    1
    11    70    64   am
    12    55    58    1
    13    64    65    2
    14    64    63    1
    15    63    62    1
    16    63    66    1
    17    58    59    1
    18    72    79   am
    19    72    73    2
    20    69    67    1
    21    79    80    1
    22    66    67    1
    23    59    60    1
    24    59    61    1
    25    67    68    1
    26    82    81    2
    27    43    42    2
    28    40    41    1
    29    80    83    1
    30    80    81    1
    31   174   173    2
    32    83    84    1
    33    81    91   am
    34    42    41    1
    35   101   102    1
    36   101   100    1
    37   102    96    1
    38   173   172    1
    39   172   171    1
    40   172   175    1
    41    41    44    1
    42    86    84   ar
    43    86    88   ar
    44    84    85   ar
    45    91    92    1
    46    92    95    1
    47    92    93    1
    48    48    47    2
    49   100    97    1
    50    45    46    1
    51    96    93   am
    52    96    97    1
    53    88    89   ar
    54    85    87   ar
    55    93    94    2
    56    49    46    1
    57    49    50    1
    58    97    98    1
    59    47    46    1
    60   169   168    1
    61   166   165    2
    62   167   168    1
    63   167   164    1
    64    89    87   ar
    65    89    90    1
    66   165   164    1
    67   109   108    1
    68    51    50    1
    69    51    52    1
    70   168   170    1
    71   163   164    1
    72    98   103   am
    73    98    99    2
    74   103   104    1
    75   110   108    1
    76   108   107    1
    77    53    52    1
    78   107   104    1
    79    18    17    1
    80    38    37    1
    81   104   105    1
    82   114   113    2
    83    39    37    1
    84   111   105   am
    85   111   112    1
    86    37    34    1
    87   105   106    2
    88    17    19    1
    89    17    16    1
    90    34    35    1
    91    34    33    1
    92    35    36    2
    93   113   112    1
    94   113   115   am
    95    16    13    1
    96     1     2    1
    97     4     3    2
    98   157   156    2
    99   115   116    1
   100   116   117    1
   101   116   119    1
   102   156   155    1
   103   121   119    1
   104   117   118    2
   105     3     2    1
   106     2     5    1
   107   119   120    1
   108     5     6    1
   109    13    12    1
   110    13    14    1
   111     6     7    1
   112   155   154    1
   113   155   158    1
   114     7     8    1
   115     8     9    2
   116    14    15    2
   117    14    20   am
   118   144   142    1
   119    23    22    2
   120    20    21    1
   121   158   159    1
   122   122   123    1
   123    11     9    1
   124     9    10    1
   125    22    21    1
   126    22    24   am
   127   142   141    2
   128   142   143    1
   129   159   160    1
   130   141   140    1
   131   161   160   ar
   132   123   126    1
   133   123   124    1
   134   126   127    1
   135    24    25    1
   136    26    25    1
   137    26    27    2
   138    25    28    1
   139   160   162   ar
   140   134   124   am
   141   134   135    1
   142   124   125    2
   143   140   139    1
   144   127   128   ar
   145   127   129   ar
   146   138   139    1
   147   138   135    1
   148    28    29    1
   149   136   135    1
   150   136   137    2
   151   128   130   ar
   152   129   131   ar
   153    29    30    1
   154   130   132   ar
   155   131   132   ar
   156   132   133    1
   157    30    31    1
   158   145   146    1
   159   153   151   am
   160   150   151    1
   161   150   149    1
   162    31    32    1
   163   146   149    1
   164   146   147    1
   165   151   152    2
   166   147   148    2
