@<TRIPOS>MOLECULE
tmp/5aalA00.pdb
 130 124 0 0 0
SMALL
GASTEIGER

@<TRIPOS>ATOM
      1  N        -13.3600   58.7720   22.5190 N.3     1  PHE1       -0.1241
      2  CA       -12.8510   57.4250   22.2030 C.3     1  PHE1        0.1605
      3  C        -11.7780   56.9870   23.2090 C.2     1  PHE1        0.2264
      4  O        -10.8340   57.7330   23.4950 O.2     1  PHE1       -0.2867
      5  CB       -12.2880   57.3960   20.7800 C.3     1  PHE1        0.0534
      6  CG       -11.7810   56.0440   20.3610 C.ar    1  PHE1       -0.0203
      7  CD1      -12.6250   55.1270   19.7900 C.ar    1  PHE1       -0.0042
      8  CD2      -10.4610   55.6980   20.5450 C.ar    1  PHE1       -0.0042
      9  CE1      -12.1670   53.8820   19.4030 C.ar    1  PHE1       -0.0003
     10  CE2       -9.9960   54.4470   20.1630 C.ar    1  PHE1       -0.0003
     11  CZ       -10.8420   53.5440   19.5930 C.ar    1  PHE1       -0.0000
     12  N         -9.0140   58.8860   26.6550 N.3    13  ILE13      -0.1231
     13  CA        -9.2140   59.8660   25.6020 C.3    13  ILE13       0.1692
     14  C         -7.9130   60.5780   25.2680 C.2    13  ILE13       0.2592
     15  O         -7.2110   61.0670   26.1700 O.2    13  ILE13      -0.2718
     16  CB       -10.2810   60.9000   26.0330 C.3    13  ILE13       0.0266
     17  CG1      -11.6790   60.3240   25.8060 C.3    13  ILE13       0.0019
     18  CG2      -10.1280   62.2490   25.2940 C.3    13  ILE13       0.0020
     19  CD1      -12.7040   60.9370   26.7260 C.3    13  ILE13       0.0001
     20  N         -7.5790   60.6250   23.9800 N.am   14  GLY14      -0.1957
     21  CA        -6.4030   61.3540   23.5430 C.3    14  GLY14       0.1869
     22  C         -5.1950   60.4680   23.3540 C.2    14  GLY14       0.2309
     23  O         -4.1310   60.9480   22.9500 O.2    14  GLY14      -0.2863
     24  N        -16.8890   54.3540   21.5680 N.3    46  ASN46      -0.1225
     25  CA       -17.1360   55.7110   21.1260 C.3    46  ASN46       0.1785
     26  C        -17.8600   56.4320   22.2530 C.2    46  ASN46       0.2597
     27  O        -18.8550   55.9310   22.7450 O.2    46  ASN46      -0.2718
     28  CB       -17.9630   55.6860   19.8330 C.3    46  ASN46       0.1169
     29  CG       -18.2420   57.0670   19.2570 C.2    46  ASN46       0.2627
     30  OD1      -18.3700   58.0600   19.9820 O.2    46  ASN46      -0.2716
     31  ND2      -18.3580   57.1270   17.9250 N.am   46  ASN46      -0.0877
     32  N        -17.3600   57.5950   22.6610 N.am   47  ASP47      -0.1960
     33  CA       -17.9530   58.3480   23.7760 C.3    47  ASP47       0.1840
     34  C        -19.1790   59.2230   23.4470 C.2    47  ASP47       0.2622
     35  O        -19.8550   59.6850   24.3640 O.2    47  ASP47      -0.2715
     36  CB       -16.8860   59.2300   24.4140 C.3    47  ASP47       0.1450
     37  CG       -15.9700   58.4480   25.3430 C.2    47  ASP47       0.3671
     38  OD1      -16.4770   57.7240   26.2300 O.co2  47  ASP47      -0.2456
     39  OD2      -14.7390   58.5420   25.1660 O.co2  47  ASP47      -0.2456
     40  N        -19.4660   59.4470   22.1640 N.am   48  TYR48      -0.1974
     41  CA       -20.5990   60.2920   21.7440 C.3    48  TYR48       0.1639
     42  C        -21.1060   59.8300   20.3930 C.2    48  TYR48       0.2290
     43  O        -21.0490   60.5600   19.4160 O.2    48  TYR48      -0.2864
     44  CB       -20.2020   61.7760   21.6860 C.3    48  TYR48       0.0560
     45  CG       -19.7470   62.3000   23.0210 C.ar   48  TYR48      -0.0198
     46  CD1      -20.6570   62.8230   23.9310 C.ar   48  TYR48      -0.0009
     47  CD2      -18.4070   62.2320   23.3990 C.ar   48  TYR48      -0.0009
     48  CE1      -20.2440   63.2930   25.1790 C.ar   48  TYR48       0.0417
     49  CE2      -17.9810   62.6960   24.6500 C.ar   48  TYR48       0.0417
     50  CZ       -18.9090   63.2260   25.5300 C.ar   48  TYR48       0.1957
     51  OH       -18.5090   63.6870   26.7570 O.3    48  TYR48      -0.2866
     52  N        -23.4210   61.8720   17.7650 N.3    51  THR51      -0.1203
     53  CA       -22.9130   62.9770   16.9600 C.3    51  THR51       0.1994
     54  C        -21.5790   62.6930   16.2980 C.2    51  THR51       0.2617
     55  O        -21.1970   63.3950   15.3660 O.2    51  THR51      -0.2717
     56  CB       -22.7280   64.2600   17.8000 C.3    51  THR51       0.1784
     57  OG1      -22.2650   63.9160   19.1070 O.3    51  THR51      -0.2211
     58  CG2      -24.0360   65.0140   17.9140 C.3    51  THR51       0.0376
     59  N        -20.8510   61.6980   16.7920 N.am   52  ILE52      -0.1979
     60  CA       -19.5050   61.4610   16.2970 C.3    52  ILE52       0.1595
     61  C        -19.3290   60.0340   15.8700 C.2    52  ILE52       0.2287
     62  O        -19.8540   59.0980   16.4950 O.2    52  ILE52      -0.2864
     63  CB       -18.4710   61.8130   17.3310 C.3    52  ILE52       0.0276
     64  CG1      -18.6610   63.2720   17.7380 C.3    52  ILE52       0.0022
     65  CG2      -17.0470   61.5820   16.7740 C.3    52  ILE52       0.0022
     66  CD1      -17.7190   63.7530   18.8230 C.3    52  ILE52       0.0001
     67  N        -16.2520   57.4660   15.1160 N.3    54  ASP54      -0.1239
     68  CA       -14.8380   57.2170   15.2710 C.3    54  ASP54       0.1674
     69  C        -14.3700   56.2080   14.2210 C.2    54  ASP54       0.2266
     70  O        -15.0530   55.2150   13.9700 O.2    54  ASP54      -0.2867
     71  CB       -14.5420   56.7300   16.6930 C.3    54  ASP54       0.1410
     72  CG       -14.7800   57.8180   17.7460 C.2    54  ASP54       0.3668
     73  OD1      -14.5140   59.0070   17.4760 O.co2  54  ASP54      -0.2456
     74  OD2      -15.2420   57.4910   18.8400 O.co2  54  ASP54      -0.2456
     75  N         -6.7850   56.5130   15.8320 N.3   133  GLN133     -0.1245
     76  CA        -8.1900   56.9020   15.9100 C.3   133  GLN133      0.1566
     77  C         -8.3940   58.3320   15.4430 C.2   133  GLN133      0.2260
     78  O         -7.7050   59.2610   15.8720 O.2   133  GLN133     -0.2867
     79  CB        -8.7200   56.7190   17.3450 C.3   133  GLN133      0.0367
     80  CG       -10.1350   57.2060   17.5240 C.3   133  GLN133      0.0905
     81  CD       -10.2480   58.5450   18.2460 C.2   133  GLN133      0.2608
     82  OE1       -9.5250   58.8220   19.2090 O.2   133  GLN133     -0.2717
     83  NE2      -11.1870   59.3740   17.7910 N.am  133  GLN133     -0.0878
     84  N        -11.9250   60.8630   13.6660 N.3   135  ASN135     -0.1240
     85  CA       -13.3700   60.9460   13.6340 C.3   135  ASN135      0.1653
     86  C        -13.8820   61.8190   12.4870 C.2   135  ASN135      0.2266
     87  O        -13.1090   62.3130   11.6680 O.2   135  ASN135     -0.2867
     88  CB       -13.8900   61.4710   14.9740 C.3   135  ASN135      0.1155
     89  CG       -13.3440   62.8490   15.3230 C.2   135  ASN135      0.2627
     90  OD1      -13.3120   63.7580   14.4980 O.2   135  ASN135     -0.2716
     91  ND2      -12.9020   63.0030   16.5610 N.am  135  ASN135     -0.0877
     92  N        -15.6410   64.5990   13.1690 N.3   137  TYR137     -0.1227
     93  CA       -16.1030   65.7200   13.9780 C.3   137  TYR137      0.1736
     94  C        -15.0590   66.8610   14.1070 C.2   137  TYR137      0.2595
     95  O        -15.3750   68.0270   13.8590 O.2   137  TYR137     -0.2718
     96  CB       -16.5210   65.2070   15.3600 C.3   137  TYR137      0.0548
     97  CG       -16.9080   66.3200   16.3100 C.ar  137  TYR137     -0.0200
     98  CD1      -18.1150   67.0030   16.1690 C.ar  137  TYR137     -0.0009
     99  CD2      -16.0570   66.7030   17.3310 C.ar  137  TYR137     -0.0009
    100  CE1      -18.4580   68.0350   17.0330 C.ar  137  TYR137      0.0417
    101  CE2      -16.3870   67.7250   18.1890 C.ar  137  TYR137      0.0417
    102  CZ       -17.5840   68.3900   18.0370 C.ar  137  TYR137      0.1957
    103  OH       -17.8870   69.4100   18.9060 O.3   137  TYR137     -0.2866
    104  N        -13.8290   66.5320   14.4920 N.am  138  ASN138     -0.1974
    105  CA       -12.7820   67.5360   14.5760 C.3   138  ASN138      0.1688
    106  C        -11.4140   66.9600   14.1380 C.2   138  ASN138      0.2292
    107  O        -11.3510   65.9050   13.4910 O.2   138  ASN138     -0.2864
    108  CB       -12.7390   68.1050   15.9890 C.3   138  ASN138      0.1181
    109  CG       -12.5320   67.0290   17.0410 C.2   138  ASN138      0.2629
    110  OD1      -12.0830   65.9230   16.7330 O.2   138  ASN138     -0.2716
    111  ND2      -12.8780   67.3480   18.2940 N.am  138  ASN138     -0.0877
    112  N         -9.0370   65.6490   15.8170 N.3   140  ASP140     -0.1239
    113  CA        -8.4690   64.6110   16.6660 C.3   140  ASP140      0.1674
    114  C         -7.8350   63.4800   15.8560 C.2   140  ASP140      0.2266
    115  O         -8.4530   62.8600   14.9930 O.2   140  ASP140     -0.2867
    116  CB        -9.5360   64.0410   17.6020 C.3   140  ASP140      0.1410
    117  CG        -9.9020   65.0090   18.7410 C.2   140  ASP140      0.3668
    118  OD1       -9.3810   66.1490   18.7890 O.co2 140  ASP140     -0.2456
    119  OD2      -10.7450   64.6490   19.5790 O.co2 140  ASP140     -0.2456
    120  N         -5.2820   60.4430   17.0800 N.3   142  PHE142     -0.1241
    121  CA        -4.6130   59.8730   18.2540 C.3   142  PHE142      0.1605
    122  C         -4.1130   58.4390   18.0120 C.2   142  PHE142      0.2264
    123  O         -4.7490   57.6430   17.3220 O.2   142  PHE142     -0.2867
    124  CB        -5.5440   59.8620   19.4900 C.3   142  PHE142      0.0534
    125  CG        -6.0830   61.2130   19.8690 C.ar  142  PHE142     -0.0203
    126  CD1       -5.2270   62.2610   20.1260 C.ar  142  PHE142     -0.0042
    127  CD2       -7.4530   61.4230   19.9980 C.ar  142  PHE142     -0.0042
    128  CE1       -5.7240   63.5110   20.4720 C.ar  142  PHE142     -0.0003
    129  CE2       -7.9640   62.6580   20.3500 C.ar  142  PHE142     -0.0003
    130  CZ        -7.1010   63.7150   20.5820 C.ar  142  PHE142     -0.0000
@<TRIPOS>BOND
     1    87    86    2
     2    86    85    1
     3    92    93    1
     4   107   106    2
     5    85    84    1
     6    85    88    1
     7    95    94    2
     8    70    69    2
     9    93    94    1
    10    93    96    1
    11    94   104   am
    12   106   105    1
    13    69    68    1
    14   104   105    1
    15    90    89    2
    16   105   108    1
    17    88    89    1
    18   115   114    2
    19    67    68    1
    20    68    71    1
    21    89    91   am
    22    96    97    1
    23    55    54    2
    24    77    78    2
    25    77    76    1
    26   112   113    1
    27    75    76    1
    28   114   113    1
    29    61    60    1
    30    61    62    2
    31    76    79    1
    32   108   109    1
    33    98    97   ar
    34    98   100   ar
    35    60    59    1
    36    60    63    1
    37    54    59   am
    38    54    53    1
    39    97    99   ar
    40   113   116    1
    41    71    72    1
    42   110   109    2
    43    65    63    1
    44    53    52    1
    45    53    56    1
    46   100   102   ar
    47   109   111   am
    48   120   121    1
    49   123   122    2
    50    99   101   ar
    51    63    64    1
    52    79    80    1
    53    73    72   ar
    54    80    81    1
    55   116   117    1
    56    64    66    1
    57    72    74   ar
    58    83    81   am
    59    56    58    1
    60    56    57    1
    61    31    29   am
    62   122   121    1
    63   102   101   ar
    64   102   103    1
    65    81    82    2
    66   121   124    1
    67   117   118   ar
    68   117   119   ar
    69    29    28    1
    70    29    30    2
    71     9    11   ar
    72     9     7   ar
    73    43    42    2
    74   124   125    1
    75    11    10   ar
    76     7     6   ar
    77    28    25    1
    78   125   127   ar
    79   125   126   ar
    80   127   129   ar
    81   126   128   ar
    82    10     8   ar
    83   129   130   ar
    84     6     8   ar
    85     6     5    1
    86    42    41    1
    87   128   130   ar
    88     5     2    1
    89    25    24    1
    90    25    26    1
    91    44    41    1
    92    44    45    1
    93    41    40    1
    94    40    34   am
    95     2     1    1
    96     2     3    1
    97    26    32   am
    98    26    27    2
    99    32    33    1
   100    23    22    2
   101    45    47   ar
   102    45    46   ar
   103     3     4    2
   104    22    21    1
   105    47    49   ar
   106    34    33    1
   107    34    35    2
   108    21    20    1
   109    33    36    1
   110    46    48   ar
   111    20    14   am
   112    36    37    1
   113    49    50   ar
   114    39    37   ar
   115    48    50   ar
   116    14    13    1
   117    14    15    2
   118    18    16    1
   119    37    38   ar
   120    50    51    1
   121    13    16    1
   122    13    12    1
   123    17    16    1
   124    17    19    1
