@<TRIPOS>MOLECULE
tmp/5aanA00.pdb
 174 171 0 0 0
SMALL
GASTEIGER

@<TRIPOS>ATOM
      1  N        -11.0210    8.5420   15.4790 N.3    28  TRP28      -0.1241
      2  CA       -10.9280    7.4510   14.5420 C.3    28  TRP28       0.1605
      3  C        -11.4700    7.8620   13.1740 C.2    28  TRP28       0.2264
      4  O        -10.9580    7.4530   12.1540 O.2    28  TRP28      -0.2867
      5  CB       -11.6640    6.2080   15.0590 C.3    28  TRP28       0.0550
      6  CG       -10.7440    5.3230   15.8410 C.ar   28  TRP28       0.0003
      7  CD1      -10.6960    5.1740   17.2000 C.ar   28  TRP28       0.0946
      8  CD2       -9.7130    4.4820   15.3080 C.ar   28  TRP28       0.0152
      9  NE1       -9.6970    4.2930   17.5410 N.ar   28  TRP28      -0.2442
     10  CE2       -9.0870    3.8550   16.4040 C.ar   28  TRP28       0.0810
     11  CE3       -9.2630    4.2070   14.0160 C.ar   28  TRP28       0.0012
     12  CZ2       -8.0260    2.9580   16.2330 C.ar   28  TRP28       0.0191
     13  CZ3       -8.2160    3.3120   13.8570 C.ar   28  TRP28       0.0001
     14  CH2       -7.6130    2.7000   14.9570 C.ar   28  TRP28       0.0015
     15  N         -7.3970    7.5330    5.1760 N.3    35  ASP35      -0.1239
     16  CA        -7.1800    6.3260    4.3970 C.3    35  ASP35       0.1674
     17  C         -8.3120    6.0890    3.3730 C.2    35  ASP35       0.2266
     18  O         -8.1440    5.3470    2.4110 O.2    35  ASP35      -0.2867
     19  CB        -7.0720    5.0990    5.3170 C.3    35  ASP35       0.1410
     20  CG        -5.7640    5.0530    6.1280 C.2    35  ASP35       0.3668
     21  OD1       -4.8650    5.8980    5.9110 O.co2  35  ASP35      -0.2456
     22  OD2       -5.6360    4.1420    6.9840 O.co2  35  ASP35      -0.2456
     23  N         -9.3340   -2.7430    1.1770 N.3    46  PHE46      -0.1241
     24  CA        -9.0370   -3.4730    2.4180 C.3    46  PHE46       0.1605
     25  C         -7.8300   -4.4080    2.2200 C.2    46  PHE46       0.2264
     26  O         -6.9250   -4.4470    3.0630 O.2    46  PHE46      -0.2867
     27  CB       -10.2990   -4.2440    2.8370 C.3    46  PHE46       0.0534
     28  CG       -10.3230   -4.7220    4.2630 C.ar   46  PHE46      -0.0203
     29  CD1      -10.5810   -3.8390    5.3040 C.ar   46  PHE46      -0.0042
     30  CD2      -10.2070   -6.0530    4.5320 C.ar   46  PHE46      -0.0042
     31  CE1      -10.6520   -4.2730    6.6000 C.ar   46  PHE46      -0.0003
     32  CE2      -10.2760   -6.5100    5.8540 C.ar   46  PHE46      -0.0003
     33  CZ       -10.5110   -5.6030    6.8730 C.ar   46  PHE46      -0.0000
     34  N         -4.5630   -2.5840    2.1960 N.3    49  ILE49      -0.1231
     35  CA        -4.1170   -2.2520    3.5560 C.3    49  ILE49       0.1692
     36  C         -3.3770   -3.4160    4.1890 C.2    49  ILE49       0.2592
     37  O         -2.3630   -3.2250    4.8480 O.2    49  ILE49      -0.2718
     38  CB        -5.2950   -1.8020    4.4200 C.3    49  ILE49       0.0266
     39  CG1       -5.7700   -0.4370    3.9450 C.3    49  ILE49       0.0019
     40  CG2       -4.8890   -1.7080    5.9010 C.3    49  ILE49       0.0020
     41  CD1       -7.1180   -0.0310    4.4500 C.3    49  ILE49       0.0001
     42  N         -3.8730   -4.6270    3.9950 N.am   50  TYR50      -0.1976
     43  CA        -3.1690   -5.7970    4.4620 C.3    50  TYR50       0.1639
     44  C         -1.8570   -6.0400    3.7010 C.2    50  TYR50       0.2290
     45  O         -0.9030   -6.5600    4.2750 O.2    50  TYR50      -0.2864
     46  CB        -4.0830   -7.0180    4.3590 C.3    50  TYR50       0.0560
     47  CG        -4.9350   -7.2480    5.6010 C.ar   50  TYR50      -0.0198
     48  CD1       -6.1370   -6.5860    5.7810 C.ar   50  TYR50      -0.0009
     49  CD2       -4.5410   -8.1700    6.5610 C.ar   50  TYR50      -0.0009
     50  CE1       -6.9180   -6.8100    6.8980 C.ar   50  TYR50       0.0417
     51  CE2       -5.3110   -8.3960    7.6810 C.ar   50  TYR50       0.0417
     52  CZ        -6.4940   -7.7120    7.8440 C.ar   50  TYR50       0.1957
     53  OH        -7.2650   -7.9480    8.9590 O.3    50  TYR50      -0.2866
     54  N          1.1580   -4.6640    5.2490 N.3    53  PHE53      -0.1227
     55  CA         1.5920   -5.2330    6.5300 C.3    53  PHE53       0.1736
     56  C          2.2400   -6.6020    6.4030 C.2    53  PHE53       0.2595
     57  O          2.9250   -7.0590    7.3160 O.2    53  PHE53      -0.2718
     58  CB         0.4130   -5.3530    7.4900 C.3    53  PHE53       0.0547
     59  CG        -0.0070   -4.0500    8.0930 C.ar   53  PHE53      -0.0202
     60  CD1       -0.1360   -2.9200    7.3070 C.ar   53  PHE53      -0.0042
     61  CD2       -0.2690   -3.9540    9.4520 C.ar   53  PHE53      -0.0042
     62  CE1       -0.5230   -1.7100    7.8590 C.ar   53  PHE53      -0.0003
     63  CE2       -0.6500   -2.7500   10.0180 C.ar   53  PHE53      -0.0003
     64  CZ        -0.7810   -1.6250    9.2230 C.ar   53  PHE53      -0.0000
     65  N          2.0140   -7.2590    5.2740 N.am   54  PHE54      -0.1976
     66  CA         2.5530   -8.5900    5.0410 C.3    54  PHE54       0.1639
     67  C          3.0780   -8.6710    3.6290 C.2    54  PHE54       0.2290
     68  O          2.5870   -9.4620    2.8230 O.2    54  PHE54      -0.2864
     69  CB         1.4920   -9.6670    5.2370 C.3    54  PHE54       0.0560
     70  CG         0.7500   -9.5740    6.5350 C.ar   54  PHE54      -0.0200
     71  CD1       -0.3770   -8.7850    6.6440 C.ar   54  PHE54      -0.0042
     72  CD2        1.1630  -10.3010    7.6360 C.ar   54  PHE54      -0.0042
     73  CE1       -1.0730   -8.7110    7.8260 C.ar   54  PHE54      -0.0003
     74  CE2        0.4710  -10.2370    8.8240 C.ar   54  PHE54      -0.0003
     75  CZ        -0.6490   -9.4410    8.9240 C.ar   54  PHE54      -0.0000
     76  N         -7.0480  -13.8760    3.0880 N.3    62  PHE62      -0.1241
     77  CA        -7.3940  -13.6550    4.4930 C.3    62  PHE62       0.1605
     78  C         -8.1310  -12.3300    4.6290 C.2    62  PHE62       0.2264
     79  O         -9.1150  -12.2030    5.3760 O.2    62  PHE62      -0.2867
     80  CB        -6.1380  -13.6670    5.3670 C.3    62  PHE62       0.0534
     81  CG        -6.4230  -13.5280    6.8280 C.ar   62  PHE62      -0.0203
     82  CD1       -6.8430  -14.6110    7.5500 C.ar   62  PHE62      -0.0042
     83  CD2       -6.3080  -12.3140    7.4680 C.ar   62  PHE62      -0.0042
     84  CE1       -7.1280  -14.4960    8.8910 C.ar   62  PHE62      -0.0003
     85  CE2       -6.5990  -12.1970    8.8040 C.ar   62  PHE62      -0.0003
     86  CZ        -7.0030  -13.2970    9.5140 C.ar   62  PHE62      -0.0000
     87  N        -11.8510  -11.6440    6.1960 N.3    66  VAL66      -0.1245
     88  CA       -12.0850  -10.6590    7.2540 C.3    66  VAL66       0.1561
     89  C        -13.0700   -9.5560    6.8020 C.2    66  VAL66       0.2260
     90  O        -13.9190   -9.1120    7.5770 O.2    66  VAL66      -0.2867
     91  CB       -10.7700  -10.0570    7.7070 C.3    66  VAL66       0.0252
     92  CG1      -11.0030   -8.9190    8.7030 C.3    66  VAL66       0.0019
     93  CG2       -9.8780  -11.1290    8.3080 C.3    66  VAL66       0.0019
     94  N        -16.3910   -7.7390    8.6480 N.3    70  PHE70      -0.1241
     95  CA       -16.5680   -6.2910    8.8600 C.3    70  PHE70       0.1605
     96  C        -17.8350   -5.7650    8.1870 C.2    70  PHE70       0.2264
     97  O        -18.5120   -4.9050    8.7440 O.2    70  PHE70      -0.2867
     98  CB       -15.3730   -5.5180    8.3090 C.3    70  PHE70       0.0534
     99  CG       -14.1970   -5.3670    9.2620 C.ar   70  PHE70      -0.0203
    100  CD1      -13.4280   -6.4560    9.6310 C.ar   70  PHE70      -0.0042
    101  CD2      -13.8380   -4.1150    9.7240 C.ar   70  PHE70      -0.0042
    102  CE1      -12.3250   -6.2970   10.4810 C.ar   70  PHE70      -0.0003
    103  CE2      -12.7370   -3.9430   10.5730 C.ar   70  PHE70      -0.0003
    104  CZ       -11.9790   -5.0340   10.9420 C.ar   70  PHE70      -0.0000
    105  N        -16.6340   -0.3630   10.6110 N.3    83  PHE83      -0.1241
    106  CA       -15.2350   -0.3750   10.9790 C.3    83  PHE83       0.1605
    107  C        -15.0920   -0.2810   12.4900 C.2    83  PHE83       0.2264
    108  O        -14.4090   -1.0990   13.1170 O.2    83  PHE83      -0.2867
    109  CB       -14.5270    0.7570   10.2670 C.3    83  PHE83       0.0534
    110  CG       -13.1260    0.9610   10.6790 C.ar   83  PHE83      -0.0203
    111  CD1      -12.1080    0.1680   10.1850 C.ar   83  PHE83      -0.0042
    112  CD2      -12.8260    1.9810   11.5370 C.ar   83  PHE83      -0.0042
    113  CE1      -10.8020    0.3930   10.5880 C.ar   83  PHE83      -0.0003
    114  CE2      -11.5450    2.2120   11.9420 C.ar   83  PHE83      -0.0003
    115  CZ       -10.5290    1.4250   11.4750 C.ar   83  PHE83      -0.0000
    116  N        -13.6830   -3.0400   15.1940 N.3    87  LEU87      -0.1245
    117  CA       -12.5130   -2.6540   16.0070 C.3    87  LEU87       0.1561
    118  C        -12.7900   -2.7510   17.4980 C.2    87  LEU87       0.2260
    119  O        -11.9500   -3.1730   18.2880 O.2    87  LEU87      -0.2867
    120  CB       -12.0740   -1.2410   15.6390 C.3    87  LEU87       0.0270
    121  CG       -10.7800   -0.7370   16.2600 C.3    87  LEU87       0.0019
    122  CD1       -9.6050   -1.6150   15.8820 C.3    87  LEU87       0.0001
    123  CD2      -10.5600    0.6650   15.7760 C.3    87  LEU87       0.0001
    124  N        -12.8290   -6.5000   18.4180 N.3    90  THR90      -0.1218
    125  CA       -11.5620   -7.2210   18.3200 C.3    90  THR90       0.1862
    126  C        -10.4600   -6.6430   19.2070 C.2    90  THR90       0.2287
    127  O         -9.5450   -7.3800   19.6030 O.2    90  THR90      -0.2866
    128  CB       -11.0660   -7.2820   16.8470 C.3    90  THR90       0.1770
    129  OG1      -10.9200   -5.9570   16.3470 O.3    90  THR90      -0.2211
    130  CG2      -12.0380   -8.0660   15.9950 C.3    90  THR90       0.0375
    131  N        -17.0090  -13.2900   17.2740 N.3   101  TRP101     -0.1241
    132  CA       -16.4600  -12.6720   16.0890 C.3   101  TRP101      0.1605
    133  C        -15.6120  -13.6840   15.2900 C.2   101  TRP101      0.2264
    134  O        -15.7420  -13.8020   14.0670 O.2   101  TRP101     -0.2867
    135  CB       -15.6520  -11.4460   16.5000 C.3   101  TRP101      0.0550
    136  CG       -15.5040  -10.4600   15.4150 C.ar  101  TRP101      0.0003
    137  CD1      -16.3070   -9.3830   15.1770 C.ar  101  TRP101      0.0946
    138  CD2      -14.4890  -10.4390   14.4280 C.ar  101  TRP101      0.0152
    139  NE1      -15.8580   -8.6900   14.0840 N.ar  101  TRP101     -0.2442
    140  CE2      -14.7350   -9.3120   13.6030 C.ar  101  TRP101      0.0810
    141  CE3      -13.3940  -11.2620   14.1450 C.ar  101  TRP101      0.0012
    142  CZ2      -13.9290   -8.9810   12.5270 C.ar  101  TRP101      0.0191
    143  CZ3      -12.5930  -10.9410   13.0600 C.ar  101  TRP101      0.0001
    144  CH2      -12.8740   -9.8190   12.2580 C.ar  101  TRP101      0.0015
    145  N        -16.0030  -15.3230   11.3980 N.3   105  LEU105     -0.1245
    146  CA       -14.9510  -15.4170   10.4110 C.3   105  LEU105      0.1561
    147  C        -14.8180  -16.8440    9.8610 C.2   105  LEU105      0.2260
    148  O        -14.7420  -17.0420    8.6500 O.2   105  LEU105     -0.2867
    149  CB       -13.6330  -14.9480   11.0070 C.3   105  LEU105      0.0270
    150  CG       -12.4510  -14.9580   10.0450 C.3   105  LEU105      0.0019
    151  CD1      -12.6180  -13.8530    9.0340 C.3   105  LEU105      0.0001
    152  CD2      -11.1800  -14.7380   10.8350 C.3   105  LEU105      0.0001
    153  N         -5.8530  -15.8740   15.0310 N.3   180  LEU180     -0.1231
    154  CA        -6.3850  -14.5700   14.6000 C.3   180  LEU180      0.1693
    155  C         -5.9990  -13.4540   15.5810 C.2   180  LEU180      0.2593
    156  O         -6.4300  -12.3030   15.4360 O.2   180  LEU180     -0.2718
    157  CB        -7.9110  -14.6270   14.4960 C.3   180  LEU180      0.0284
    158  CG        -8.5130  -15.9220   13.9510 C.3   180  LEU180      0.0019
    159  CD1      -10.0050  -15.9070   14.1600 C.3   180  LEU180      0.0001
    160  CD2       -8.1720  -16.0270   12.4920 C.3   180  LEU180      0.0001
    161  N         -5.2070  -13.8090   16.5870 N.am  181  SER181     -0.1938
    162  CA        -4.8610  -12.9070   17.6850 C.3   181  SER181      0.2055
    163  C         -6.1020  -12.4380   18.4690 C.2   181  SER181      0.2642
    164  O         -6.2240  -11.2520   18.8070 O.2   181  SER181     -0.2714
    165  CB        -4.0730  -11.7000   17.1570 C.3   181  SER181      0.2130
    166  OG        -3.7780  -10.7940   18.2130 O.3   181  SER181     -0.2179
    167  N         -6.9980  -13.3780   18.7850 N.am  182  LEU182     -0.1977
    168  CA        -8.2380  -13.0670   19.5100 C.3   182  LEU182      0.1596
    169  C         -8.4690  -13.9550   20.7380 C.2   182  LEU182      0.2287
    170  O         -9.6170  -14.2710   21.0700 O.2   182  LEU182     -0.2864
    171  CB        -9.4400  -13.1990   18.5700 C.3   182  LEU182      0.0297
    172  CG        -9.6300  -12.1380   17.4750 C.3   182  LEU182      0.0022
    173  CD1      -10.8520  -12.4860   16.6270 C.3   182  LEU182      0.0001
    174  CD2       -9.7570  -10.7390   18.0780 C.3   182  LEU182      0.0001
@<TRIPOS>BOND
     1    23    24    1
     2    34    35    1
     3    25    24    1
     4    25    26    2
     5    18    17    2
     6    24    27    1
     7    68    67    2
     8    27    28    1
     9    76    77    1
    10    17    16    1
    11    35    36    1
    12    35    38    1
    13    67    66    1
    14    44    45    2
    15    44    43    1
    16    39    38    1
    17    39    41    1
    18    42    36   am
    19    42    43    1
    20    36    37    2
    21    28    30   ar
    22    28    29   ar
    23    46    43    1
    24    46    47    1
    25    16    15    1
    26    16    19    1
    27    38    40    1
    28    77    78    1
    29    77    80    1
    30    30    32   ar
    31    78    79    2
    32    66    69    1
    33    66    65    1
    34    69    70    1
    35    54    55    1
    36    65    56   am
    37    29    31   ar
    38    19    20    1
    39    80    81    1
    40    47    48   ar
    41    47    49   ar
    42    48    50   ar
    43    32    33   ar
    44    21    20   ar
    45    20    22   ar
    46    87    88    1
    47    56    55    1
    48    56    57    2
    49    55    58    1
    50    70    71   ar
    51    70    72   ar
    52    49    51   ar
    53    31    33   ar
    54    71    73   ar
    55    89    88    1
    56    89    90    2
    57    81    83   ar
    58    81    82   ar
    59    50    52   ar
    60    88    91    1
    61    60    62   ar
    62    60    59   ar
    63    83    85   ar
    64    58    59    1
    65    82    84   ar
    66    72    74   ar
    67    51    52   ar
    68    91    93    1
    69    91    92    1
    70    73    75   ar
    71    52    53    1
    72    62    64   ar
    73    59    61   ar
    74    96    97    2
    75    96    95    1
    76    98    95    1
    77    98    99    1
    78    94    95    1
    79   148   147    2
    80    85    86   ar
    81    74    75   ar
    82    84    86   ar
    83   151   150    1
    84    64    63   ar
    85    99   100   ar
    86    99   101   ar
    87    61    63   ar
    88   100   102   ar
    89   101   103   ar
    90   147   146    1
    91   150   152    1
    92   150   149    1
    93   111   113   ar
    94   111   110   ar
    95   109   110    1
    96   109   106    1
    97   146   149    1
    98   146   145    1
    99   102   104   ar
   100   103   104   ar
   101   113   115   ar
   102   105   106    1
   103   110   112   ar
   104   106   107    1
   105   115   114   ar
   106   112   114   ar
   107     4     3    2
   108   144   142   ar
   109   144   143   ar
   110   107   108    2
   111   160   158    1
   112   142   140   ar
   113   143   141   ar
   114     3     2    1
   115   140   139   ar
   116   140   138   ar
   117    13    11   ar
   118    13    14   ar
   119   158   159    1
   120   158   157    1
   121    11     8   ar
   122   134   133    2
   123   139   137   ar
   124   141   138   ar
   125   138   136   ar
   126   157   154    1
   127     2     5    1
   128     2     1    1
   129   154   153    1
   130   154   155    1
   131    14    12   ar
   132     5     6    1
   133   137   136   ar
   134   116   117    1
   135   133   132    1
   136     8     6   ar
   137     8    10   ar
   138   136   135    1
   139   156   155    2
   140   155   161   am
   141   120   117    1
   142   120   121    1
   143   123   121    1
   144     6     7   ar
   145   122   121    1
   146   130   128    1
   147   117   118    1
   148   132   135    1
   149   132   131    1
   150    12    10   ar
   151   129   128    1
   152    10     9   ar
   153   161   162    1
   154   173   172    1
   155   128   125    1
   156   165   162    1
   157   165   166    1
   158     7     9   ar
   159   172   174    1
   160   172   171    1
   161   118   119    2
   162   162   163    1
   163   125   124    1
   164   125   126    1
   165   163   167   am
   166   163   164    2
   167   171   168    1
   168   167   168    1
   169   126   127    2
   170   168   169    1
   171   169   170    2
