@<TRIPOS>MOLECULE
tmp/5aanA01.pdb
 84 78 0 0 0
SMALL
GASTEIGER

@<TRIPOS>ATOM
      1  N         -7.2600  -21.3500    7.6950 N.3   123  VAL123     -0.1245
      2  CA        -5.8880  -21.6570    8.0730 C.3   123  VAL123      0.1561
      3  C         -4.9860  -21.4680    6.8670 C.2   123  VAL123      0.2260
      4  O         -3.9130  -20.8820    6.9910 O.2   123  VAL123     -0.2867
      5  CB        -5.7670  -23.0740    8.6370 C.3   123  VAL123      0.0252
      6  CG1       -4.2900  -23.4770    8.7840 C.3   123  VAL123      0.0019
      7  CG2       -6.4540  -23.1360    9.9760 C.3   123  VAL123      0.0019
      8  N         -4.3660  -17.8330    6.2300 N.3   126  ILE126     -0.1231
      9  CA        -3.3880  -17.2810    7.1520 C.3   126  ILE126      0.1692
     10  C         -1.9930  -17.6180    6.6580 C.2   126  ILE126      0.2592
     11  O         -1.0990  -16.7730    6.6670 O.2   126  ILE126     -0.2718
     12  CB        -3.6140  -17.7990    8.5840 C.3   126  ILE126      0.0266
     13  CG1       -4.8840  -17.1760    9.1400 C.3   126  ILE126      0.0019
     14  CG2       -2.4570  -17.4370    9.4880 C.3   126  ILE126      0.0020
     15  CD1       -5.3960  -17.8690   10.3740 C.3   126  ILE126      0.0001
     16  N         -1.7950  -18.8610    6.2420 N.am  127  TYR127     -0.1976
     17  CA        -0.4800  -19.2650    5.7730 C.3   127  TYR127      0.1639
     18  C         -0.0940  -18.4840    4.5160 C.2   127  TYR127      0.2290
     19  O          1.0690  -18.1170    4.3520 O.2   127  TYR127     -0.2864
     20  CB        -0.4360  -20.7630    5.4960 C.3   127  TYR127      0.0560
     21  CG        -0.1010  -21.6250    6.7010 C.ar  127  TYR127     -0.0198
     22  CD1        1.1460  -21.5580    7.3100 C.ar  127  TYR127     -0.0009
     23  CD2       -1.0200  -22.5400    7.1930 C.ar  127  TYR127     -0.0009
     24  CE1        1.4560  -22.3600    8.3950 C.ar  127  TYR127      0.0417
     25  CE2       -0.7250  -23.3510    8.2740 C.ar  127  TYR127      0.0417
     26  CZ         0.5110  -23.2580    8.8730 C.ar  127  TYR127      0.1957
     27  OH         0.7900  -24.0650    9.9510 O.3   127  TYR127     -0.2866
     28  N          1.2030  -15.0250    5.8950 N.3   130  VAL130     -0.1245
     29  CA         2.4050  -14.9600    6.7390 C.3   130  VAL130      0.1561
     30  C          3.5630  -15.8410    6.2450 C.2   130  VAL130      0.2260
     31  O          4.6910  -15.7040    6.7250 O.2   130  VAL130     -0.2867
     32  CB         2.0710  -15.3430    8.2040 C.3   130  VAL130      0.0252
     33  CG1        0.7860  -14.6570    8.6720 C.3   130  VAL130      0.0019
     34  CG2        1.9580  -16.8590    8.3760 C.3   130  VAL130      0.0019
     35  N         -3.5710  -31.4880   11.6510 N.3   145  ARG145     -0.1231
     36  CA        -3.5310  -30.9720   13.0200 C.3   145  ARG145      0.1694
     37  C         -4.8460  -30.2420   13.3520 C.2   145  ARG145      0.2591
     38  O         -5.3710  -30.3330   14.4760 O.2   145  ARG145     -0.2718
     39  CB        -2.3300  -30.0380   13.2310 C.3   145  ARG145      0.0321
     40  CG        -0.9830  -30.7700   13.2620 C.3   145  ARG145      0.0489
     41  CD         0.1310  -29.8820   13.7640 C.3   145  ARG145      0.2205
     42  NE         0.2530  -28.6440   12.9920 N.pl3 145  ARG145     -0.0865
     43  CZ         0.9540  -28.5170   11.8670 C.cat 145  ARG145      0.5346
     44  NH1        1.6060  -29.5560   11.3510 N.pl3 145  ARG145      0.1354
     45  NH2        1.0060  -27.3410   11.2500 N.pl3 145  ARG145      0.1354
     46  N         -5.3690  -29.5350   12.3590 N.am  146  VAL146     -0.1980
     47  CA        -6.6930  -28.9140   12.4460 C.3   146  VAL146      0.1595
     48  C         -7.7860  -29.9540   12.6630 C.2   146  VAL146      0.2287
     49  O         -8.6580  -29.7640   13.5090 O.2   146  VAL146     -0.2864
     50  CB        -6.9650  -28.0980   11.1880 C.3   146  VAL146      0.0276
     51  CG1       -8.4760  -27.8660   10.9920 C.3   146  VAL146      0.0022
     52  CG2       -6.1890  -26.7920   11.2580 C.3   146  VAL146      0.0022
     53  N         -7.8640  -30.7950   16.2670 N.3   149  ILE149     -0.1245
     54  CA        -8.4530  -29.7270   17.0450 C.3   149  ILE149      0.1561
     55  C         -9.9700  -29.7180   16.8330 C.2   149  ILE149      0.2260
     56  O        -10.7350  -29.6400   17.7960 O.2   149  ILE149     -0.2867
     57  CB        -7.8250  -28.3750   16.6660 C.3   149  ILE149      0.0252
     58  CG1       -6.3450  -28.3610   17.0510 C.3   149  ILE149      0.0019
     59  CG2       -8.5740  -27.2120   17.3340 C.3   149  ILE149      0.0019
     60  CD1       -5.5670  -27.1380   16.5250 C.3   149  ILE149      0.0001
     61  N         -6.1120  -22.2800   20.2920 N.3   175  ARG175     -0.1231
     62  CA        -5.1990  -22.1550   19.1560 C.3   175  ARG175      0.1694
     63  C         -5.8630  -21.6100   17.8850 C.2   175  ARG175      0.2591
     64  O         -5.2090  -20.9210   17.1080 O.2   175  ARG175     -0.2718
     65  CB        -4.5390  -23.5100   18.8480 C.3   175  ARG175      0.0321
     66  CG        -3.2550  -23.7270   19.6570 C.3   175  ARG175      0.0489
     67  CD        -2.5860  -25.0530   19.3190 C.3   175  ARG175      0.2205
     68  NE        -3.4480  -26.1740   19.6740 N.pl3 175  ARG175     -0.0865
     69  CZ        -3.2460  -27.4300   19.2850 C.cat 175  ARG175      0.5346
     70  NH1       -2.2160  -27.7290   18.4990 N.pl3 175  ARG175      0.1354
     71  NH2       -4.0870  -28.3810   19.6610 N.pl3 175  ARG175      0.1354
     72  N         -7.1390  -21.9000   17.6590 N.am  176  MET176     -0.1979
     73  CA        -7.7860  -21.4150   16.4410 C.3   176  MET176      0.1605
     74  C         -8.1390  -19.9360   16.5160 C.2   176  MET176      0.2287
     75  O         -8.3020  -19.2800   15.4830 O.2   176  MET176     -0.2864
     76  CB        -9.0550  -22.2190   16.1340 C.3   176  MET176      0.0413
     77  CG        -8.8250  -23.6970   15.9570 C.3   176  MET176      0.0598
     78  SD        -7.4560  -24.0940   14.8600 S.3   176  MET176     -0.1393
     79  CE        -8.0670  -23.5790   13.2550 C.3   176  MET176      0.0692
     80  N         -4.7630  -17.8600   16.5450 N.3   179  ALA179     -0.1245
     81  CA        -4.3090  -17.7710   15.1580 C.3   179  ALA179      0.1562
     82  C         -4.8040  -16.4750   14.4660 C.2   179  ALA179      0.2260
     83  O         -4.2360  -16.0430   13.4620 O.2   179  ALA179     -0.2867
     84  CB        -4.7680  -19.0120   14.3780 C.3   179  ALA179      0.0290
@<TRIPOS>BOND
     1    19    18    2
     2    18    17    1
     3    20    17    1
     4    20    21    1
     5    17    16    1
     6    28    29    1
     7     8     9    1
     8    16    10   am
     9    30    31    2
    10    30    29    1
    11    10    11    2
    12    10     9    1
    13    21    23   ar
    14    21    22   ar
    15    29    32    1
    16     3     4    2
    17     3     2    1
    18     9    12    1
    19    23    25   ar
    20    22    24   ar
    21     1     2    1
    22     2     5    1
    23    32    34    1
    24    32    33    1
    25    25    26   ar
    26    24    26   ar
    27    12    13    1
    28    12    14    1
    29     5     6    1
    30     5     7    1
    31    26    27    1
    32    13    15    1
    33    51    50    1
    34    50    52    1
    35    50    47    1
    36    45    43    1
    37    44    43    1
    38    35    36    1
    39    43    42    2
    40    46    47    1
    41    46    37   am
    42    47    48    1
    43    48    49    2
    44    42    41    1
    45    36    39    1
    46    36    37    1
    47    39    40    1
    48    79    78    1
    49    40    41    1
    50    37    38    2
    51    83    82    2
    52    84    81    1
    53    82    81    1
    54    78    77    1
    55    81    80    1
    56    75    74    2
    57    77    76    1
    58    76    73    1
    59    53    54    1
    60    73    74    1
    61    73    72    1
    62    60    58    1
    63    57    54    1
    64    57    58    1
    65    57    59    1
    66    55    54    1
    67    55    56    2
    68    64    63    2
    69    72    63   am
    70    63    62    1
    71    70    69    1
    72    65    62    1
    73    65    66    1
    74    62    61    1
    75    69    71    1
    76    69    68    2
    77    67    66    1
    78    67    68    1
