@<TRIPOS>MOLECULE
tmp/5aaoL00.pdb
 125 125 0 0 0
SMALL
GASTEIGER

@<TRIPOS>ATOM
      1  N          6.3080  -15.9770 -107.4460 N.3    77  THR77      -0.1203
      2  CA         5.4820  -16.4330 -106.3350 C.3    77  THR77       0.1994
      3  C          4.0310  -15.9950 -106.4990 C.2    77  THR77       0.2617
      4  O          3.1110  -16.7830 -106.2500 O.2    77  THR77      -0.2717
      5  CB         6.0470  -15.9130 -105.0120 C.3    77  THR77       0.1784
      6  OG1        7.3840  -16.4010 -104.8390 O.3    77  THR77      -0.2211
      7  CG2        5.1880  -16.3730 -103.8470 C.3    77  THR77       0.0376
      8  N          3.8070  -14.7510 -106.9190 N.am   78  TRP78      -0.1975
      9  CA         2.4630  -14.1990 -107.0200 C.3    78  TRP78       0.1640
     10  C          1.8380  -14.3730 -108.3980 C.2    78  TRP78       0.2290
     11  O          0.6510  -14.0730 -108.5630 O.2    78  TRP78      -0.2864
     12  CB         2.4770  -12.7140 -106.6440 C.3    78  TRP78       0.0576
     13  CG         2.9640  -12.4710 -105.2480 C.ar   78  TRP78       0.0006
     14  CD1        4.2040  -12.0420 -104.8770 C.ar   78  TRP78       0.0946
     15  CD2        2.2240  -12.6580 -104.0360 C.ar   78  TRP78       0.0152
     16  NE1        4.2810  -11.9430 -103.5080 N.ar   78  TRP78      -0.2442
     17  CE2        3.0780  -12.3160 -102.9690 C.ar   78  TRP78       0.0810
     18  CE3        0.9220  -13.0780 -103.7500 C.ar   78  TRP78       0.0012
     19  CZ2        2.6720  -12.3810 -101.6370 C.ar   78  TRP78       0.0191
     20  CZ3        0.5210  -13.1420 -102.4270 C.ar   78  TRP78       0.0001
     21  CH2        1.3930  -12.7950 -101.3880 C.ar   78  TRP78       0.0015
     22  N         17.1310  -20.1460  -99.4460 N.3   100  PHE100     -0.1241
     23  CA        16.6090  -21.5010  -99.3300 C.3   100  PHE100      0.1605
     24  C         17.0330  -22.4010 -100.4820 C.2   100  PHE100      0.2264
     25  O         16.6240  -23.5660 -100.5230 O.2   100  PHE100     -0.2867
     26  CB        15.0790  -21.4740  -99.2350 C.3   100  PHE100      0.0534
     27  CG        14.5610  -20.8800  -97.9570 C.ar  100  PHE100     -0.0203
     28  CD1       14.4670  -21.6490  -96.8090 C.ar  100  PHE100     -0.0042
     29  CD2       14.1650  -19.5530  -97.9030 C.ar  100  PHE100     -0.0042
     30  CE1       13.9900  -21.1070  -95.6290 C.ar  100  PHE100     -0.0003
     31  CE2       13.6870  -19.0040  -96.7270 C.ar  100  PHE100     -0.0003
     32  CZ        13.5990  -19.7830  -95.5890 C.ar  100  PHE100     -0.0000
     33  N         16.1860  -21.7940 -103.5960 N.3   102  TRP102     -0.1241
     34  CA        15.1160  -21.7640 -104.5820 C.3   102  TRP102      0.1605
     35  C         15.4860  -20.8750 -105.7600 C.2   102  TRP102      0.2264
     36  O         15.9840  -19.7590 -105.5790 O.2   102  TRP102     -0.2867
     37  CB        13.8220  -21.2560 -103.9470 C.3   102  TRP102      0.0550
     38  CG        13.1900  -22.2060 -102.9870 C.ar  102  TRP102      0.0003
     39  CD1       13.2380  -23.5680 -103.0270 C.ar  102  TRP102      0.0946
     40  CD2       12.4150  -21.8640 -101.8340 C.ar  102  TRP102      0.0152
     41  NE1       12.5350  -24.0960 -101.9720 N.ar  102  TRP102     -0.2442
     42  CE2       12.0210  -23.0690 -101.2240 C.ar  102  TRP102      0.0810
     43  CE3       12.0140  -20.6540 -101.2590 C.ar  102  TRP102      0.0012
     44  CZ2       11.2480  -23.1010 -100.0680 C.ar  102  TRP102      0.0191
     45  CZ3       11.2450  -20.6880 -100.1110 C.ar  102  TRP102      0.0001
     46  CH2       10.8700  -21.9020  -99.5280 C.ar  102  TRP102      0.0015
     47  N          9.8050  -21.5620 -107.0660 N.3   107  LEU107     -0.1245
     48  CA         8.6450  -20.8590 -106.5290 C.3   107  LEU107      0.1561
     49  C          7.4640  -20.9190 -107.4910 C.2   107  LEU107      0.2260
     50  O          6.3120  -21.0540 -107.0610 O.2   107  LEU107     -0.2867
     51  CB         9.0130  -19.4080 -106.2130 C.3   107  LEU107      0.0270
     52  CG        10.0600  -19.2080 -105.1170 C.3   107  LEU107      0.0019
     53  CD1       10.4040  -17.7350 -104.9520 C.3   107  LEU107      0.0001
     54  CD2        9.5740  -19.7960 -103.8020 C.3   107  LEU107      0.0001
     55  N          6.0310  -24.3680 -107.1450 N.3   110  TYR110     -0.1227
     56  CA         5.3310  -24.5710 -105.8810 C.3   110  TYR110      0.1736
     57  C          3.9150  -24.0100 -105.9320 C.2   110  TYR110      0.2595
     58  O          2.9700  -24.6530 -105.4590 O.2   110  TYR110     -0.2718
     59  CB         6.1210  -23.9370 -104.7340 C.3   110  TYR110      0.0548
     60  CG         7.0700  -24.8880 -104.0390 C.ar  110  TYR110     -0.0200
     61  CD1        6.6600  -26.1640 -103.6720 C.ar  110  TYR110     -0.0009
     62  CD2        8.3760  -24.5130 -103.7530 C.ar  110  TYR110     -0.0009
     63  CE1        7.5240  -27.0380 -103.0370 C.ar  110  TYR110      0.0417
     64  CE2        9.2470  -25.3790 -103.1200 C.ar  110  TYR110      0.0417
     65  CZ         8.8170  -26.6400 -102.7640 C.ar  110  TYR110      0.1957
     66  OH         9.6830  -27.5050 -102.1330 O.3   110  TYR110     -0.2866
     67  N          3.7430  -22.8200 -106.5030 N.am  111  PHE111     -0.1976
     68  CA         2.4380  -22.1750 -106.5560 C.3   111  PHE111      0.1639
     69  C          1.6910  -22.4460 -107.8570 C.2   111  PHE111      0.2290
     70  O          0.6680  -21.8040 -108.1140 O.2   111  PHE111     -0.2864
     71  CB         2.5880  -20.6680 -106.3340 C.3   111  PHE111      0.0560
     72  CG         3.0000  -20.3030 -104.9340 C.ar  111  PHE111     -0.0200
     73  CD1        2.0480  -20.0970 -103.9480 C.ar  111  PHE111     -0.0042
     74  CD2        4.3380  -20.1730 -104.6020 C.ar  111  PHE111     -0.0042
     75  CE1        2.4230  -19.7640 -102.6580 C.ar  111  PHE111     -0.0003
     76  CE2        4.7200  -19.8400 -103.3140 C.ar  111  PHE111     -0.0003
     77  CZ         3.7610  -19.6350 -102.3420 C.ar  111  PHE111     -0.0000
     78  N         17.4330  -27.2260 -104.3430 N.3   131  ASP131     -0.1239
     79  CA        17.4570  -26.2720 -103.2440 C.3   131  ASP131      0.1674
     80  C         18.2100  -26.8890 -102.0670 C.2   131  ASP131      0.2266
     81  O         18.7720  -27.9830 -102.1640 O.2   131  ASP131     -0.2867
     82  CB        16.0370  -25.8460 -102.8750 C.3   131  ASP131      0.1410
     83  CG        15.1080  -27.0260 -102.6390 C.2   131  ASP131      0.3668
     84  OD1       15.5830  -28.1040 -102.2230 O.co2 131  ASP131     -0.2456
     85  OD2       13.8900  -26.8670 -102.8660 O.co2 131  ASP131     -0.2456
     86  N         17.2060  -28.4410  -99.7370 N.3   133  PHE133     -0.1241
     87  CA        16.5100  -29.6260  -99.2520 C.3   133  PHE133      0.1605
     88  C         16.5230  -30.7440 -100.2880 C.2   133  PHE133      0.2264
     89  O         15.7500  -31.7010 -100.1740 O.2   133  PHE133     -0.2867
     90  CB        15.0760  -29.2740  -98.8520 C.3   133  PHE133      0.0534
     91  CG        14.9900  -28.2110  -97.7930 C.ar  133  PHE133     -0.0203
     92  CD1       15.0000  -26.8680  -98.1360 C.ar  133  PHE133     -0.0042
     93  CD2       14.9070  -28.5540  -96.4540 C.ar  133  PHE133     -0.0042
     94  CE1       14.9290  -25.8890  -97.1640 C.ar  133  PHE133     -0.0003
     95  CE2       14.8330  -27.5790  -95.4770 C.ar  133  PHE133     -0.0003
     96  CZ        14.8440  -26.2450  -95.8330 C.ar  133  PHE133     -0.0000
     97  N         15.5630  -30.6780 -103.4300 N.3   135  LYS135     -0.1245
     98  CA        14.3250  -30.6860 -104.1960 C.3   135  LYS135      0.1561
     99  C         14.5320  -29.9880 -105.5320 C.2   135  LYS135      0.2260
    100  O         15.0990  -28.8900 -105.5850 O.2   135  LYS135     -0.2867
    101  CB        13.1970  -30.0060 -103.4170 C.3   135  LYS135      0.0271
    102  CG        12.9350  -30.6200 -102.0560 C.3   135  LYS135      0.0035
    103  CD        12.5970  -32.0950 -102.1810 C.3   135  LYS135      0.0206
    104  CE        12.4420  -32.7410 -100.8170 C.3   135  LYS135      0.1093
    105  NZ        12.1490  -34.1960 -100.9210 N.3   135  LYS135     -0.1314
    106  N          5.2370  -33.8500 -105.2100 N.3   143  TYR143     -0.1227
    107  CA         4.7020  -33.4750 -103.9040 C.3   143  TYR143      0.1736
    108  C          3.3340  -32.8180 -104.0410 C.2   143  TYR143      0.2595
    109  O          2.3710  -33.2240 -103.3810 O.2   143  TYR143     -0.2718
    110  CB         5.6830  -32.5470 -103.1860 C.3   143  TYR143      0.0548
    111  CG         5.2690  -32.1630 -101.7820 C.ar  143  TYR143     -0.0200
    112  CD1        5.3140  -33.0870 -100.7460 C.ar  143  TYR143     -0.0009
    113  CD2        4.8470  -30.8720 -101.4900 C.ar  143  TYR143     -0.0009
    114  CE1        4.9420  -32.7390  -99.4600 C.ar  143  TYR143      0.0417
    115  CE2        4.4730  -30.5150 -100.2070 C.ar  143  TYR143      0.0417
    116  CZ         4.5230  -31.4520  -99.1970 C.ar  143  TYR143      0.1957
    117  OH         4.1530  -31.1000  -97.9200 O.3   143  TYR143     -0.2866
    118  N          3.2260  -31.8070 -104.9030 N.am  144  ASN144     -0.1974
    119  CA         1.9510  -31.1350 -105.1220 C.3   144  ASN144      0.1688
    120  C          0.9680  -31.9740 -105.9260 C.2   144  ASN144      0.2292
    121  O         -0.2060  -31.5960 -106.0170 O.2   144  ASN144     -0.2864
    122  CB         2.1730  -29.7990 -105.8350 C.3   144  ASN144      0.1181
    123  CG         3.0200  -28.8400 -105.0260 C.2   144  ASN144      0.2629
    124  OD1        3.2350  -29.0390 -103.8310 O.2   144  ASN144     -0.2716
    125  ND2        3.5000  -27.7850 -105.6740 N.am  144  ASN144     -0.0877
@<TRIPOS>BOND
     1    11    10    2
     2    10     9    1
     3    70    69    2
     4    69    68    1
     5    49    50    2
     6    49    48    1
     7     1     2    1
     8    55    56    1
     9    47    48    1
    10     9     8    1
    11     9    12    1
    12     8     3   am
    13    12    13    1
    14    68    67    1
    15    68    71    1
    16    48    51    1
    17    67    57   am
    18     3     2    1
    19     3     4    2
    20     2     5    1
    21    71    72    1
    22    51    52    1
    23   121   120    2
    24    57    56    1
    25    57    58    2
    26   120   119    1
    27    56    59    1
    28   122   119    1
    29   122   123    1
    30    35    36    2
    31    35    34    1
    32   125   123   am
    33   100    99    2
    34    99    98    1
    35    13    14   ar
    36    13    15   ar
    37   106   107    1
    38   119   118    1
    39    52    53    1
    40    52    54    1
    41   123   124    2
    42     5     6    1
    43     5     7    1
    44    72    74   ar
    45    72    73   ar
    46   118   108   am
    47    14    16   ar
    48    59    60    1
    49    74    76   ar
    50    34    37    1
    51    34    33    1
    52    78    79    1
    53    98    97    1
    54    98   101    1
    55   108   107    1
    56   108   109    2
    57    60    62   ar
    58    60    61   ar
    59    15    18   ar
    60    15    17   ar
    61    73    75   ar
    62    37    38    1
    63   107   110    1
    64    62    64   ar
    65    18    20   ar
    66    61    63   ar
    67    16    17   ar
    68   101   102    1
    69    76    77   ar
    70    79    82    1
    71    79    80    1
    72   110   111    1
    73    64    65   ar
    74    63    65   ar
    75    39    38   ar
    76    39    41   ar
    77    38    40   ar
    78    17    19   ar
    79    82    83    1
    80    85    83   ar
    81    65    66    1
    82    75    77   ar
    83    83    84   ar
    84    20    21   ar
    85   103   102    1
    86   103   104    1
    87    81    80    2
    88    41    42   ar
    89    40    43   ar
    90    40    42   ar
    91   111   113   ar
    92   111   112   ar
    93    19    21   ar
    94   113   115   ar
    95    43    45   ar
    96    42    44   ar
    97   105   104    1
    98   112   114   ar
    99    25    24    2
   100    24    23    1
   101    88    89    2
   102    88    87    1
   103   115   116   ar
   104    45    46   ar
   105    44    46   ar
   106    86    87    1
   107   114   116   ar
   108    22    23    1
   109    23    26    1
   110    87    90    1
   111    26    27    1
   112   116   117    1
   113    90    91    1
   114    92    91   ar
   115    92    94   ar
   116    27    29   ar
   117    27    28   ar
   118    29    31   ar
   119    91    93   ar
   120    94    96   ar
   121    28    30   ar
   122    31    32   ar
   123    93    95   ar
   124    96    95   ar
   125    30    32   ar
