@<TRIPOS>MOLECULE
tmp/5aaoE00.pdb
 125 125 0 0 0
SMALL
GASTEIGER

@<TRIPOS>ATOM
      1  N        -57.0310   -1.3620  -46.0600 N.3    78  THR78      -0.1203
      2  CA       -57.6490   -0.2350  -46.7480 C.3    78  THR78       0.1994
      3  C        -59.0980   -0.5300  -47.1200 C.2    78  THR78       0.2617
      4  O        -59.9750    0.3200  -46.9320 O.2    78  THR78      -0.2717
      5  CB       -56.8340    0.1210  -47.9930 C.3    78  THR78       0.1784
      6  OG1      -55.5030    0.4870  -47.6060 O.3    78  THR78      -0.2211
      7  CG2      -57.4740    1.2750  -48.7470 C.3    78  THR78       0.0376
      8  N        -59.3710   -1.7260  -47.6360 N.am   79  TRP79      -0.1975
      9  CA       -60.7130   -2.0990  -48.0650 C.3    79  TRP79       0.1640
     10  C        -61.5230   -2.7960  -46.9780 C.2    79  TRP79       0.2290
     11  O        -62.7000   -3.0950  -47.2030 O.2    79  TRP79      -0.2864
     12  CB       -60.6400   -2.9890  -49.3100 C.3    79  TRP79       0.0576
     13  CG       -60.5420   -2.2030  -50.5810 C.ar   79  TRP79       0.0006
     14  CD1      -61.5680   -1.8620  -51.4130 C.ar   79  TRP79       0.0946
     15  CD2      -59.3550   -1.6460  -51.1570 C.ar   79  TRP79       0.0152
     16  NE1      -61.0930   -1.1320  -52.4750 N.ar   79  TRP79      -0.2442
     17  CE2      -59.7380   -0.9850  -52.3410 C.ar   79  TRP79       0.0810
     18  CE3      -58.0070   -1.6440  -50.7900 C.ar   79  TRP79       0.0012
     19  CZ2      -58.8200   -0.3290  -53.1600 C.ar   79  TRP79       0.0191
     20  CZ3      -57.0980   -0.9910  -51.6010 C.ar   79  TRP79       0.0001
     21  CH2      -57.5080   -0.3440  -52.7740 C.ar   79  TRP79       0.0015
     22  N        -45.1210    6.1300  -48.3540 N.3   101  PHE101     -0.1241
     23  CA       -45.6930    7.2500  -47.6180 C.3   101  PHE101      0.1605
     24  C        -45.4470    7.1550  -46.1190 C.2   101  PHE101      0.2264
     25  O        -45.8810    8.0430  -45.3780 O.2   101  PHE101     -0.2867
     26  CB       -47.2010    7.3450  -47.8770 C.3   101  PHE101      0.0534
     27  CG       -47.5550    7.7400  -49.2820 C.ar  101  PHE101     -0.0203
     28  CD1      -47.5860    9.0740  -49.6540 C.ar  101  PHE101     -0.0042
     29  CD2      -47.8670    6.7780  -50.2270 C.ar  101  PHE101     -0.0042
     30  CE1      -47.9140    9.4400  -50.9450 C.ar  101  PHE101     -0.0003
     31  CE2      -48.1970    7.1370  -51.5200 C.ar  101  PHE101     -0.0003
     32  CZ       -48.2210    8.4700  -51.8800 C.ar  101  PHE101     -0.0000
     33  N        -46.8200    4.8840  -44.2940 N.3   103  TRP103     -0.1241
     34  CA       -48.0420    4.3550  -43.7060 C.3   103  TRP103      0.1605
     35  C        -47.8490    2.9120  -43.2600 C.2   103  TRP103      0.2264
     36  O        -47.4030    2.0640  -44.0390 O.2   103  TRP103     -0.2867
     37  CB       -49.1940    4.4270  -44.7080 C.3   103  TRP103      0.0550
     38  CG       -49.7230    5.8010  -44.9460 C.ar  103  TRP103      0.0003
     39  CD1      -49.7510    6.8380  -44.0610 C.ar  103  TRP103      0.0946
     40  CD2      -50.3010    6.2930  -46.1600 C.ar  103  TRP103      0.0152
     41  NE1      -50.3160    7.9450  -44.6470 N.ar  103  TRP103     -0.2442
     42  CE2      -50.6600    7.6360  -45.9370 C.ar  103  TRP103      0.0810
     43  CE3      -50.5500    5.7270  -47.4140 C.ar  103  TRP103      0.0012
     44  CZ2      -51.2540    8.4220  -46.9200 C.ar  103  TRP103      0.0191
     45  CZ3      -51.1410    6.5080  -48.3890 C.ar  103  TRP103      0.0001
     46  CH2      -51.4860    7.8410  -48.1370 C.ar  103  TRP103      0.0015
     47  N        -53.7020    3.0410  -42.5490 N.3   108  LEU108     -0.1245
     48  CA       -54.7250    2.8920  -43.5780 C.3   108  LEU108      0.1561
     49  C        -56.0440    2.4090  -42.9850 C.2   108  LEU108      0.2260
     50  O        -57.1180    2.8670  -43.3920 O.2   108  LEU108     -0.2867
     51  CB       -54.2340    1.9360  -44.6640 C.3   108  LEU108      0.0270
     52  CG       -52.9550    2.3760  -45.3800 C.3   108  LEU108      0.0019
     53  CD1      -52.4420    1.2880  -46.3100 C.3   108  LEU108      0.0001
     54  CD2      -53.1920    3.6690  -46.1460 C.3   108  LEU108      0.0001
     55  N        -57.5940    5.4720  -41.3030 N.3   111  TYR111     -0.1227
     56  CA       -58.1200    6.4690  -42.2320 C.3   111  TYR111      0.1736
     57  C        -59.5110    6.0880  -42.7230 C.2   111  TYR111      0.2595
     58  O        -60.4170    6.9300  -42.7610 O.2   111  TYR111     -0.2718
     59  CB       -57.1700    6.6500  -43.4180 C.3   111  TYR111      0.0548
     60  CG       -56.1290    7.7340  -43.2300 C.ar  111  TYR111     -0.0200
     61  CD1      -56.5030    9.0540  -43.0120 C.ar  111  TYR111     -0.0009
     62  CD2      -54.7720    7.4400  -43.2920 C.ar  111  TYR111     -0.0009
     63  CE1      -55.5550   10.0480  -42.8450 C.ar  111  TYR111      0.0417
     64  CE2      -53.8180    8.4260  -43.1290 C.ar  111  TYR111      0.0417
     65  CZ       -54.2140    9.7290  -42.9040 C.ar  111  TYR111      0.1957
     66  OH       -53.2660   10.7150  -42.7400 O.3   111  TYR111     -0.2866
     67  N        -59.7020    4.8240  -43.0950 N.am  112  PHE112     -0.1976
     68  CA       -60.9590    4.3550  -43.6600 C.3   112  PHE112      0.1639
     69  C        -61.9090    3.7840  -42.6140 C.2   112  PHE112      0.2290
     70  O        -62.8990    3.1410  -42.9810 O.2   112  PHE112     -0.2864
     71  CB       -60.6850    3.3130  -44.7470 C.3   112  PHE112      0.0560
     72  CG       -59.9970    3.8740  -45.9560 C.ar  112  PHE112     -0.0200
     73  CD1      -60.7330    4.4150  -46.9960 C.ar  112  PHE112     -0.0042
     74  CD2      -58.6150    3.8690  -46.0510 C.ar  112  PHE112     -0.0042
     75  CE1      -60.1070    4.9370  -48.1100 C.ar  112  PHE112     -0.0003
     76  CE2      -57.9820    4.3900  -47.1620 C.ar  112  PHE112     -0.0003
     77  CZ       -58.7290    4.9240  -48.1940 C.ar  112  PHE112     -0.0000
     78  N        -45.9890    8.7040  -40.0020 N.3   132  ASP132     -0.1239
     79  CA       -45.6910    8.6290  -41.4250 C.3   132  ASP132      0.1674
     80  C        -44.7800    9.7980  -41.8000 C.2   132  ASP132      0.2266
     81  O        -44.2940   10.5380  -40.9410 O.2   132  ASP132     -0.2867
     82  CB       -46.9830    8.5990  -42.2420 C.3   132  ASP132      0.1410
     83  CG       -47.9580    9.6980  -41.8510 C.2   132  ASP132      0.3668
     84  OD1      -47.5130   10.8240  -41.5460 O.co2 132  ASP132     -0.2456
     85  OD2      -49.1780    9.4340  -41.8540 O.co2 132  ASP132     -0.2456
     86  N        -45.5530   12.5080  -42.9390 N.3   134  PHE134     -0.1241
     87  CA       -46.2340   13.7690  -42.6930 C.3   134  PHE134      0.1605
     88  C        -46.4460   14.0200  -41.2060 C.2   134  PHE134      0.2264
     89  O        -47.2330   14.8990  -40.8390 O.2   134  PHE134     -0.2867
     90  CB       -47.5680   13.7970  -43.4420 C.3   134  PHE134      0.0534
     91  CG       -47.4330   13.5590  -44.9200 C.ar  134  PHE134     -0.0203
     92  CD1      -47.4510   12.2720  -45.4360 C.ar  134  PHE134     -0.0042
     93  CD2      -47.2800   14.6230  -45.7940 C.ar  134  PHE134     -0.0042
     94  CE1      -47.3210   12.0510  -46.7940 C.ar  134  PHE134     -0.0003
     95  CE2      -47.1510   14.4080  -47.1540 C.ar  134  PHE134     -0.0003
     96  CZ       -47.1700   13.1210  -47.6540 C.ar  134  PHE134     -0.0000
     97  N        -47.9160   12.1230  -38.9500 N.3   136  LYS136     -0.1245
     98  CA       -49.2550   11.7440  -38.5290 C.3   136  LYS136      0.1561
     99  C        -49.2430   10.3750  -37.8640 C.2   136  LYS136      0.2260
    100  O        -48.6150    9.4350  -38.3610 O.2   136  LYS136     -0.2867
    101  CB       -50.2180   11.7350  -39.7180 C.3   136  LYS136      0.0271
    102  CG       -50.3090   13.0670  -40.4340 C.3   136  LYS136      0.0035
    103  CD       -50.6740   14.1780  -39.4650 C.3   136  LYS136      0.0206
    104  CE       -50.5330   15.5420  -40.1120 C.3   136  LYS136      0.1093
    105  NZ       -50.9220   16.6420  -39.1870 N.3   136  LYS136     -0.1314
    106  N        -58.4620   14.1760  -37.1230 N.3   144  TYR144     -0.1227
    107  CA       -58.7760   14.6880  -38.4540 C.3   144  TYR144      0.1736
    108  C        -60.0990   14.1260  -38.9630 C.2   144  TYR144      0.2595
    109  O        -60.9610   14.8740  -39.4370 O.2   144  TYR144     -0.2718
    110  CB       -57.6350   14.3640  -39.4200 C.3   144  TYR144      0.0548
    111  CG       -57.8190   14.9210  -40.8150 C.ar  144  TYR144     -0.0200
    112  CD1      -57.7420   16.2870  -41.0560 C.ar  144  TYR144     -0.0009
    113  CD2      -58.0540   14.0780  -41.8940 C.ar  144  TYR144     -0.0009
    114  CE1      -57.9050   16.7970  -42.3320 C.ar  144  TYR144      0.0417
    115  CE2      -58.2170   14.5800  -43.1720 C.ar  144  TYR144      0.0417
    116  CZ       -58.1410   15.9390  -43.3850 C.ar  144  TYR144      0.1957
    117  OH       -58.3040   16.4390  -44.6570 O.3   144  TYR144     -0.2866
    118  N        -60.2860   12.8090  -38.8630 N.am  145  ASN145     -0.1974
    119  CA       -61.5290   12.1890  -39.3060 C.3   145  ASN145      0.1688
    120  C        -62.6880   12.4190  -38.3470 C.2   145  ASN145      0.2292
    121  O        -63.8300   12.1060  -38.7010 O.2   145  ASN145     -0.2864
    122  CB       -61.3330   10.6830  -39.4990 C.3   145  ASN145      0.1181
    123  CG       -60.5590   10.3530  -40.7550 C.2   145  ASN145      0.2629
    124  OD1      -59.9140   11.2180  -41.3450 O.2   145  ASN145     -0.2716
    125  ND2      -60.6200    9.0930  -41.1730 N.am  145  ASN145     -0.0877
@<TRIPOS>BOND
     1    19    21   ar
     2    19    17   ar
     3    21    20   ar
     4    16    17   ar
     5    16    14   ar
     6    17    15   ar
     7    32    31   ar
     8    32    30   ar
     9    20    18   ar
    10    31    29   ar
    11    14    13   ar
    12    15    18   ar
    13    15    13   ar
    14    30    28   ar
    15    13    12    1
    16    29    27   ar
    17    28    27   ar
    18    12     9    1
    19    27    26    1
    20     7     5    1
    21    45    46   ar
    22    45    43   ar
    23    22    23    1
    24    77    75   ar
    25    77    76   ar
    26    46    44   ar
    27    75    73   ar
    28     9     8    1
    29     9    10    1
    30     5     6    1
    31     5     2    1
    32    26    23    1
    33    96    95   ar
    34    96    94   ar
    35     8     3   am
    36    23    24    1
    37    43    40   ar
    38    11    10    2
    39    76    74   ar
    40    95    93   ar
    41     3     4    2
    42     3     2    1
    43    73    72   ar
    44    44    42   ar
    45    94    92   ar
    46     2     1    1
    47    53    52    1
    48    40    42   ar
    49    40    38   ar
    50    54    52    1
    51    24    25    2
    52    74    72   ar
    53    72    71    1
    54    42    41   ar
    55    93    91   ar
    56    92    91   ar
    57    52    51    1
    58    38    37    1
    59    38    39   ar
    60    91    90    1
    61    71    68    1
    62    37    34    1
    63    51    48    1
    64   117   116    1
    65    41    39   ar
    66    33    34    1
    67    36    35    2
    68    34    35    1
    69    68    67    1
    70    68    69    1
    71    48    49    1
    72    48    47    1
    73    90    87    1
    74    59    60    1
    75    59    56    1
    76    50    49    2
    77   116   115   ar
    78   116   114   ar
    79    62    60   ar
    80    62    64   ar
    81    60    61   ar
    82   115   113   ar
    83    64    65   ar
    84    67    57   am
    85    61    63   ar
    86    70    69    2
    87    86    87    1
    88    65    63   ar
    89    65    66    1
    90    58    57    2
    91    57    56    1
    92    87    88    1
    93   114   112   ar
    94    82    83    1
    95    82    79    1
    96    56    55    1
    97   113   111   ar
    98    85    83   ar
    99    83    84   ar
   100    80    79    1
   101    80    81    2
   102    79    78    1
   103   124   123    2
   104    88    89    2
   105   125   123   am
   106   112   111   ar
   107   111   110    1
   108   123   122    1
   109   102   101    1
   110   102   103    1
   111   104   103    1
   112   104   105    1
   113   101    98    1
   114   122   119    1
   115   109   108    2
   116   110   107    1
   117   119   118    1
   118   119   120    1
   119   108   118   am
   120   108   107    1
   121    97    98    1
   122   121   120    2
   123    98    99    1
   124   107   106    1
   125   100    99    2
