@<TRIPOS>MOLECULE
tmp/5aapA00.pdb
 123 117 0 0 0
SMALL
GASTEIGER

@<TRIPOS>ATOM
      1  N         12.5330    0.9510    8.6550 N.3     1  PHE1       -0.1241
      2  CA        12.6520    1.1110    7.1810 C.3     1  PHE1        0.1605
      3  C         11.6750    0.1720    6.5030 C.2     1  PHE1        0.2264
      4  O         11.6750   -1.0360    6.7710 O.2     1  PHE1       -0.2867
      5  CB        14.0700    0.8000    6.6880 C.3     1  PHE1        0.0534
      6  CG        14.2340    0.9730    5.2100 C.ar    1  PHE1       -0.0203
      7  CD1       14.6190    2.1900    4.6840 C.ar    1  PHE1       -0.0042
      8  CD2       14.0030   -0.0910    4.3430 C.ar    1  PHE1       -0.0042
      9  CE1       14.7560    2.3490    3.3180 C.ar    1  PHE1       -0.0003
     10  CE2       14.1270    0.0730    2.9990 C.ar    1  PHE1       -0.0003
     11  CZ        14.5200    1.2800    2.4890 C.ar    1  PHE1       -0.0000
     12  N          9.1160   -3.6370    7.5300 N.3    13  ILE13      -0.1231
     13  CA        10.3590   -3.8280    8.2440 C.3    13  ILE13       0.1692
     14  C         10.7940   -5.2710    8.1370 C.2    13  ILE13       0.2592
     15  O         10.0040   -6.1900    8.3580 O.2    13  ILE13      -0.2718
     16  CB        10.1730   -3.4250    9.7240 C.3    13  ILE13       0.0266
     17  CG1       10.0600   -1.9020    9.8390 C.3    13  ILE13       0.0019
     18  CG2       11.2980   -3.9770   10.5890 C.3    13  ILE13       0.0020
     19  CD1        9.6150   -1.4150   11.1810 C.3    13  ILE13       0.0001
     20  N         12.0570   -5.4660    7.7870 N.am   14  GLY14      -0.1957
     21  CA        12.6240   -6.7980    7.6420 C.3    14  GLY14       0.1869
     22  C         12.7000   -7.3010    6.2080 C.2    14  GLY14       0.2309
     23  O         13.2990   -8.3430    5.9350 O.2    14  GLY14      -0.2863
     24  N         12.5050    5.8900    6.3280 N.3    46  ASN46      -0.1225
     25  CA        13.2290    5.5380    7.5400 C.3    46  ASN46       0.1785
     26  C         12.2600    5.6960    8.7120 C.2    46  ASN46       0.2597
     27  O         11.5960    6.7300    8.8310 O.2    46  ASN46      -0.2718
     28  CB        14.4100    6.5050    7.6440 C.3    46  ASN46       0.1169
     29  CG        15.2570    6.3690    8.9000 C.2    46  ASN46       0.2627
     30  OD1       14.8110    5.9630    9.9710 O.2    46  ASN46      -0.2716
     31  ND2       16.5010    6.7710    8.7580 N.am   46  ASN46      -0.0877
     32  N         12.1390    4.6740    9.5580 N.am   47  ASP47      -0.1960
     33  CA        11.2100    4.6930   10.6980 C.3    47  ASP47       0.1840
     34  C         11.7470    5.2990   12.0010 C.2    47  ASP47       0.2622
     35  O         10.9930    5.4000   12.9760 O.2    47  ASP47      -0.2715
     36  CB        10.7290    3.2650   10.9910 C.3    47  ASP47       0.1450
     37  CG         9.7100    2.7870    9.9940 C.2    47  ASP47       0.3671
     38  OD1        8.6370    3.4270    9.9080 O.co2  47  ASP47      -0.2456
     39  OD2        9.9580    1.7680    9.3180 O.co2  47  ASP47      -0.2456
     40  N         13.0170    5.6940   12.0340 N.am   48  TYR48      -0.1974
     41  CA        13.6270    6.2120   13.2700 C.3    48  TYR48       0.1639
     42  C         14.7670    7.1800   12.9520 C.2    48  TYR48       0.2290
     43  O         15.8860    7.0040   13.4270 O.2    48  TYR48      -0.2864
     44  CB        14.1240    5.0290   14.0960 C.3    48  TYR48       0.0560
     45  CG        14.4610    5.2490   15.5610 C.ar   48  TYR48      -0.0198
     46  CD1       14.0870    6.4060   16.2460 C.ar   48  TYR48      -0.0009
     47  CD2       15.1230    4.2560   16.2670 C.ar   48  TYR48      -0.0009
     48  CE1       14.3790    6.5710   17.5970 C.ar   48  TYR48       0.0417
     49  CE2       15.4180    4.4070   17.6030 C.ar   48  TYR48       0.0417
     50  CZ        15.0570    5.5640   18.2620 C.ar   48  TYR48       0.1957
     51  OH        15.3700    5.6860   19.6070 O.3    48  TYR48      -0.2866
     52  N         18.7180    6.8050   13.7270 N.3    52  ILE52      -0.1245
     53  CA        19.2490    5.8710   12.7470 C.3    52  ILE52       0.1561
     54  C         19.2200    6.4870   11.3550 C.2    52  ILE52       0.2260
     55  O         18.2580    7.1710   10.9970 O.2    52  ILE52      -0.2867
     56  CB        18.4060    4.5700   12.7220 C.3    52  ILE52       0.0252
     57  CG1       18.3370    3.9560   14.1250 C.3    52  ILE52       0.0019
     58  CG2       18.9640    3.5760   11.6820 C.3    52  ILE52       0.0019
     59  CD1       17.6210    2.6190   14.2030 C.3    52  ILE52       0.0001
     60  N         19.4560    5.0640    7.4100 N.3    54  ASP54      -0.1239
     61  CA        19.3880    3.8770    6.5660 C.3    54  ASP54       0.1674
     62  C         20.1750    4.0900    5.2940 C.2    54  ASP54       0.2266
     63  O         20.2410    5.2050    4.7670 O.2    54  ASP54      -0.2867
     64  CB        17.9350    3.5900    6.2310 C.3    54  ASP54       0.1410
     65  CG        17.1550    3.1430    7.4290 C.2    54  ASP54       0.3668
     66  OD1       17.6940    2.3130    8.1950 O.co2  54  ASP54      -0.2456
     67  OD2       16.0150    3.5800    7.6140 O.co2  54  ASP54      -0.2456
     68  N         18.8820   -2.9130    2.2400 N.3   133  GLN133     -0.1245
     69  CA        18.8610   -1.8730    3.2480 C.3   133  GLN133      0.1566
     70  C         19.7120   -2.2840    4.4360 C.2   133  GLN133      0.2260
     71  O         19.5260   -3.3650    5.0030 O.2   133  GLN133     -0.2867
     72  CB        17.4330   -1.6110    3.7140 C.3   133  GLN133      0.0367
     73  CG        17.3450   -0.6570    4.9150 C.3   133  GLN133      0.0905
     74  CD        16.8930   -1.3480    6.1750 C.2   133  GLN133      0.2608
     75  OE1       16.0790   -2.2820    6.1390 O.2   133  GLN133     -0.2717
     76  NE2       17.3780   -0.8640    7.3150 N.am  133  GLN133     -0.0878
     77  N         22.0120   -0.0150    7.8640 N.3   135  ASN135     -0.1240
     78  CA        21.9040    1.2310    8.6160 C.3   135  ASN135      0.1653
     79  C         23.2070    1.5370    9.3360 C.2   135  ASN135      0.2266
     80  O         24.1800    0.8070    9.1960 O.2   135  ASN135     -0.2867
     81  CB        20.6850    1.2050    9.5580 C.3   135  ASN135      0.1155
     82  CG        20.8370    0.2020   10.6810 C.2   135  ASN135      0.2627
     83  OD1       21.9470    0.0100   11.1990 O.2   135  ASN135     -0.2716
     84  ND2       19.7380   -0.4190   11.0860 N.am  135  ASN135     -0.0877
     85  N         23.3940    1.9340   12.6410 N.3   137  TYR137     -0.1227
     86  CA        23.0050    1.7390   14.0280 C.3   137  TYR137      0.1736
     87  C         23.3340    0.3400   14.5270 C.2   137  TYR137      0.2595
     88  O         23.9220    0.1860   15.6030 O.2   137  TYR137     -0.2718
     89  CB        21.5060    1.9970   14.1520 C.3   137  TYR137      0.0548
     90  CG        20.9310    1.7530   15.5190 C.ar  137  TYR137     -0.0200
     91  CD1       21.0940    2.6660   16.5490 C.ar  137  TYR137     -0.0009
     92  CD2       20.1890    0.6140   15.7730 C.ar  137  TYR137     -0.0009
     93  CE1       20.5550    2.4160   17.8040 C.ar  137  TYR137      0.0417
     94  CE2       19.6450    0.3610   17.0210 C.ar  137  TYR137      0.0417
     95  CZ        19.8260    1.2650   18.0150 C.ar  137  TYR137      0.1957
     96  OH        19.2610    0.9860   19.2430 O.3   137  TYR137     -0.2866
     97  N         22.9720   -0.6790   13.7510 N.am  138  ASN138     -0.1974
     98  CA        23.2180   -2.0640   14.1370 C.3   138  ASN138      0.1688
     99  C         23.4900   -2.8690   12.8740 C.2   138  ASN138      0.2292
    100  O         23.9030   -2.3030   11.8750 O.2   138  ASN138     -0.2864
    101  CB        22.0700   -2.6240   14.9840 C.3   138  ASN138      0.1181
    102  CG        20.7250   -2.6250   14.2680 C.2   138  ASN138      0.2629
    103  OD1       20.6360   -2.4880   13.0490 O.2   138  ASN138     -0.2716
    104  ND2       19.6540   -2.7850   15.0430 N.am  138  ASN138     -0.0877
    105  N         21.3290   -4.7020   11.0030 N.3   140  ASP140     -0.1239
    106  CA        20.1910   -5.0220   10.1380 C.3   140  ASP140      0.1674
    107  C         20.6110   -4.9660    8.6770 C.2   140  ASP140      0.2266
    108  O         21.2450   -4.0170    8.2380 O.2   140  ASP140     -0.2867
    109  CB        19.0220   -4.0580   10.3350 C.3   140  ASP140      0.1410
    110  CG        18.2240   -4.3300   11.5950 C.2   140  ASP140      0.3668
    111  OD1       18.5670   -5.2410   12.3810 O.co2 140  ASP140     -0.2456
    112  OD2       17.2270   -3.6210   11.8320 O.co2 140  ASP140     -0.2456
    113  N         18.6600   -6.1480    5.1770 N.3   142  PHE142     -0.1241
    114  CA        17.3940   -6.6720    4.6780 C.3   142  PHE142      0.1605
    115  C         17.2430   -6.4730    3.1820 C.2   142  PHE142      0.2264
    116  O         17.7370   -5.4980    2.6220 O.2   142  PHE142     -0.2867
    117  CB        16.2290   -6.0140    5.4110 C.3   142  PHE142      0.0534
    118  CG        16.1850   -6.3290    6.8890 C.ar  142  PHE142     -0.0203
    119  CD1       16.2580   -7.6480    7.3630 C.ar  142  PHE142     -0.0042
    120  CD2       16.0500   -5.3170    7.8160 C.ar  142  PHE142     -0.0042
    121  CE1       16.2010   -7.9180    8.7250 C.ar  142  PHE142     -0.0003
    122  CE2       15.9950   -5.5960    9.1790 C.ar  142  PHE142     -0.0003
    123  CZ        16.0820   -6.8930    9.6230 C.ar  142  PHE142     -0.0000
@<TRIPOS>BOND
     1    68    69    1
     2    11    10   ar
     3    11     9   ar
     4   116   115    2
     5    10     8   ar
     6   115   114    1
     7    69    72    1
     8    69    70    1
     9     9     7   ar
    10    72    73    1
    11     8     6   ar
    12    70    71    2
    13   114   113    1
    14   114   117    1
    15     7     6   ar
    16    63    62    2
    17    73    74    1
    18     6     5    1
    19    62    61    1
    20   117   118    1
    21    23    22    2
    22    75    74    2
    23    74    76   am
    24    22    21    1
    25    64    61    1
    26    64    65    1
    27    24    25    1
    28     3     4    2
    29     3     2    1
    30    61    60    1
    31     5     2    1
    32   118   119   ar
    33   118   120   ar
    34     2     1    1
    35   119   121   ar
    36    65    67   ar
    37    65    66   ar
    38    12    13    1
    39    25    28    1
    40    25    26    1
    41    21    20    1
    42    28    29    1
    43    20    14   am
    44   120   122   ar
    45    77    78    1
    46    14    13    1
    47    14    15    2
    48   108   107    2
    49    13    16    1
    50    78    79    1
    51    78    81    1
    52   107   106    1
    53    26    27    2
    54    26    32   am
    55   121   123   ar
    56    31    29   am
    57    29    30    2
    58   122   123   ar
    59    80    79    2
    60    39    37   ar
    61    81    82    1
    62    32    33    1
    63    16    17    1
    64    16    18    1
    65    17    19    1
    66    38    37   ar
    67    37    36    1
    68   106   109    1
    69   106   105    1
    70   109   110    1
    71    82    84   am
    72    82    83    2
    73    33    36    1
    74    33    34    1
    75    55    54    2
    76    54    53    1
    77   110   112   ar
    78   110   111   ar
    79    58    56    1
    80   100    99    2
    81    34    40   am
    82    34    35    2
    83    40    41    1
    84    85    86    1
    85    56    53    1
    86    56    57    1
    87    53    52    1
    88    99    98    1
    89    42    41    1
    90    42    43    2
    91   103   102    2
    92    41    44    1
    93    97    98    1
    94    97    87   am
    95    86    89    1
    96    86    87    1
    97    44    45    1
    98    57    59    1
    99    98   101    1
   100    89    90    1
   101   102   101    1
   102   102   104   am
   103    87    88    2
   104    90    92   ar
   105    90    91   ar
   106    45    46   ar
   107    45    47   ar
   108    92    94   ar
   109    46    48   ar
   110    47    49   ar
   111    91    93   ar
   112    94    95   ar
   113    48    50   ar
   114    49    50   ar
   115    93    95   ar
   116    95    96    1
   117    50    51    1
