@<TRIPOS>MOLECULE
tmp/5aauB00.pdb
 199 190 0 0 0
SMALL
GASTEIGER

@<TRIPOS>ATOM
      1  N        -17.1100   -8.7160   17.0020 N.3    30  MET30      -0.1245
      2  CA       -16.3080   -8.0700   15.9510 C.3    30  MET30       0.1570
      3  C        -16.9550   -6.8920   15.2290 C.2    30  MET30       0.2261
      4  O        -16.3120   -5.8460   14.9990 O.2    30  MET30      -0.2867
      5  CB       -15.8280   -9.0810   14.9130 C.3    30  MET30       0.0387
      6  CG       -14.5300   -9.8040   15.2840 C.3    30  MET30       0.0595
      7  SD       -13.0880   -8.8360   15.9080 S.3    30  MET30      -0.1393
      8  CE       -12.7100   -7.8270   14.5120 C.3    30  MET30       0.0692
      9  N        -17.1180   -4.0830   17.6240 N.3    33  LEU33      -0.1231
     10  CA       -15.8010   -3.5320   17.8670 C.3    33  LEU33       0.1693
     11  C        -15.2500   -2.7900   16.6380 C.2    33  LEU33       0.2592
     12  O        -14.5680   -1.7310   16.7680 O.2    33  LEU33      -0.2718
     13  CB       -14.8380   -4.6170   18.2560 C.3    33  LEU33       0.0284
     14  CG       -15.1340   -5.2400   19.6390 C.3    33  LEU33       0.0019
     15  CD1      -14.2130   -6.3920   19.9160 C.3    33  LEU33       0.0001
     16  CD2      -15.0030   -4.2290   20.7290 C.3    33  LEU33       0.0001
     17  N        -15.5430   -3.3300   15.4530 N.am   34  THR34      -0.1953
     18  CA       -15.1870   -2.6470   14.1630 C.3    34  THR34       0.1897
     19  C        -15.8930   -1.3210   13.9750 C.2    34  THR34       0.2313
     20  O        -15.2580   -0.2950   13.6950 O.2    34  THR34      -0.2863
     21  CB       -15.3910   -3.6190   13.0100 C.3    34  THR34       0.1794
     22  OG1      -14.6000   -4.7800   13.2850 O.3    34  THR34      -0.2208
     23  CG2      -14.9570   -3.0310   11.6710 C.3    34  THR34       0.0378
     24  N        -17.3560    0.4920   16.2350 N.3    36  LEU36      -0.1231
     25  CA       -16.9590    1.4480   17.2220 C.3    36  LEU36       0.1693
     26  C        -15.6070    2.0740   16.8090 C.2    36  LEU36       0.2592
     27  O        -15.4900    3.2590   16.8280 O.2    36  LEU36      -0.2718
     28  CB       -16.9320    0.8270   18.6240 C.3    36  LEU36       0.0284
     29  CG       -16.3240    1.6960   19.7690 C.3    36  LEU36       0.0019
     30  CD1      -17.2210    2.9120   19.9460 C.3    36  LEU36       0.0001
     31  CD2      -16.2100    0.9860   21.0840 C.3    36  LEU36       0.0001
     32  N        -14.6190    1.2700   16.4570 N.am   37  ALA37      -0.1966
     33  CA       -13.3420    1.7110   15.9150 C.3    37  ALA37       0.1728
     34  C        -13.4840    2.7350   14.7320 C.2    37  ALA37       0.2616
     35  O        -12.9220    3.7940   14.7550 O.2    37  ALA37      -0.2715
     36  CB       -12.5390    0.4820   15.4620 C.3    37  ALA37       0.0334
     37  N        -14.3210    2.3990   13.7800 N.am   38  ASP38      -0.1971
     38  CA       -14.6290    3.2880   12.5790 C.3    38  ASP38       0.1709
     39  C        -15.1870    4.6490   13.0500 C.2    38  ASP38       0.2293
     40  O        -14.8030    5.6680   12.5900 O.2    38  ASP38      -0.2864
     41  CB       -15.7730    2.7250   11.8030 C.3    38  ASP38       0.1436
     42  CG       -15.4680    1.4800   10.9830 C.2    38  ASP38       0.3671
     43  OD1      -14.3070    1.0890   10.8270 O.co2  38  ASP38      -0.2456
     44  OD2      -16.4540    0.8820   10.4900 O.co2  38  ASP38      -0.2456
     45  N        -14.7800    5.9210   16.1030 N.3    40  GLU40      -0.1245
     46  CA       -13.7320    6.5920   16.8460 C.3    40  GLU40       0.1567
     47  C        -12.7860    7.3010   15.8940 C.2    40  GLU40       0.2260
     48  O        -12.1920    8.3210   16.2080 O.2    40  GLU40      -0.2867
     49  CB       -12.9490    5.5830   17.6890 C.3    40  GLU40       0.0388
     50  CG       -13.7830    4.9200   18.7690 C.3    40  GLU40       0.1160
     51  CD       -13.8190    5.7920   19.9730 C.2    40  GLU40       0.3649
     52  OE1      -13.7440    7.0090   19.7190 O.co2  40  GLU40      -0.2457
     53  OE2      -13.8380    5.2740   21.1220 O.co2  40  GLU40      -0.2457
     54  N         -2.6810    4.7730   14.5370 N.3    70  TRP70      -0.1227
     55  CA        -4.1770    4.7210   14.7930 C.3    70  TRP70       0.1737
     56  C         -4.5690    3.6220   15.8140 C.2    70  TRP70       0.2595
     57  O         -5.2790    3.9150   16.7470 O.2    70  TRP70      -0.2718
     58  CB        -5.0610    4.7030   13.4810 C.3    70  TRP70       0.0564
     59  CG        -5.0420    3.4870   12.8280 C.ar   70  TRP70       0.0003
     60  CD1       -4.1360    3.1230   11.9070 C.ar   70  TRP70       0.0946
     61  CD2       -5.9140    2.3330   13.0570 C.ar   70  TRP70       0.0152
     62  NE1       -4.3020    1.7340   11.5920 N.ar   70  TRP70      -0.2442
     63  CE2       -5.4080    1.2530   12.2700 C.ar   70  TRP70       0.0810
     64  CE3       -7.0170    2.1000   13.8650 C.ar   70  TRP70       0.0012
     65  CZ2       -6.0130   -0.0080   12.2430 C.ar   70  TRP70       0.0191
     66  CZ3       -7.6320    0.8880   13.8120 C.ar   70  TRP70       0.0001
     67  CH2       -7.1340   -0.1740   12.9850 C.ar   70  TRP70       0.0015
     68  N         -4.0940    2.3790   15.6360 N.am   71  LEU71      -0.1980
     69  CA        -4.4520    1.3100   16.5250 C.3    71  LEU71       0.1596
     70  C         -3.8750    1.4900   17.9690 C.2    71  LEU71       0.2287
     71  O         -4.6190    1.2950   18.9390 O.2    71  LEU71      -0.2864
     72  CB        -4.1630   -0.0550   15.9490 C.3    71  LEU71       0.0297
     73  CG        -4.6950   -1.2280   16.7900 C.3    71  LEU71       0.0022
     74  CD1       -6.2430   -1.0760   16.9870 C.3    71  LEU71       0.0001
     75  CD2       -4.4090   -2.5210   16.1300 C.3    71  LEU71       0.0001
     76  N         -6.4020    4.0270   19.6040 N.3    74  LEU74      -0.1231
     77  CA        -7.5700    3.4160   20.0840 C.3    74  LEU74       0.1693
     78  C         -7.2350    2.6260   21.3310 C.2    74  LEU74       0.2588
     79  O         -7.9960    2.6720   22.2840 O.2    74  LEU74      -0.2718
     80  CB        -8.1330    2.4750   19.0780 C.3    74  LEU74       0.0284
     81  CG        -8.6490    2.9850   17.7280 C.3    74  LEU74       0.0019
     82  CD1       -9.0640    1.8230   16.8960 C.3    74  LEU74       0.0001
     83  CD2       -9.8490    3.8920   17.9450 C.3    74  LEU74       0.0001
     84  N         -6.1240    1.8280   21.3230 N.am   75  MET75      -0.2033
     85  CA        -5.8670    0.9720   22.4020 C.3    75  MET75       0.1291
     86  C         -5.5490    1.7120   23.6820 C.3    75  MET75       0.2036
     87  O         -6.0760    1.3150   24.8520 O.3    75  MET75      -0.2185
     88  CB        -4.7190    0.0030   22.0240 C.3    75  MET75       0.0360
     89  CG        -5.2060   -1.1490   21.1700 C.3    75  MET75       0.0594
     90  SD        -3.7840   -2.1920   20.6630 S.3    75  MET75      -0.1393
     91  CE        -4.6080   -3.5400   19.9390 C.3    75  MET75       0.0692
     92  N         -8.7190    2.9290   25.1420 N.3    78  LEU78      -0.1245
     93  CA        -9.4710    1.8680   25.7220 C.3    78  LEU78       0.1561
     94  C         -8.9010    1.4950   27.1190 C.2    78  LEU78       0.2260
     95  O         -9.6700    1.2830   28.1200 O.2    78  LEU78      -0.2867
     96  CB        -9.4780    0.6910   24.8080 C.3    78  LEU78       0.0270
     97  CG       -10.0260   -0.5760   25.3930 C.3    78  LEU78       0.0019
     98  CD1      -11.5110   -0.3570   25.6090 C.3    78  LEU78       0.0001
     99  CD2       -9.7300   -1.7440   24.5290 C.3    78  LEU78       0.0001
    100  N         -9.7760    4.1200   29.7920 N.3    81  ARG81      -0.1245
    101  CA       -11.1300    4.0280   30.2450 C.3    81  ARG81       0.1563
    102  C        -11.2990    2.8200   31.0840 C.2    81  ARG81       0.2260
    103  O        -12.2500    2.7770   31.8370 O.2    81  ARG81      -0.2867
    104  CB       -12.1130    3.7230   29.1270 C.3    81  ARG81       0.0307
    105  CG       -12.2230    4.6710   28.0540 C.3    81  ARG81       0.0489
    106  CD       -13.4350    4.3740   27.2230 C.3    81  ARG81       0.2205
    107  NE       -13.4350    3.5620   26.0090 N.pl3  81  ARG81      -0.0865
    108  CZ       -12.8700    3.9160   24.8570 C.cat  81  ARG81       0.5346
    109  NH1      -12.1720    5.0140   24.7710 N.pl3  81  ARG81       0.1354
    110  NH2      -13.0730    3.2130   23.7680 N.pl3  81  ARG81       0.1354
    111  N        -14.9800   -0.8460   26.2610 N.3    91  PHE91      -0.1241
    112  CA       -15.0310   -0.3830   24.9220 C.3    91  PHE91       0.1605
    113  C        -16.0300    0.7760   24.8250 C.2    91  PHE91       0.2264
    114  O        -15.7210    1.7910   24.2260 O.2    91  PHE91      -0.2867
    115  CB       -15.4230   -1.4880   23.9630 C.3    91  PHE91       0.0534
    116  CG       -14.3250   -2.4620   23.7060 C.ar   91  PHE91      -0.0203
    117  CD1      -14.1580   -3.5590   24.5450 C.ar   91  PHE91      -0.0042
    118  CD2      -13.4140   -2.2460   22.7090 C.ar   91  PHE91      -0.0042
    119  CE1      -13.0890   -4.4610   24.3530 C.ar   91  PHE91      -0.0003
    120  CE2      -12.3490   -3.1560   22.4950 C.ar   91  PHE91      -0.0003
    121  CZ       -12.2010   -4.2660   23.2970 C.ar   91  PHE91      -0.0000
    122  N         -8.4690  -13.6550   19.9390 N.3   108  MET108     -0.1245
    123  CA        -8.7250  -12.3500   20.4990 C.3   108  MET108      0.1570
    124  C         -8.3250  -12.3100   21.9460 C.2   108  MET108      0.2261
    125  O         -7.9950  -11.2420   22.5170 O.2   108  MET108     -0.2867
    126  CB       -10.1890  -12.0120   20.3100 C.3   108  MET108      0.0387
    127  CG       -10.6340  -10.6700   20.8370 C.3   108  MET108      0.0595
    128  SD        -9.8620   -9.2800   19.9710 S.3   108  MET108     -0.1393
    129  CE       -11.0430   -9.1650   18.6750 C.3   108  MET108      0.0692
    130  N         -4.9800  -10.8010   22.9460 N.3   111  ILE111     -0.1231
    131  CA        -4.8640   -9.3270   22.8110 C.3   111  ILE111      0.1692
    132  C         -5.6250   -8.6900   23.9410 C.2   111  ILE111      0.2592
    133  O         -5.2010   -7.7210   24.5550 O.2   111  ILE111     -0.2718
    134  CB        -5.3600   -8.9370   21.3900 C.3   111  ILE111      0.0266
    135  CG1       -4.2430   -9.3290   20.3660 C.3   111  ILE111      0.0019
    136  CG2       -5.7100   -7.4350   21.2050 C.3   111  ILE111      0.0020
    137  CD1       -4.8760  -10.0630   19.2150 C.3   111  ILE111      0.0001
    138  N         -6.7580   -9.3110   24.2740 N.am  112  PHE112     -0.1976
    139  CA        -7.5160   -8.9350   25.4400 C.3   112  PHE112      0.1639
    140  C         -6.6910   -8.9890   26.7370 C.2   112  PHE112      0.2290
    141  O         -6.7470   -8.0630   27.5770 O.2   112  PHE112     -0.2864
    142  CB        -8.8240   -9.8140   25.5310 C.3   112  PHE112      0.0560
    143  CG       -10.0780   -9.1650   24.9190 C.ar  112  PHE112     -0.0200
    144  CD1      -10.0390   -8.5080   23.6720 C.ar  112  PHE112     -0.0042
    145  CD2      -11.3220   -9.1810   25.6510 C.ar  112  PHE112     -0.0042
    146  CE1      -11.2220   -7.9370   23.1040 C.ar  112  PHE112     -0.0003
    147  CE2      -12.4940   -8.6050   25.1180 C.ar  112  PHE112     -0.0003
    148  CZ       -12.4570   -7.9970   23.8230 C.ar  112  PHE112     -0.0000
    149  N         -4.2230   -6.1770   26.8410 N.3   115  LEU115     -0.1245
    150  CA        -4.8530   -4.8800   27.1090 C.3   115  LEU115      0.1561
    151  C         -5.1980   -4.7030   28.6050 C.2   115  LEU115      0.2260
    152  O         -4.9610   -3.6250   29.2210 O.2   115  LEU115     -0.2867
    153  CB        -6.1090   -4.7270   26.2080 C.3   115  LEU115      0.0270
    154  CG        -5.8560   -4.4750   24.7150 C.3   115  LEU115      0.0019
    155  CD1       -7.0970   -4.7920   23.9180 C.3   115  LEU115      0.0001
    156  CD2       -5.3080   -3.1320   24.4110 C.3   115  LEU115      0.0001
    157  N         -2.3190   -6.9010   17.2600 N.3   201  GLY201     -0.1225
    158  CA        -3.6890   -6.6020   16.8330 C.3   201  GLY201      0.1811
    159  C         -3.7590   -6.5030   15.3050 C.2   201  GLY201      0.2280
    160  O         -4.7270   -7.0370   14.7220 O.2   201  GLY201     -0.2866
    161  N         -3.6370   -9.8980   13.8210 N.3   204  HIS204     -0.1226
    162  CA        -4.9100  -10.5790   14.1480 C.3   204  HIS204      0.1752
    163  C         -6.0500  -10.0720   13.2990 C.2   204  HIS204      0.2595
    164  O         -6.8360  -10.8650   12.8590 O.2   204  HIS204     -0.2718
    165  CB        -5.2650  -10.4750   15.6180 C.3   204  HIS204      0.0759
    166  CG        -6.5370  -11.1690   15.9450 C.ar  204  HIS204      0.0818
    167  ND1       -7.7040  -10.5030   16.2280 N.ar  204  HIS204     -0.2268
    168  CD2       -6.8390  -12.4900   16.0010 C.ar  204  HIS204      0.1154
    169  CE1       -8.6910  -11.3750   16.3850 C.ar  204  HIS204      0.1986
    170  NE2       -8.1860  -12.5880   16.2590 N.ar  204  HIS204     -0.2212
    171  N         -6.0900   -8.7670   13.0200 N.am  205  LEU205     -0.1980
    172  CA        -7.1080   -8.1850   12.1220 C.3   205  LEU205      0.1596
    173  C         -6.8300   -8.6210   10.7010 C.2   205  LEU205      0.2287
    174  O         -7.7840   -8.7840    9.9540 O.2   205  LEU205     -0.2864
    175  CB        -7.1300   -6.6750   12.1490 C.3   205  LEU205      0.0297
    176  CG        -7.6190   -5.9980   13.4130 C.3   205  LEU205      0.0022
    177  CD1       -7.3200   -4.5260   13.2760 C.3   205  LEU205      0.0001
    178  CD2       -9.1140   -6.2250   13.7220 C.3   205  LEU205      0.0001
    179  N        -11.5910   -3.8020    6.4080 N.3   209  VAL209     -0.1231
    180  CA       -11.6270   -3.5680    7.8590 C.3   209  VAL209      0.1692
    181  C        -10.6510   -2.4930    8.3160 C.2   209  VAL209      0.2592
    182  O        -11.0530   -1.4750    8.9130 O.2   209  VAL209     -0.2718
    183  CB       -11.2960   -4.8420    8.6520 C.3   209  VAL209      0.0266
    184  CG1      -11.3240   -4.5960   10.1570 C.3   209  VAL209      0.0020
    185  CG2      -12.3430   -5.9090    8.3210 C.3   209  VAL209      0.0020
    186  N         -9.3600   -2.6790    8.0000 N.am  210  VAL210     -0.1966
    187  CA        -8.3300   -1.7240    8.4110 C.3   210  VAL210      0.1712
    188  C         -8.3110   -0.4260    7.5570 C.2   210  VAL210      0.2458
    189  O         -8.3160   -0.5070    6.3920 O.2   210  VAL210     -0.2730
    190  CB        -6.9850   -2.3640    8.3620 C.3   210  VAL210      0.0289
    191  CG1       -5.9130   -1.3110    8.4950 C.3   210  VAL210      0.0023
    192  CG2       -6.8910   -3.4470    9.4320 C.3   210  VAL210      0.0023
    193  N         -8.2560    0.7520    8.1580 N.am  211  PRO211     -0.2727
    194  CA        -8.3250    2.0030    7.4160 C.3   211  PRO211      0.1402
    195  C         -7.1210    2.2100    6.5190 C.2   211  PRO211      0.2269
    196  O         -6.0400    1.9990    6.9850 O.2   211  PRO211     -0.2865
    197  CB        -8.3730    3.0900    8.5110 C.3   211  PRO211      0.0296
    198  CG        -7.8510    2.4520    9.7090 C.3   211  PRO211      0.0237
    199  CD        -8.2070    0.9890    9.6140 C.3   211  PRO211      0.0939
@<TRIPOS>BOND
     1   189   188    2
     2   179   180    1
     3   195   196    2
     4   195   194    1
     5   194   193    1
     6   194   197    1
     7   188   193   am
     8   188   187    1
     9   180   181    1
    10   180   183    1
    11   186   181   am
    12   186   187    1
    13   193   199    1
    14   181   182    2
    15   185   183    1
    16   190   187    1
    17   190   191    1
    18   190   192    1
    19   197   198    1
    20   183   184    1
    21   199   198    1
    22   174   173    2
    23    44    42   ar
    24   173   172    1
    25    43    42   ar
    26    42    41    1
    27    62    60   ar
    28    62    63   ar
    29    23    21    1
    30    41    38    1
    31    60    59   ar
    32   172   175    1
    33   172   171    1
    34   175   176    1
    35    65    63   ar
    36    65    67   ar
    37    63    61   ar
    38    38    39    1
    39    38    37    1
    40    40    39    2
    41    59    61   ar
    42    59    58    1
    43   164   163    2
    44    67    66   ar
    45    21    22    1
    46    21    18    1
    47   171   163   am
    48    61    64   ar
    49   177   176    1
    50   163   162    1
    51   176   178    1
    52    58    55    1
    53    20    19    2
    54    37    34   am
    55    66    64   ar
    56   161   162    1
    57    19    18    1
    58   162   165    1
    59    18    17    1
    60     8     7    1
    61    54    55    1
    62   160   159    2
    63    34    35    2
    64    34    33    1
    65    55    56    1
    66     5     6    1
    67     5     2    1
    68     4     3    2
    69     3     2    1
    70     6     7    1
    71   159   158    1
    72    17    11   am
    73    36    33    1
    74   165   166    1
    75    68    56   am
    76    68    69    1
    77    56    57    2
    78    47    48    2
    79    47    46    1
    80    33    32    1
    81   166   168   ar
    82   166   167   ar
    83    72    69    1
    84    72    73    1
    85     2     1    1
    86   168   170   ar
    87    45    46    1
    88    75    73    1
    89   167   169   ar
    90    24    25    1
    91   170   169   ar
    92    32    26   am
    93    69    70    1
    94    11    12    2
    95    11    10    1
    96    73    74    1
    97    26    27    2
    98    26    25    1
    99   158   157    1
   100    46    49    1
   101    82    81    1
   102    25    28    1
   103     9    10    1
   104    49    50    1
   105    81    83    1
   106    81    80    1
   107    10    13    1
   108    70    71    2
   109    13    14    1
   110    28    29    1
   111   129   128    1
   112    50    51    1
   113    80    77    1
   114   137   135    1
   115    76    77    1
   116    14    15    1
   117    14    16    1
   118    52    51   ar
   119    29    30    1
   120    29    31    1
   121    91    90    1
   122   122   123    1
   123   128   127    1
   124    51    53   ar
   125    77    78    1
   126   126   123    1
   127   126   127    1
   128   135   134    1
   129   123   124    1
   130    90    89    1
   131    89    88    1
   132   136   134    1
   133    84    78   am
   134    84    85    1
   135    78    79    2
   136   134   131    1
   137   124   125    2
   138    88    85    1
   139    85    86    1
   140   120   118   ar
   141   120   121   ar
   142   118   116   ar
   143   131   130    1
   144   131   132    1
   145   146   144   ar
   146   146   148   ar
   147   121   119   ar
   148   144   143   ar
   149    86    87    1
   150   116   115    1
   151   116   117   ar
   152   110   108    1
   153   148   147   ar
   154   155   154    1
   155   132   138   am
   156   132   133    2
   157   115   112    1
   158   114   113    2
   159   138   139    1
   160   119   117   ar
   161   156   154    1
   162    99    97    1
   163   154   153    1
   164   109   108    1
   165    96    97    1
   166    96    93    1
   167   113   112    1
   168   108   107    2
   169   143   142    1
   170   143   145   ar
   171   112   111    1
   172   147   145   ar
   173    92    93    1
   174    97    98    1
   175   139   142    1
   176   139   140    1
   177    93    94    1
   178   107   106    1
   179   153   150    1
   180   140   141    2
   181   149   150    1
   182   150   151    1
   183    94    95    2
   184   106   105    1
   185   105   104    1
   186   151   152    2
   187   104   101    1
   188   100   101    1
   189   101   102    1
   190   102   103    2
