@<TRIPOS>MOLECULE
tmp/5ab0A02.pdb
 88 86 0 0 0
SMALL
GASTEIGER

@<TRIPOS>ATOM
      1  N          3.5280   20.1540   15.8900 N.3    30  HIS30      -0.1227
      2  CA         3.7040   20.5840   17.2810 C.3    30  HIS30       0.1737
      3  C          3.9020   19.3480   18.1540 C.2    30  HIS30       0.2438
      4  O          2.9500   18.8080   18.7060 O.2    30  HIS30      -0.2733
      5  CB         2.4980   21.4190   17.7400 C.3    30  HIS30       0.0758
      6  CG         2.5690   21.8940   19.1650 C.ar   30  HIS30       0.0818
      7  ND1        1.5210   22.5490   19.7830 N.ar   30  HIS30      -0.2268
      8  CD2        3.5530   21.8120   20.0930 C.ar   30  HIS30       0.1154
      9  CE1        1.8580   22.8510   21.0240 C.ar   30  HIS30       0.1986
     10  NE2        3.0850   22.4140   21.2380 N.ar   30  HIS30      -0.2212
     11  N          5.1480   18.8690   18.2510 N.am   31  PRO31      -0.2718
     12  CA         5.3520   17.6820   19.0770 C.3    31  PRO31       0.1535
     13  C          5.6130   18.0490   20.5240 C.2    31  PRO31       0.2599
     14  O          6.1870   19.1120   20.7910 O.2    31  PRO31      -0.2715
     15  CB         6.5770   17.0190   18.4410 C.3    31  PRO31       0.0310
     16  CG         7.3370   18.1340   17.8240 C.3    31  PRO31       0.0237
     17  CD         6.3280   19.1870   17.4230 C.3    31  PRO31       0.0939
     18  N          5.1710   17.1940   21.4440 N.am   32  ASN32      -0.1959
     19  CA         5.5370   17.3430   22.8340 C.3    32  ASN32       0.1819
     20  C          6.3620   16.1380   23.2370 C.2    32  ASN32       0.2621
     21  O          5.9290   15.0000   23.0930 O.2    32  ASN32      -0.2715
     22  CB         4.3080   17.5020   23.7430 C.3    32  ASN32       0.1195
     23  CG         4.6790   18.0450   25.1010 C.2    32  ASN32       0.2630
     24  OD1        5.2600   17.3280   25.9160 O.2    32  ASN32      -0.2716
     25  ND2        4.3650   19.3240   25.3540 N.am   32  ASN32      -0.0877
     26  N          7.5620   16.3890   23.7320 N.am   33  LEU33      -0.1963
     27  CA         8.4860   15.3100   24.0260 C.3    33  LEU33       0.1728
     28  C          8.3920   14.8890   25.4930 C.2    33  LEU33       0.2617
     29  O          9.1890   14.0770   25.9660 O.2    33  LEU33      -0.2715
     30  CB         9.9180   15.7210   23.6620 C.3    33  LEU33       0.0311
     31  CG        10.2910   15.6930   22.1620 C.3    33  LEU33       0.0022
     32  CD1        9.5510   16.7370   21.3770 C.3    33  LEU33       0.0001
     33  CD2       11.7950   15.8460   21.9490 C.3    33  LEU33       0.0001
     34  N          7.4120   15.4350   26.2120 N.am   34  THR34      -0.1937
     35  CA         7.0870   14.9470   27.5470 C.3    34  THR34       0.2028
     36  C          5.9360   13.9550   27.4900 C.2    34  THR34       0.2642
     37  O          5.9930   12.8970   28.1170 O.2    34  THR34      -0.2714
     38  CB         6.7010   16.0780   28.5020 C.3    34  THR34       0.1808
     39  OG1        7.7940   16.9990   28.6360 O.3    34  THR34      -0.2208
     40  CG2        6.3380   15.5040   29.8600 C.3    34  THR34       0.0379
     41  N          4.8970   14.3090   26.7360 N.am   35  SER35      -0.1949
     42  CA         3.7560   13.4280   26.5240 C.3    35  SER35       0.1924
     43  C          3.8930   12.5290   25.3000 C.2    35  SER35       0.2314
     44  O          2.9650   11.7890   24.9700 O.2    35  SER35      -0.2863
     45  CB         2.4810   14.2420   26.3940 C.3    35  SER35       0.2116
     46  OG         2.7120   15.3800   25.5940 O.3    35  SER35      -0.2180
     47  N          8.1110   24.3710   19.6560 N.3   173  ARG173     -0.1231
     48  CA         9.0590   23.6410   20.4800 C.3   173  ARG173      0.1694
     49  C          9.3880   24.3630   21.7600 C.2   173  ARG173      0.2591
     50  O          9.1380   25.5560   21.8880 O.2   173  ARG173     -0.2718
     51  CB        10.3580   23.4100   19.7180 C.3   173  ARG173      0.0321
     52  CG        11.0670   24.7110   19.4320 C.3   173  ARG173      0.0489
     53  CD        12.4980   24.4790   19.0270 C.3   173  ARG173      0.2205
     54  NE        13.0370   25.6760   18.4200 N.pl3 173  ARG173     -0.0865
     55  CZ        13.5200   26.6950   19.1190 C.cat 173  ARG173      0.5346
     56  NH1       13.5260   26.6380   20.4510 N.pl3 173  ARG173      0.1354
     57  NH2       13.9930   27.7620   18.4920 N.pl3 173  ARG173      0.1354
     58  N          9.9750   23.6290   22.6960 N.am  174  GLU174     -0.1979
     59  CA        10.4490   24.2010   23.9400 C.3   174  GLU174      0.1602
     60  C         11.7910   24.8760   23.7260 C.2   174  GLU174      0.2287
     61  O         12.4450   24.6400   22.7240 O.2   174  GLU174     -0.2864
     62  CB        10.5530   23.1280   25.0130 C.3   174  GLU174      0.0415
     63  CG         9.2220   22.7920   25.6330 C.3   174  GLU174      0.1163
     64  CD         9.2850   21.5460   26.4890 C.2   174  GLU174      0.3649
     65  OE1       10.3950   21.2110   26.9680 O.co2 174  GLU174     -0.2457
     66  OE2        8.2310   20.8920   26.6660 O.co2 174  GLU174     -0.2457
     67  N         15.1060   22.8270   23.2840 N.3   177  HIS177     -0.1241
     68  CA        15.3560   22.0750   22.0670 C.3   177  HIS177      0.1621
     69  C         15.6950   23.0070   20.9270 C.2   177  HIS177      0.2264
     70  O         15.3990   24.1930   21.0010 O.2   177  HIS177     -0.2867
     71  CB        14.1410   21.2520   21.6840 C.3   177  HIS177      0.0745
     72  CG        13.7740   20.2050   22.6820 C.ar  177  HIS177      0.0817
     73  ND1       12.4720   19.9710   23.0640 N.ar  177  HIS177     -0.2268
     74  CD2       14.5320   19.3020   23.3470 C.ar  177  HIS177      0.1154
     75  CE1       12.4450   18.9750   23.9320 C.ar  177  HIS177      0.1986
     76  NE2       13.6830   18.5540   24.1240 N.ar  177  HIS177     -0.2212
     77  N          2.7860   31.5400   25.7220 N.3   193  GLY193     -0.1225
     78  CA         3.2120   30.7160   26.8490 C.3   193  GLY193      0.1811
     79  C          4.7110   30.4990   27.0290 C.2   193  GLY193      0.2280
     80  O          5.1410   29.8490   27.9840 O.2   193  GLY193     -0.2866
     81  N          6.6510   29.2320   24.4500 N.3   195  LEU195     -0.1245
     82  CA         7.1300   28.3200   23.4240 C.3   195  LEU195      0.1561
     83  C          7.6910   29.0990   22.2420 C.2   195  LEU195      0.2260
     84  O          7.4090   30.2860   22.0780 O.2   195  LEU195     -0.2867
     85  CB         6.0190   27.3890   22.9550 C.3   195  LEU195      0.0270
     86  CG         5.6290   26.3690   24.0080 C.3   195  LEU195      0.0019
     87  CD1        4.5550   25.4390   23.4710 C.3   195  LEU195      0.0001
     88  CD2        6.8700   25.6070   24.4770 C.3   195  LEU195      0.0001
@<TRIPOS>BOND
     1     1     2    1
     2     2     5    1
     3     2     3    1
     4    17    16    1
     5    17    11    1
     6     5     6    1
     7    16    15    1
     8     3    11   am
     9     3     4    2
    10    11    12    1
    11    54    53    1
    12    54    55    2
    13    15    12    1
    14    57    55    1
    15    53    52    1
    16    12    13    1
    17    55    56    1
    18     6     7   ar
    19     6     8   ar
    20    52    51    1
    21    47    48    1
    22    51    48    1
    23     7     9   ar
    24     8    10   ar
    25    48    49    1
    26    13    14    2
    27    13    18   am
    28    69    70    2
    29    69    68    1
    30     9    10   ar
    31    32    31    1
    32    18    19    1
    33    71    68    1
    34    71    72    1
    35    49    50    2
    36    49    58   am
    37    33    31    1
    38    68    67    1
    39    84    83    2
    40    31    30    1
    41    83    82    1
    42    72    73   ar
    43    72    74   ar
    44    58    59    1
    45    61    60    2
    46    19    20    1
    47    19    22    1
    48    85    82    1
    49    85    86    1
    50    73    75   ar
    51    21    20    2
    52    20    26   am
    53    74    76   ar
    54    82    81    1
    55    87    86    1
    56    30    27    1
    57    60    59    1
    58    26    27    1
    59    22    23    1
    60    75    76   ar
    61    59    62    1
    62    86    88    1
    63    27    28    1
    64    44    43    2
    65    62    63    1
    66    23    25   am
    67    23    24    2
    68    43    42    1
    69    28    29    2
    70    28    34   am
    71    46    45    1
    72    63    64    1
    73    77    78    1
    74    34    35    1
    75    45    42    1
    76    64    66   ar
    77    64    65   ar
    78    42    41    1
    79    41    36   am
    80    78    79    1
    81    79    80    2
    82    36    35    1
    83    36    37    2
    84    35    38    1
    85    38    39    1
    86    38    40    1
