@<TRIPOS>MOLECULE
tmp/5ab0A04.pdb
 79 73 0 0 0
SMALL
GASTEIGER

@<TRIPOS>ATOM
      1  N         32.2260    4.6150   -5.1690 N.3   348  LEU348     -0.1231
      2  CA        33.4930    4.3290   -5.8260 C.3   348  LEU348      0.1693
      3  C         34.0880    5.5440   -6.5520 C.2   348  LEU348      0.2591
      4  O         35.2470    5.8690   -6.3490 O.2   348  LEU348     -0.2718
      5  CB        33.3310    3.1720   -6.8210 C.3   348  LEU348      0.0284
      6  CG        34.5900    2.8510   -7.6410 C.3   348  LEU348      0.0019
      7  CD1       35.7020    2.2580   -6.7530 C.3   348  LEU348      0.0001
      8  CD2       34.2670    1.9400   -8.8310 C.3   348  LEU348      0.0001
      9  N         33.3180    6.2220   -7.3940 N.am  349  ILE349     -0.1980
     10  CA        33.9230    7.3080   -8.1530 C.3   349  ILE349      0.1595
     11  C         34.4040    8.4280   -7.2290 C.2   349  ILE349      0.2287
     12  O         35.4930    8.9770   -7.4230 O.2   349  ILE349     -0.2864
     13  CB        32.9660    7.9100   -9.2010 C.3   349  ILE349      0.0276
     14  CG1       32.3220    6.8160  -10.0530 C.3   349  ILE349      0.0022
     15  CG2       33.7240    8.8790  -10.0820 C.3   349  ILE349      0.0022
     16  CD1       33.3180    5.8540  -10.6450 C.3   349  ILE349      0.0001
     17  N         37.2760    7.3540   -4.4580 N.3   352  ASN352     -0.1225
     18  CA        38.4650    7.2600   -5.3020 C.3   352  ASN352      0.1785
     19  C         39.0700    8.5990   -5.6980 C.2   352  ASN352      0.2597
     20  O         40.2830    8.7410   -5.6990 O.2   352  ASN352     -0.2718
     21  CB        38.1550    6.4880   -6.5730 C.3   352  ASN352      0.1169
     22  CG        39.4000    6.1450   -7.3680 C.2   352  ASN352      0.2627
     23  OD1       40.2690    5.4360   -6.8810 O.2   352  ASN352     -0.2716
     24  ND2       39.4790    6.6410   -8.5990 N.am  352  ASN352     -0.0877
     25  N         38.2300    9.5770   -6.0270 N.am  353  ALA353     -0.1979
     26  CA        38.7120   10.9130   -6.3790 C.3   353  ALA353      0.1597
     27  C         39.1280   11.7910   -5.1820 C.2   353  ALA353      0.2287
     28  O         40.0090   12.6280   -5.3050 O.2   353  ALA353     -0.2864
     29  CB        37.6620   11.6250   -7.1760 C.3   353  ALA353      0.0319
     30  N         41.8700    8.7190   -2.3930 N.3   356  PRO356     -0.2116
     31  CA        42.4760    7.5130   -2.9660 C.3   356  PRO356      0.1372
     32  C         43.2450    6.6690   -1.9400 C.2   356  PRO356      0.2244
     33  O         43.3230    5.4490   -2.0870 O.2   356  PRO356     -0.2868
     34  CB        43.4230    8.0710   -4.0300 C.3   356  PRO356      0.0268
     35  CG        43.6290    9.4730   -3.6680 C.3   356  PRO356      0.0207
     36  CD        42.3430    9.9330   -3.0720 C.3   356  PRO356      0.0892
     37  N         38.9480    1.5390   -4.5460 N.3   361  ASP361     -0.1239
     38  CA        38.9450    0.9220   -5.8780 C.3   361  ASP361      0.1674
     39  C         39.3580   -0.5630   -5.8200 C.2   361  ASP361      0.2266
     40  O         38.9250   -1.3820   -6.6380 O.2   361  ASP361     -0.2867
     41  CB        39.8720    1.7020   -6.8290 C.3   361  ASP361      0.1410
     42  CG        39.9230    1.1010   -8.2370 C.2   361  ASP361      0.3668
     43  OD1       38.9950    1.3570   -9.0380 O.co2 361  ASP361     -0.2456
     44  OD2       40.8900    0.3610   -8.5480 O.co2 361  ASP361     -0.2456
     45  N         29.3000    0.0870  -13.7180 N.3   410  ASN410     -0.1240
     46  CA        30.7410    0.0560  -13.8340 C.3   410  ASN410      0.1653
     47  C         31.1430   -0.5450  -15.1850 C.2   410  ASN410      0.2266
     48  O         32.0980   -0.1140  -15.8330 O.2   410  ASN410     -0.2867
     49  CB        31.3470   -0.7400  -12.6970 C.3   410  ASN410      0.1155
     50  CG        32.8460   -0.6680  -12.6930 C.2   410  ASN410      0.2627
     51  OD1       33.4230    0.4160  -12.6120 O.2   410  ASN410     -0.2716
     52  ND2       33.4940   -1.8160  -12.8210 N.am  410  ASN410     -0.0877
     53  N         30.6250    2.0490  -17.8630 N.3   413  LYS413     -0.1245
     54  CA        31.6360    3.0930  -17.8150 C.3   413  LYS413      0.1561
     55  C         32.9150    2.6170  -18.5090 C.2   413  LYS413      0.2260
     56  O         33.6040    3.3890  -19.1780 O.2   413  LYS413     -0.2867
     57  CB        31.9370    3.5010  -16.3750 C.3   413  LYS413      0.0271
     58  CG        32.9790    4.5870  -16.2750 C.3   413  LYS413      0.0035
     59  CD        33.1770    5.0510  -14.8390 C.3   413  LYS413      0.0206
     60  CE        34.5300    4.6310  -14.2960 C.3   413  LYS413      0.1093
     61  NZ        34.6630    3.1370  -14.3090 N.3   413  LYS413     -0.1314
     62  N         35.3680    6.9420  -19.3810 N.3   418  GLU418     -0.1231
     63  CA        34.9910    7.9000  -18.3420 C.3   418  GLU418      0.1699
     64  C         34.3480    9.1690  -18.8930 C.2   418  GLU418      0.2592
     65  O         33.3130    9.6120  -18.3840 O.2   418  GLU418     -0.2718
     66  CB        36.2070    8.2820  -17.4820 C.3   418  GLU418      0.0402
     67  CG        35.9090    9.3110  -16.3550 C.3   418  GLU418      0.1161
     68  CD        34.7650    8.8940  -15.3870 C.2   418  GLU418      0.3649
     69  OE1       34.6470    7.6900  -15.0630 O.co2 418  GLU418     -0.2457
     70  OE2       33.9830    9.7710  -14.9440 O.co2 418  GLU418     -0.2457
     71  N         34.9380    9.7510  -19.9300 N.am  419  GLU419     -0.1979
     72  CA        34.4650   11.0540  -20.3900 C.3   419  GLU419      0.1602
     73  C         33.0510   10.9560  -20.9310 C.2   419  GLU419      0.2287
     74  O         32.2050   11.8030  -20.6400 O.2   419  GLU419     -0.2864
     75  CB        35.3970   11.6480  -21.4440 C.3   419  GLU419      0.0415
     76  CG        36.7880   11.9810  -20.8910 C.3   419  GLU419      0.1163
     77  CD        36.7610   12.8630  -19.6210 C.2   419  GLU419      0.3649
     78  OE1       36.7000   14.1180  -19.7400 O.co2 419  GLU419     -0.2457
     79  OE2       36.8220   12.2960  -18.5000 O.co2 419  GLU419     -0.2457
@<TRIPOS>BOND
     1    75    76    1
     2    75    72    1
     3    73    74    2
     4    73    72    1
     5    76    77    1
     6    72    71    1
     7    71    64   am
     8    78    77   ar
     9    77    79   ar
    10    62    63    1
    11    56    55    2
    12    64    65    2
    13    64    63    1
    14    55    54    1
    15    63    66    1
    16    53    54    1
    17    54    57    1
    18    66    67    1
    19    57    58    1
    20    67    68    1
    21    58    59    1
    22    48    47    2
    23    68    69   ar
    24    68    70   ar
    25    47    46    1
    26    59    60    1
    27    61    60    1
    28    46    45    1
    29    46    49    1
    30    52    50   am
    31    49    50    1
    32    50    51    2
    33    16    14    1
    34    15    13    1
    35    14    13    1
    36    13    10    1
    37    43    42   ar
    38     8     6    1
    39    24    22   am
    40    44    42   ar
    41    42    41    1
    42    10     9    1
    43    10    11    1
    44     6     5    1
    45     6     7    1
    46    12    11    2
    47     9     3   am
    48    22    23    2
    49    22    21    1
    50    29    26    1
    51    41    38    1
    52     5     2    1
    53    40    39    2
    54    21    18    1
    55     3     4    2
    56     3     2    1
    57    26    25    1
    58    26    27    1
    59    25    19   am
    60    38    39    1
    61    38    37    1
    62     2     1    1
    63    20    19    2
    64    19    18    1
    65    28    27    2
    66    18    17    1
    67    34    35    1
    68    34    31    1
    69    35    36    1
    70    36    30    1
    71    31    30    1
    72    31    32    1
    73    33    32    2
