@<TRIPOS>MOLECULE
tmp/5ab2A01.pdb
 92 91 0 0 0
SMALL
GASTEIGER

@<TRIPOS>ATOM
      1  N         33.8320  -17.0740   15.0450 N.3    30  HIS30      -0.1227
      2  CA        33.6640  -17.5070   16.4360 C.3    30  HIS30       0.1737
      3  C         33.4980  -16.3120   17.3760 C.2    30  HIS30       0.2438
      4  O         34.4980  -15.8090   17.9140 O.2    30  HIS30      -0.2733
      5  CB        34.8730  -18.3320   16.8790 C.3    30  HIS30       0.0758
      6  CG        34.7930  -18.8260   18.2870 C.ar   30  HIS30       0.0818
      7  ND1       33.6230  -18.8110   19.0160 N.ar   30  HIS30      -0.2268
      8  CD2       35.7360  -19.3610   19.0980 C.ar   30  HIS30       0.1154
      9  CE1       33.8500  -19.3100   20.2180 C.ar   30  HIS30       0.1986
     10  NE2       35.1240  -19.6500   20.2930 N.ar   30  HIS30      -0.2212
     11  N         32.2520  -15.8400   17.5630 N.am   31  PRO31      -0.2718
     12  CA        32.0510  -14.6420   18.3840 C.3    31  PRO31       0.1535
     13  C         31.7570  -14.9710   19.8460 C.2    31  PRO31       0.2599
     14  O         31.2530  -16.0500   20.1060 O.2    31  PRO31      -0.2715
     15  CB        30.8460  -13.9540   17.7110 C.3    31  PRO31       0.0310
     16  CG        30.1390  -15.0390   16.9910 C.3    31  PRO31       0.0237
     17  CD        31.1020  -16.1360   16.6970 C.3    31  PRO31       0.0939
     18  N         32.0800  -14.0640   20.7670 N.am   32  ASN32      -0.1959
     19  CA        31.7180  -14.2230   22.1700 C.3    32  ASN32       0.1819
     20  C         30.9020  -13.0310   22.6440 C.2    32  ASN32       0.2621
     21  O         31.3930  -11.9220   22.6840 O.2    32  ASN32      -0.2715
     22  CB        32.9590  -14.3870   23.0520 C.3    32  ASN32       0.1195
     23  CG        32.6110  -14.7960   24.4740 C.2    32  ASN32       0.2630
     24  OD1       32.2970  -13.9530   25.3150 O.2    32  ASN32      -0.2716
     25  ND2       32.6690  -16.1080   24.7430 N.am   32  ASN32      -0.0877
     26  N         29.6550  -13.2780   23.0120 N.am   33  LEU33      -0.1963
     27  CA        28.7100  -12.2190   23.3120 C.3    33  LEU33       0.1728
     28  C         28.8020  -11.8410   24.7830 C.2    33  LEU33       0.2617
     29  O         27.9120  -11.1960   25.3380 O.2    33  LEU33      -0.2715
     30  CB        27.2850  -12.6570   22.9560 C.3    33  LEU33       0.0311
     31  CG        26.9030  -12.5350   21.4800 C.3    33  LEU33       0.0022
     32  CD1       27.7510  -13.4350   20.6150 C.3    33  LEU33       0.0001
     33  CD2       25.4000  -12.7610   21.2150 C.3    33  LEU33       0.0001
     34  N         29.8830  -12.2630   25.4220 N.am   34  THR34      -0.1937
     35  CA        30.1590  -11.8340   26.7830 C.3    34  THR34       0.2028
     36  C         31.3860  -10.9180   26.7930 C.2    34  THR34       0.2642
     37  O         31.3760   -9.8660   27.4300 O.2    34  THR34      -0.2714
     38  CB        30.3700  -13.0300   27.7140 C.3    34  THR34       0.1808
     39  OG1       29.1680  -13.8090   27.7480 O.3    34  THR34      -0.2208
     40  CG2       30.6900  -12.5570   29.1060 C.3    34  THR34       0.0379
     41  N         32.4310  -11.3070   26.0690 N.am   35  SER35      -0.1949
     42  CA        33.6150  -10.4700   25.9570 C.3    35  SER35       0.1924
     43  C         33.4070   -9.4370   24.8640 C.2    35  SER35       0.2314
     44  O         34.2130   -8.5060   24.6940 O.2    35  SER35      -0.2863
     45  CB        34.8490  -11.3130   25.6750 C.3    35  SER35       0.2116
     46  OG        34.5280  -12.4130   24.8480 O.3    35  SER35      -0.2180
     47  N         29.0330  -21.0900   18.9090 N.3   173  ARG173     -0.1231
     48  CA        28.0300  -20.4370   19.7490 C.3   173  ARG173      0.1694
     49  C         27.6640  -21.2600   20.9530 C.2   173  ARG173      0.2591
     50  O         27.8910  -22.4560   20.9800 O.2   173  ARG173     -0.2718
     51  CB        26.7640  -20.1710   18.9570 C.3   173  ARG173      0.0321
     52  CG        26.0990  -21.4550   18.5300 C.3   173  ARG173      0.0489
     53  CD        24.6990  -21.2470   18.0110 C.3   173  ARG173      0.2205
     54  NE        24.1890  -22.4750   17.4250 N.pl3 173  ARG173     -0.0865
     55  CZ        23.6920  -23.5070   18.1110 C.cat 173  ARG173      0.5346
     56  NH1       23.6310  -23.4910   19.4420 N.pl3 173  ARG173      0.1354
     57  NH2       23.2450  -24.5630   17.4480 N.pl3 173  ARG173      0.1354
     58  N         27.0680  -20.6070   21.9390 N.am  174  GLU174     -0.1979
     59  CA        26.6420  -21.2660   23.1600 C.3   174  GLU174      0.1602
     60  C         25.2700  -21.8460   22.9510 C.2   174  GLU174      0.2287
     61  O         24.6760  -21.6330   21.9170 O.2   174  GLU174     -0.2864
     62  CB        26.6270  -20.2950   24.3270 C.3   174  GLU174      0.0415
     63  CG        27.9910  -19.7680   24.6720 C.3   174  GLU174      0.1163
     64  CD        27.8980  -18.7110   25.7320 C.2   174  GLU174      0.3649
     65  OE1       26.7760  -18.5280   26.2520 O.co2 174  GLU174     -0.2457
     66  OE2       28.9240  -18.0670   26.0340 O.co2 174  GLU174     -0.2457
     67  N         22.1590  -19.5100   22.4940 N.3   177  HIS177     -0.1241
     68  CA        22.0300  -18.8660   21.1850 C.3   177  HIS177      0.1621
     69  C         21.7210  -19.7800   19.9880 C.2   177  HIS177      0.2264
     70  O         22.0520  -20.9470   19.9760 O.2   177  HIS177     -0.2867
     71  CB        23.3070  -18.1040   20.8870 C.3   177  HIS177      0.0745
     72  CG        23.6000  -17.0340   21.8890 C.ar  177  HIS177      0.0817
     73  ND1       24.8490  -16.8470   22.4380 N.ar  177  HIS177     -0.2268
     74  CD2       22.8020  -16.0880   22.4350 C.ar  177  HIS177      0.1154
     75  CE1       24.8050  -15.8320   23.2850 C.ar  177  HIS177      0.1986
     76  NE2       23.5730  -15.3600   23.3070 N.ar  177  HIS177     -0.2212
     77  N         34.3630  -28.2830   25.3740 N.3   193  GLY193     -0.1210
     78  CA        33.8450  -27.5520   26.5250 C.3   193  GLY193      0.1956
     79  C         32.3340  -27.3480   26.6140 C.2   193  GLY193      0.2612
     80  O         31.8310  -26.8750   27.6380 O.2   193  GLY193     -0.2717
     81  N         31.6120  -27.6970   25.5480 N.am  194  GLY194     -0.1942
     82  CA        30.1610  -27.6400   25.5420 C.3   194  GLY194      0.2014
     83  C         29.5960  -26.6470   24.5350 C.2   194  GLY194      0.2638
     84  O         28.3820  -26.4250   24.4910 O.2   194  GLY194     -0.2714
     85  N         30.4720  -26.0400   23.7320 N.am  195  LEU195     -0.1977
     86  CA        30.0350  -25.0910   22.7120 C.3   195  LEU195      0.1596
     87  C         29.5140  -25.8450   21.5010 C.2   195  LEU195      0.2287
     88  O         29.8000  -27.0240   21.3330 O.2   195  LEU195     -0.2864
     89  CB        31.1720  -24.1450   22.3120 C.3   195  LEU195      0.0297
     90  CG        31.7190  -23.2030   23.4100 C.3   195  LEU195      0.0022
     91  CD1       32.7990  -22.2760   22.8770 C.3   195  LEU195      0.0001
     92  CD2       30.6350  -22.3940   24.1170 C.3   195  LEU195      0.0001
@<TRIPOS>BOND
     1     1     2    1
     2     2     5    1
     3     2     3    1
     4    17    16    1
     5    17    11    1
     6     5     6    1
     7    16    15    1
     8     3    11   am
     9     3     4    2
    10    54    53    1
    11    54    55    2
    12    57    55    1
    13    11    12    1
    14    15    12    1
    15    53    52    1
    16    55    56    1
    17     6     7   ar
    18     6     8   ar
    19    12    13    1
    20    52    51    1
    21    47    48    1
    22    51    48    1
    23     7     9   ar
    24     8    10   ar
    25    48    49    1
    26    13    14    2
    27    13    18   am
    28    70    69    2
    29    69    68    1
    30     9    10   ar
    31    32    31    1
    32    18    19    1
    33    71    68    1
    34    71    72    1
    35    49    50    2
    36    49    58   am
    37    68    67    1
    38    33    31    1
    39    88    87    2
    40    31    30    1
    41    87    86    1
    42    72    74   ar
    43    72    73   ar
    44    61    60    2
    45    58    59    1
    46    19    20    1
    47    19    22    1
    48    89    86    1
    49    89    90    1
    50    74    76   ar
    51    73    75   ar
    52    20    21    2
    53    20    26   am
    54    86    85    1
    55    91    90    1
    56    60    59    1
    57    30    27    1
    58    26    27    1
    59    22    23    1
    60    59    62    1
    61    75    76   ar
    62    27    28    1
    63    90    92    1
    64    85    83   am
    65    62    63    1
    66    23    25   am
    67    23    24    2
    68    84    83    2
    69    83    82    1
    70    63    64    1
    71    44    43    2
    72    28    29    2
    73    28    34   am
    74    46    45    1
    75    43    42    1
    76    77    78    1
    77    34    35    1
    78    82    81    1
    79    81    79   am
    80    45    42    1
    81    64    66   ar
    82    64    65   ar
    83    42    41    1
    84    41    36   am
    85    78    79    1
    86    79    80    2
    87    35    36    1
    88    35    38    1
    89    36    37    2
    90    38    39    1
    91    38    40    1
