@<TRIPOS>MOLECULE
tmp/5ab2B00.pdb
 223 217 0 0 0
SMALL
GASTEIGER

@<TRIPOS>ATOM
      1  N         11.8220  -10.7440   57.5420 N.3   147  GLU147     -0.1245
      2  CA        11.8710  -10.1360   58.8650 C.3   147  GLU147      0.1567
      3  C         11.5090   -8.6620   58.8310 C.2   147  GLU147      0.2260
      4  O         12.0660   -7.9020   58.0430 O.2   147  GLU147     -0.2867
      5  CB        13.2520  -10.3130   59.4830 C.3   147  GLU147      0.0388
      6  CG        13.3060   -9.9120   60.9240 C.3   147  GLU147      0.1160
      7  CD        14.6100  -10.2730   61.5610 C.2   147  GLU147      0.3649
      8  OE1       15.6170  -10.3790   60.8290 O.co2 147  GLU147     -0.2457
      9  OE2       14.6210  -10.4540   62.7980 O.co2 147  GLU147     -0.2457
     10  N         18.2870   -4.7800   50.8970 N.3   279  ALA279     -0.1231
     11  CA        18.1390   -3.6280   51.7840 C.3   279  ALA279      0.1679
     12  C         18.9450   -3.7840   53.0450 C.2   279  ALA279      0.2434
     13  O         19.7120   -2.8850   53.3800 O.2   279  ALA279     -0.2733
     14  CB        16.6750   -3.3810   52.1250 C.3   279  ALA279      0.0304
     15  N         18.7820   -4.9050   53.7700 N.am  280  PRO280     -0.2718
     16  CA        19.6710   -5.0040   54.9340 C.3   280  PRO280      0.1535
     17  C         21.0330   -5.5170   54.5260 C.2   280  PRO280      0.2599
     18  O         21.1940   -5.9390   53.3940 O.2   280  PRO280     -0.2715
     19  CB        18.9490   -5.9870   55.8480 C.3   280  PRO280      0.0310
     20  CG        18.1900   -6.8480   54.9330 C.3   280  PRO280      0.0237
     21  CD        17.8340   -6.0300   53.7200 C.3   280  PRO280      0.0939
     22  N         22.0130   -5.4520   55.4150 N.am  281  GLY281     -0.1941
     23  CA        23.3630   -5.8640   55.0580 C.3   281  GLY281      0.2014
     24  C         23.4640   -7.3700   54.9240 C.2   281  GLY281      0.2639
     25  O         24.3760   -7.8660   54.2720 O.2   281  GLY281     -0.2714
     26  N         22.5370   -8.0680   55.5890 N.am  282  ALA282     -0.1963
     27  CA        22.3010   -9.5050   55.4570 C.3   282  ALA282      0.1728
     28  C         21.0470   -9.9240   56.2240 C.2   282  ALA282      0.2616
     29  O         20.4960   -9.1670   57.0100 O.2   282  ALA282     -0.2715
     30  CB        23.4900  -10.2990   55.9320 C.3   282  ALA282      0.0334
     31  N         20.5910  -11.1400   55.9860 N.am  283  MET283     -0.1963
     32  CA        19.4120  -11.6550   56.6690 C.3   283  MET283      0.1736
     33  C         19.6500  -13.1330   56.8640 C.2   283  MET283      0.2616
     34  O         20.1170  -13.8130   55.9520 O.2   283  MET283     -0.2715
     35  CB        18.1470  -11.3830   55.8620 C.3   283  MET283      0.0427
     36  CG        16.8970  -11.9640   56.4330 C.3   283  MET283      0.0599
     37  SD        16.8760  -11.7200   58.1980 S.3   283  MET283     -0.1393
     38  CE        15.5760  -12.8290   58.7080 C.3   283  MET283      0.0692
     39  N         19.3340  -13.6260   58.0520 N.am  284  GLU284     -0.1977
     40  CA        19.8830  -14.8940   58.5450 C.3   284  GLU284      0.1602
     41  C         19.0640  -16.1800   58.2630 C.2   284  GLU284      0.2287
     42  O         19.0070  -17.0880   59.1110 O.2   284  GLU284     -0.2864
     43  CB        20.0770  -14.7580   60.0430 C.3   284  GLU284      0.0415
     44  CG        18.7630  -14.5430   60.7850 C.3   284  GLU284      0.1163
     45  CD        18.6220  -13.1630   61.3780 C.2   284  GLU284      0.3649
     46  OE1       19.3700  -12.2520   60.9540 O.co2 284  GLU284     -0.2457
     47  OE2       17.7590  -12.9940   62.2740 O.co2 284  GLU284     -0.2457
     48  N         24.0600   -8.5830   51.1280 N.3   292  ARG292     -0.1245
     49  CA        24.3960   -7.4850   50.2570 C.3   292  ARG292      0.1563
     50  C         25.7280   -7.8830   49.6470 C.2   292  ARG292      0.2260
     51  O         26.4750   -8.6150   50.2680 O.2   292  ARG292     -0.2867
     52  CB        24.4560   -6.1760   51.0510 C.3   292  ARG292      0.0307
     53  CG        24.7210   -4.9480   50.2420 C.3   292  ARG292      0.0489
     54  CD        24.5310   -3.6710   51.0660 C.3   292  ARG292      0.2205
     55  NE        23.1280   -3.3930   51.3360 N.pl3 292  ARG292     -0.0865
     56  CZ        22.6790   -2.2160   51.7420 C.cat 292  ARG292      0.5346
     57  NH1       23.5270   -1.2310   51.9110 N.pl3 292  ARG292      0.1354
     58  NH2       21.3880   -2.0240   51.9680 N.pl3 292  ARG292      0.1354
     59  N         28.4200   -6.2560   48.9890 N.3   294  THR294     -0.1203
     60  CA        29.5900   -5.7110   49.6800 C.3   294  THR294      0.1994
     61  C         29.8150   -6.3910   51.0190 C.2   294  THR294      0.2618
     62  O         30.8670   -6.2160   51.6310 O.2   294  THR294     -0.2717
     63  CB        29.4570   -4.2120   49.9330 C.3   294  THR294      0.1784
     64  OG1       28.2040   -3.9510   50.5880 O.3   294  THR294     -0.2211
     65  CG2       29.5560   -3.4550   48.6390 C.3   294  THR294      0.0376
     66  N         28.8070   -7.1430   51.4610 N.am  295  SER295     -0.1951
     67  CA        28.8300   -7.8710   52.7110 C.3   295  SER295      0.1924
     68  C         29.3610   -9.2960   52.5530 C.2   295  SER295      0.2314
     69  O         29.3610  -10.0560   53.5220 O.2   295  SER295     -0.2863
     70  CB        27.4250   -7.9410   53.3120 C.3   295  SER295      0.2116
     71  OG        27.0160   -6.6930   53.8050 O.3   295  SER295     -0.2180
     72  N         40.1240   -3.0360   55.3720 N.3   306  SER306     -0.1202
     73  CA        38.9200   -2.6960   56.1200 C.3   306  SER306      0.2020
     74  C         37.6780   -3.4420   55.6300 C.2   306  SER306      0.2618
     75  O         36.7510   -3.6990   56.4050 O.2   306  SER306     -0.2717
     76  CB        38.6730   -1.1870   56.0470 C.3   306  SER306      0.2103
     77  OG        38.6870   -0.7170   54.7060 O.3   306  SER306     -0.2182
     78  N         37.6550   -3.7740   54.3400 N.am  307  ASP307     -0.1973
     79  CA        36.5390   -4.5180   53.7610 C.3   307  ASP307      0.1709
     80  C         36.5890   -5.9430   54.2650 C.2   307  ASP307      0.2293
     81  O         35.5790   -6.4880   54.6950 O.2   307  ASP307     -0.2864
     82  CB        36.5750   -4.4990   52.2220 C.3   307  ASP307      0.1436
     83  CG        36.2080   -3.1410   51.6260 C.2   307  ASP307      0.3671
     84  OD1       35.3860   -2.4060   52.2170 O.co2 307  ASP307     -0.2456
     85  OD2       36.7450   -2.8180   50.5490 O.co2 307  ASP307     -0.2456
     86  N         35.1110   -6.3640   57.4440 N.3   310  TRP310     -0.1241
     87  CA        33.6700   -6.2220   57.3600 C.3   310  TRP310      0.1605
     88  C         33.0360   -7.5310   56.8900 C.2   310  TRP310      0.2264
     89  O         32.0940   -8.0260   57.5120 O.2   310  TRP310     -0.2867
     90  CB        33.3030   -5.0710   56.4370 C.3   310  TRP310      0.0550
     91  CG        31.8580   -4.9260   56.2560 C.ar  310  TRP310      0.0003
     92  CD1       31.1560   -5.1310   55.1120 C.ar  310  TRP310      0.0946
     93  CD2       30.9050   -4.5650   57.2540 C.ar  310  TRP310      0.0152
     94  NE1       29.8190   -4.9080   55.3280 N.ar  310  TRP310     -0.2442
     95  CE2       29.6380   -4.5570   56.6360 C.ar  310  TRP310      0.0810
     96  CE3       30.9970   -4.2380   58.6060 C.ar  310  TRP310      0.0012
     97  CZ2       28.4760   -4.2530   57.3220 C.ar  310  TRP310      0.0191
     98  CZ3       29.8390   -3.9240   59.2890 C.ar  310  TRP310      0.0001
     99  CH2       28.5940   -3.9330   58.6450 C.ar  310  TRP310      0.0015
    100  N         33.1790  -10.0020   59.5440 N.3   313  ARG313     -0.1231
    101  CA        32.2500   -9.6280   60.6100 C.3   313  ARG313      0.1694
    102  C         30.8010  -10.1270   60.3640 C.2   313  ARG313      0.2591
    103  O         30.2480  -10.8740   61.1850 O.2   313  ARG313     -0.2718
    104  CB        32.2750   -8.1020   60.8020 C.3   313  ARG313      0.0321
    105  CG        32.0990   -7.6100   62.2510 C.3   313  ARG313      0.0489
    106  CD        32.0060   -6.0790   62.3160 C.3   313  ARG313      0.2205
    107  NE        31.0900   -5.5830   63.3490 N.pl3 313  ARG313     -0.0865
    108  CZ        30.5670   -4.3520   63.3690 C.cat 313  ARG313      0.5346
    109  NH1       30.8500   -3.4800   62.4080 N.pl3 313  ARG313      0.1354
    110  NH2       29.7460   -3.9840   64.3450 N.pl3 313  ARG313      0.1354
    111  N         30.1970   -9.7520   59.2360 N.am  314  VAL314     -0.1980
    112  CA        28.7970  -10.1090   58.9840 C.3   314  VAL314      0.1595
    113  C         28.6200  -11.6030   58.6720 C.2   314  VAL314      0.2287
    114  O         27.6010  -12.1940   59.0410 O.2   314  VAL314     -0.2864
    115  CB        28.1710   -9.2370   57.8440 C.3   314  VAL314      0.0276
    116  CG1       29.1530   -8.9700   56.7550 C.3   314  VAL314      0.0022
    117  CG2       26.9090   -9.8640   57.2920 C.3   314  VAL314      0.0022
    118  N         28.5130  -12.8320   62.0430 N.3   317  HIS317     -0.1226
    119  CA        27.2260  -12.3960   62.5790 C.3   317  HIS317      0.1752
    120  C         26.0600  -13.2210   62.0880 C.2   317  HIS317      0.2595
    121  O         25.1230  -13.4690   62.8340 O.2   317  HIS317     -0.2718
    122  CB        26.9450  -10.9380   62.2210 C.3   317  HIS317      0.0759
    123  CG        25.6590  -10.4280   62.7870 C.ar  317  HIS317      0.0818
    124  ND1       25.6030   -9.7390   63.9740 N.ar  317  HIS317     -0.2268
    125  CD2       24.3810  -10.5300   62.3560 C.ar  317  HIS317      0.1154
    126  CE1       24.3500   -9.4300   64.2480 C.ar  317  HIS317      0.1986
    127  NE2       23.5900   -9.9020   63.2850 N.ar  317  HIS317     -0.2212
    128  N         26.0940  -13.6170   60.8190 N.am  318  GLU318     -0.1979
    129  CA        24.9580  -14.3200   60.2270 C.3   318  GLU318      0.1602
    130  C         24.9650  -15.8090   60.5860 C.2   318  GLU318      0.2287
    131  O         23.9100  -16.3700   60.8610 O.2   318  GLU318     -0.2864
    132  CB        24.9270  -14.1200   58.7060 C.3   318  GLU318      0.0415
    133  CG        24.5800  -12.6930   58.2960 C.3   318  GLU318      0.1163
    134  CD        23.2030  -12.2640   58.7780 C.2   318  GLU318      0.3649
    135  OE1       22.3220  -13.1370   58.8350 O.co2 318  GLU318     -0.2457
    136  OE2       22.9950  -11.0730   59.1050 O.co2 318  GLU318     -0.2457
    137  N         23.8650  -16.1870   64.0820 N.3   321  HIS321     -0.1241
    138  CA        22.4170  -16.1400   64.1120 C.3   321  HIS321      0.1621
    139  C         21.7920  -17.5380   64.0010 C.2   321  HIS321      0.2264
    140  O         20.6820  -17.7700   64.4930 O.2   321  HIS321     -0.2867
    141  CB        21.9220  -15.2450   62.9850 C.3   321  HIS321      0.0745
    142  CG        21.4610  -13.8990   63.4370 C.ar  321  HIS321      0.0817
    143  ND1       20.4960  -13.7430   64.4060 N.ar  321  HIS321     -0.2268
    144  CD2       21.7990  -12.6520   63.0380 C.ar  321  HIS321      0.1154
    145  CE1       20.2740  -12.4590   64.5990 C.ar  321  HIS321      0.1986
    146  NE2       21.0460  -11.7730   63.7800 N.ar  321  HIS321     -0.2212
    147  N         19.7900  -10.1550   68.2930 N.3   340  GLU340     -0.1245
    148  CA        20.6600   -9.2060   67.6350 C.3   340  GLU340      0.1567
    149  C         21.7610   -8.7550   68.5660 C.2   340  GLU340      0.2260
    150  O         22.9000   -8.5830   68.1340 O.2   340  GLU340     -0.2867
    151  CB        19.8490   -8.0310   67.0990 C.3   340  GLU340      0.0388
    152  CG        18.9490   -8.4260   65.9060 C.3   340  GLU340      0.1160
    153  CD        19.7370   -8.9830   64.7040 C.2   340  GLU340      0.3649
    154  OE1       20.7890   -8.4230   64.3550 O.co2 340  GLU340     -0.2457
    155  OE2       19.3060   -9.9720   64.0900 O.co2 340  GLU340     -0.2457
    156  N         15.5110   -2.2780   65.3310 N.3   397  PHE397     -0.1227
    157  CA        16.7540   -2.8320   64.8260 C.3   397  PHE397      0.1736
    158  C         17.8030   -1.7220   64.7870 C.2   397  PHE397      0.2595
    159  O         18.1960   -1.2530   63.7150 O.2   397  PHE397     -0.2718
    160  CB        16.5460   -3.4580   63.4460 C.3   397  PHE397      0.0547
    161  CG        15.6380   -4.6710   63.4520 C.ar  397  PHE397     -0.0202
    162  CD1       14.2600   -4.5280   63.3820 C.ar  397  PHE397     -0.0042
    163  CD2       16.1650   -5.9510   63.5100 C.ar  397  PHE397     -0.0042
    164  CE1       13.4330   -5.6370   63.3750 C.ar  397  PHE397     -0.0003
    165  CE2       15.3420   -7.0540   63.5070 C.ar  397  PHE397     -0.0003
    166  CZ        13.9740   -6.8970   63.4400 C.ar  397  PHE397     -0.0000
    167  N         18.2410   -1.2950   65.9720 N.am  398  ASP398     -0.1960
    168  CA        19.1310   -0.1410   66.0920 C.3   398  ASP398      0.1840
    169  C         20.3660   -0.4390   66.9220 C.2   398  ASP398      0.2621
    170  O         20.5970   -1.5830   67.2990 O.2   398  ASP398     -0.2715
    171  CB        18.3920    1.0530   66.7000 C.3   398  ASP398      0.1450
    172  CG        17.8150    0.7560   68.0620 C.2   398  ASP398      0.3671
    173  OD1       18.2400   -0.2260   68.6960 O.co2 398  ASP398     -0.2456
    174  OD2       16.9270    1.5100   68.5020 O.co2 398  ASP398     -0.2456
    175  N         21.1430    0.6030   67.2160 N.am  399  GLU399     -0.1977
    176  CA        22.4080    0.4500   67.9280 C.3   399  GLU399      0.1602
    177  C         22.1550   -0.0030   69.3520 C.2   399  GLU399      0.2287
    178  O         22.9840   -0.6640   69.9720 O.2   399  GLU399     -0.2864
    179  CB        23.1980    1.7570   67.9170 C.3   399  GLU399      0.0415
    180  CG        23.8840    2.0940   66.5990 C.3   399  GLU399      0.1163
    181  CD        23.0750    3.0450   65.7420 C.2   399  GLU399      0.3649
    182  OE1       21.8500    3.1720   65.9840 O.co2 399  GLU399     -0.2457
    183  OE2       23.6710    3.6690   64.8290 O.co2 399  GLU399     -0.2457
    184  N         21.2670   -3.7780   69.3380 N.3   402  TYR402     -0.1227
    185  CA        22.4110   -4.4360   68.7280 C.3   402  TYR402      0.1736
    186  C         23.6970   -4.2590   69.5220 C.2   402  TYR402      0.2595
    187  O         24.3570   -5.2390   69.8460 O.2   402  TYR402     -0.2718
    188  CB        22.6280   -3.9130   67.3040 C.3   402  TYR402      0.0548
    189  CG        21.7220   -4.5140   66.2510 C.ar  402  TYR402     -0.0200
    190  CD1       20.3350   -4.5230   66.4110 C.ar  402  TYR402     -0.0009
    191  CD2       22.2550   -5.0570   65.0800 C.ar  402  TYR402     -0.0009
    192  CE1       19.5100   -5.0610   65.4410 C.ar  402  TYR402      0.0417
    193  CE2       21.4350   -5.5940   64.1050 C.ar  402  TYR402      0.0417
    194  CZ        20.0660   -5.5960   64.2940 C.ar  402  TYR402      0.1957
    195  OH        19.2480   -6.1420   63.3290 O.3   402  TYR402     -0.2866
    196  N         24.0660   -3.0120   69.8140 N.am  403  ASN403     -0.1974
    197  CA        25.3560   -2.7380   70.4450 C.3   403  ASN403      0.1688
    198  C         25.2800   -2.6860   71.9690 C.2   403  ASN403      0.2292
    199  O         26.1310   -3.2500   72.6600 O.2   403  ASN403     -0.2864
    200  CB        25.9340   -1.4280   69.9210 C.3   403  ASN403      0.1181
    201  CG        25.7660   -1.2740   68.4320 C.2   403  ASN403      0.2629
    202  OD1       24.7510   -1.6700   67.8740 O.2   403  ASN403     -0.2716
    203  ND2       26.7660   -0.6950   67.7770 N.am  403  ASN403     -0.0877
    204  N         31.3750    0.9650   45.6410 N.3   740  ASN740     -0.1240
    205  CA        31.1460    1.7220   46.8540 C.3   740  ASN740      0.1653
    206  C         32.0920    2.9100   46.9400 C.2   740  ASN740      0.2266
    207  O         31.6710    4.0460   47.1710 O.2   740  ASN740     -0.2867
    208  CB        31.3220    0.8230   48.0720 C.3   740  ASN740      0.1155
    209  CG        30.4650    1.2560   49.2300 C.2   740  ASN740      0.2627
    210  OD1       29.2770    0.9270   49.2980 O.2   740  ASN740     -0.2716
    211  ND2       31.0540    2.0130   50.1480 N.am  740  ASN740     -0.0877
    212  N         15.0490    1.0510   57.9430 N.3   810  TYR810     -0.1241
    213  CA        16.3330    1.5250   58.4150 C.3   810  TYR810      0.1605
    214  C         16.8390    2.5850   57.4370 C.2   810  TYR810      0.2264
    215  O         17.4150    3.5900   57.8460 O.2   810  TYR810     -0.2867
    216  CB        17.3410    0.3890   58.5700 C.3   810  TYR810      0.0534
    217  CG        18.7000    0.9130   58.9590 C.ar  810  TYR810     -0.0201
    218  CD1       18.8890    1.5880   60.1640 C.ar  810  TYR810     -0.0009
    219  CD2       19.7900    0.7720   58.1160 C.ar  810  TYR810     -0.0009
    220  CE1       20.1330    2.0930   60.5200 C.ar  810  TYR810      0.0417
    221  CE2       21.0370    1.2710   58.4650 C.ar  810  TYR810      0.0417
    222  CZ        21.1990    1.9270   59.6650 C.ar  810  TYR810      0.1957
    223  OH        22.4320    2.4150   60.0030 O.3   810  TYR810     -0.2866
@<TRIPOS>BOND
     1   204   205    1
     2   205   206    1
     3   205   208    1
     4   206   207    2
     5   208   209    1
     6    65    63    1
     7    59    60    1
     8   209   210    2
     9   209   211   am
    10    50    49    1
    11    50    51    2
    12    60    63    1
    13    60    61    1
    14    63    64    1
    15    53    52    1
    16    53    54    1
    17    49    52    1
    18    49    48    1
    19    85    83   ar
    20    10    11    1
    21    61    66   am
    22    61    62    2
    23    54    55    1
    24    55    56    2
    25    66    67    1
    26    83    84   ar
    27    83    82    1
    28    56    57    1
    29    56    58    1
    30    11    14    1
    31    11    12    1
    32    82    79    1
    33    68    67    1
    34    68    69    2
    35    67    70    1
    36    12    13    2
    37    12    15   am
    38    70    71    1
    39    18    17    2
    40    21    15    1
    41    21    20    1
    42    79    80    1
    43    79    78    1
    44    15    16    1
    45    80    81    2
    46    25    24    2
    47    78    74   am
    48    17    16    1
    49    17    22   am
    50    77    76    1
    51    24    23    1
    52    24    26   am
    53    20    19    1
    54    16    19    1
    55    23    22    1
    56    92    94   ar
    57    92    91   ar
    58    94    95   ar
    59    72    73    1
    60    27    26    1
    61    27    30    1
    62    27    28    1
    63    74    73    1
    64    74    75    2
    65    35    36    1
    66    35    32    1
    67    34    33    2
    68    31    28   am
    69    31    32    1
    70    76    73    1
    71    28    29    2
    72    91    90    1
    73    91    93   ar
    74    36    37    1
    75    90    87    1
    76    95    93   ar
    77    95    97   ar
    78    32    33    1
    79   116   115    1
    80    33    39   am
    81    88    87    1
    82    88    89    2
    83    93    96   ar
    84   117   115    1
    85    97    99   ar
    86    87    86    1
    87   214   215    2
    88   214   213    1
    89     1     2    1
    90   115   112    1
    91   212   213    1
    92     4     3    2
    93    39    40    1
    94   219   221   ar
    95   219   217   ar
    96    37    38    1
    97    41    40    1
    98    41    42    2
    99   133   132    1
   100   133   134    1
   101   213   216    1
   102   221   222   ar
   103    40    43    1
   104   216   217    1
   105    96    98   ar
   106    99    98   ar
   107   113   112    1
   108   113   114    2
   109   132   129    1
   110   134   135   ar
   111   134   136   ar
   112     3     2    1
   113     2     5    1
   114   217   218   ar
   115   112   111    1
   116   111   102   am
   117     5     6    1
   118   100   101    1
   119   222   223    1
   120   222   220   ar
   121    43    44    1
   122   218   220   ar
   123   129   130    1
   124   129   128    1
   125   102   101    1
   126   102   103    2
   127   130   131    2
   128   101   104    1
   129    44    45    1
   130   104   105    1
   131   128   120   am
   132     8     7   ar
   133     6     7    1
   134    46    45   ar
   135    45    47   ar
   136     7     9   ar
   137   118   119    1
   138   120   119    1
   139   120   121    2
   140   122   119    1
   141   122   123    1
   142   105   106    1
   143   106   107    1
   144   125   123   ar
   145   125   127   ar
   146   109   108    1
   147   123   124   ar
   148   141   142    1
   149   141   138    1
   150   144   142   ar
   151   144   146   ar
   152   127   126   ar
   153   195   194    1
   154   107   108    2
   155   108   110    1
   156   164   162   ar
   157   164   166   ar
   158   162   161   ar
   159   142   143   ar
   160   166   165   ar
   161   160   161    1
   162   160   157    1
   163   161   163   ar
   164   165   163   ar
   165   159   158    2
   166   146   145   ar
   167   124   126   ar
   168   139   138    1
   169   139   140    2
   170   137   138    1
   171   155   153   ar
   172   193   194   ar
   173   193   191   ar
   174   194   192   ar
   175   154   153   ar
   176   143   145   ar
   177   153   152    1
   178   158   157    1
   179   158   167   am
   180   157   156    1
   181   183   181   ar
   182   191   189   ar
   183   192   190   ar
   184   181   182   ar
   185   181   180    1
   186   152   151    1
   187   167   168    1
   188   168   171    1
   189   168   169    1
   190   189   190   ar
   191   189   188    1
   192   180   179    1
   193   171   172    1
   194   169   175   am
   195   169   170    2
   196   151   148    1
   197   175   176    1
   198   188   185    1
   199   148   147    1
   200   148   149    1
   201   203   201   am
   202   202   201    2
   203   179   176    1
   204   176   177    1
   205   172   174   ar
   206   172   173   ar
   207   150   149    2
   208   201   200    1
   209   185   184    1
   210   185   186    1
   211   177   178    2
   212   186   196   am
   213   186   187    2
   214   196   197    1
   215   200   197    1
   216   197   198    1
   217   198   199    2
