@<TRIPOS>MOLECULE
tmp/5ab6D00.pdb
 238 227 0 0 0
SMALL
GASTEIGER

@<TRIPOS>ATOM
      1  N        -52.1800  -24.2240   44.3280 N.3    84  GLY84      -0.1210
      2  CA       -51.3820  -24.4770   43.1450 C.3    84  GLY84       0.1956
      3  C        -51.4600  -23.3240   42.1730 C.2    84  GLY84       0.2612
      4  O        -51.5110  -22.1640   42.5850 O.2    84  GLY84      -0.2717
      5  N        -51.4940  -23.6500   40.8840 N.am   85  GLY85      -0.1956
      6  CA       -51.5980  -22.6600   39.8290 C.3    85  GLY85       0.1869
      7  C        -52.9090  -21.8840   39.7920 C.2    85  GLY85       0.2309
      8  O        -53.0190  -20.9040   39.0610 O.2    85  GLY85      -0.2863
      9  N        -36.7300  -22.0630   36.5840 N.3   116  LEU116     -0.1245
     10  CA       -35.7620  -22.3210   35.5270 C.3   116  LEU116      0.1561
     11  C        -34.3420  -22.2100   36.0910 C.2   116  LEU116      0.2260
     12  O        -33.5030  -23.0810   35.8410 O.2   116  LEU116     -0.2867
     13  CB       -35.9610  -21.3820   34.3380 C.3   116  LEU116      0.0270
     14  CG       -35.0590  -21.6010   33.1160 C.3   116  LEU116      0.0019
     15  CD1      -35.1000  -23.0370   32.6130 C.3   116  LEU116      0.0001
     16  CD2      -35.4650  -20.6470   32.0090 C.3   116  LEU116      0.0001
     17  N        -32.5070  -28.3300   36.5230 N.3   120  SER120     -0.1217
     18  CA       -33.4120  -29.4120   36.1520 C.3   120  SER120      0.1889
     19  C        -33.5170  -30.5080   37.2030 C.2   120  SER120      0.2288
     20  O        -34.5940  -31.0740   37.3990 O.2   120  SER120     -0.2866
     21  CB       -32.9750  -30.0390   34.8270 C.3   120  SER120      0.2089
     22  OG       -32.9840  -29.0830   33.7880 O.3   120  SER120     -0.2183
     23  N        -35.5250  -29.1520   40.2050 N.3   123  PHE123     -0.1241
     24  CA       -36.9230  -28.9750   39.7990 C.3   123  PHE123      0.1605
     25  C        -37.6490  -30.3150   39.7170 C.2   123  PHE123      0.2264
     26  O        -38.7690  -30.4440   40.2040 O.2   123  PHE123     -0.2867
     27  CB       -37.0540  -28.2570   38.4590 C.3   123  PHE123      0.0534
     28  CG       -38.4790  -28.1720   37.9790 C.ar  123  PHE123     -0.0203
     29  CD1      -39.3150  -27.1700   38.4430 C.ar  123  PHE123     -0.0042
     30  CD2      -38.9970  -29.1240   37.1090 C.ar  123  PHE123     -0.0042
     31  CE1      -40.6380  -27.1000   38.0320 C.ar  123  PHE123     -0.0003
     32  CE2      -40.3210  -29.0610   36.6950 C.ar  123  PHE123     -0.0003
     33  CZ       -41.1380  -28.0410   37.1530 C.ar  123  PHE123     -0.0000
     34  N        -40.7230  -31.0600   42.1850 N.3   127  SER127     -0.1217
     35  CA       -42.0030  -31.1880   41.4940 C.3   127  SER127      0.1889
     36  C        -42.5680  -32.6040   41.6310 C.2   127  SER127      0.2288
     37  O        -43.7700  -32.7670   41.7980 O.2   127  SER127     -0.2866
     38  CB       -41.8840  -30.7960   40.0160 C.3   127  SER127      0.2089
     39  OG       -40.9540  -31.6110   39.3370 O.3   127  SER127     -0.2183
     40  N        -41.7470  -38.1570   35.1900 N.3   139  PRO139     -0.2116
     41  CA       -42.1480  -37.0120   36.0050 C.3   139  PRO139      0.1372
     42  C        -43.6410  -37.0750   36.3010 C.2   139  PRO139      0.2244
     43  O        -44.4400  -37.3020   35.3880 O.2   139  PRO139     -0.2868
     44  CB       -41.7940  -35.8040   35.1350 C.3   139  PRO139      0.0268
     45  CG       -41.7950  -36.3180   33.7380 C.3   139  PRO139      0.0207
     46  CD       -41.4320  -37.7710   33.8040 C.3   139  PRO139      0.0892
     47  N        -46.2170  -34.9820   37.4610 N.3   141  ILE141     -0.1231
     48  CA       -47.2690  -34.0660   37.0180 C.3   141  ILE141      0.1678
     49  C        -47.6660  -34.3210   35.5490 C.2   141  ILE141      0.2434
     50  O        -48.8510  -34.4670   35.2470 O.2   141  ILE141     -0.2733
     51  CB       -46.9020  -32.5830   37.2870 C.3   141  ILE141      0.0265
     52  CG1      -46.9900  -32.2950   38.7850 C.3   141  ILE141      0.0019
     53  CG2      -47.8350  -31.6500   36.5290 C.3   141  ILE141      0.0020
     54  CD1      -46.3860  -30.9750   39.2100 C.3   141  ILE141      0.0001
     55  N        -46.6800  -34.3930   34.6350 N.am  142  PRO142     -0.2729
     56  CA       -47.0120  -34.7600   33.2590 C.3   142  PRO142      0.1401
     57  C        -47.7270  -36.1120   33.1330 C.2   142  PRO142      0.2269
     58  O        -48.6600  -36.2290   32.3440 O.2   142  PRO142     -0.2865
     59  CB       -45.6460  -34.8050   32.5680 C.3   142  PRO142      0.0296
     60  CG       -44.8180  -33.8420   33.3400 C.3   142  PRO142      0.0237
     61  CD       -45.2610  -34.0060   34.7650 C.3   142  PRO142      0.0939
     62  N        -51.5180  -35.6850   34.2210 N.3   145  TYR145     -0.1241
     63  CA       -52.3000  -35.1090   33.1180 C.3   145  TYR145      0.1605
     64  C        -52.4170  -36.0560   31.9280 C.2   145  TYR145      0.2264
     65  O        -53.4530  -36.1080   31.2710 O.2   145  TYR145     -0.2867
     66  CB       -51.7320  -33.7530   32.6780 C.3   145  TYR145      0.0534
     67  CG       -52.1490  -32.6550   33.6140 C.ar  145  TYR145     -0.0201
     68  CD1      -53.4220  -32.0900   33.5250 C.ar  145  TYR145     -0.0009
     69  CD2      -51.2970  -32.1970   34.6120 C.ar  145  TYR145     -0.0009
     70  CE1      -53.8260  -31.0870   34.3930 C.ar  145  TYR145      0.0417
     71  CE2      -51.6890  -31.1910   35.4780 C.ar  145  TYR145      0.0417
     72  CZ       -52.9540  -30.6400   35.3660 C.ar  145  TYR145      0.1957
     73  OH       -53.3570  -29.6480   36.2380 O.3   145  TYR145     -0.2866
     74  N        -44.2410  -23.4450   16.1400 N.3   186  TYR186     -0.1241
     75  CA       -44.0080  -24.8570   15.8570 C.3   186  TYR186      0.1605
     76  C        -44.8930  -25.3160   14.7100 C.2   186  TYR186      0.2264
     77  O        -45.9370  -24.7280   14.4560 O.2   186  TYR186     -0.2867
     78  CB       -44.3320  -25.7370   17.0720 C.3   186  TYR186      0.0534
     79  CG       -43.7210  -25.3140   18.3870 C.ar  186  TYR186     -0.0201
     80  CD1      -42.3860  -24.9270   18.4760 C.ar  186  TYR186     -0.0009
     81  CD2      -44.4780  -25.3370   19.5580 C.ar  186  TYR186     -0.0009
     82  CE1      -41.8290  -24.5540   19.6900 C.ar  186  TYR186      0.0417
     83  CE2      -43.9310  -24.9710   20.7730 C.ar  186  TYR186      0.0417
     84  CZ       -42.6080  -24.5810   20.8360 C.ar  186  TYR186      0.1957
     85  OH       -42.0700  -24.2180   22.0460 O.3   186  TYR186     -0.2866
     86  N        -39.3400  -34.8590   21.7390 N.3   195  ARG195     -0.1245
     87  CA       -39.0680  -35.8600   22.7620 C.3   195  ARG195      0.1563
     88  C        -40.2990  -36.2330   23.5900 C.2   195  ARG195      0.2260
     89  O        -40.9920  -35.3640   24.1180 O.2   195  ARG195     -0.2867
     90  CB       -37.9940  -35.3270   23.7050 C.3   195  ARG195      0.0307
     91  CG       -37.0280  -36.3760   24.1940 C.3   195  ARG195      0.0489
     92  CD       -36.4890  -35.9940   25.5540 C.3   195  ARG195      0.2205
     93  NE       -36.0470  -34.6040   25.6440 N.pl3 195  ARG195     -0.0865
     94  CZ       -35.7800  -33.9720   26.7880 C.cat 195  ARG195      0.5346
     95  NH1      -35.9170  -34.5900   27.9600 N.pl3 195  ARG195      0.1354
     96  NH2      -35.3780  -32.7080   26.7630 N.pl3 195  ARG195      0.1354
     97  N        -42.3850  -37.3180   26.7330 N.3   197  VAL197     -0.1245
     98  CA       -42.2840  -37.1320   28.1850 C.3   197  VAL197      0.1561
     99  C        -43.1920  -38.1220   28.9100 C.2   197  VAL197      0.2260
    100  O        -42.8190  -38.6720   29.9470 O.2   197  VAL197     -0.2867
    101  CB       -42.6380  -35.6830   28.5930 C.3   197  VAL197      0.0252
    102  CG1      -42.6410  -35.5280   30.1090 C.3   197  VAL197      0.0019
    103  CG2      -41.6510  -34.7060   27.9690 C.3   197  VAL197      0.0019
    104  N        -42.3740  -33.1930   24.7190 N.3   203  LEU203     -0.1231
    105  CA       -41.6980  -32.0510   25.3290 C.3   203  LEU203      0.1693
    106  C        -42.3470  -30.7170   24.9900 C.2   203  LEU203      0.2591
    107  O        -42.5710  -29.8940   25.8740 O.2   203  LEU203     -0.2718
    108  CB       -40.2290  -32.0260   24.9090 C.3   203  LEU203      0.0284
    109  CG       -39.3670  -30.8770   25.4410 C.3   203  LEU203      0.0019
    110  CD1      -39.3680  -30.8710   26.9620 C.3   203  LEU203      0.0001
    111  CD2      -37.9460  -30.9930   24.9160 C.3   203  LEU203      0.0001
    112  N        -42.6470  -30.5060   23.7120 N.am  204  LEU204     -0.1980
    113  CA       -43.2240  -29.2340   23.2670 C.3   204  LEU204      0.1596
    114  C        -44.6730  -29.0230   23.7240 C.2   204  LEU204      0.2287
    115  O        -45.2000  -27.9240   23.5780 O.2   204  LEU204     -0.2864
    116  CB       -43.1100  -29.0890   21.7410 C.3   204  LEU204      0.0297
    117  CG       -41.6810  -29.0610   21.1770 C.3   204  LEU204      0.0022
    118  CD1      -41.6880  -28.7650   19.6830 C.3   204  LEU204      0.0001
    119  CD2      -40.8110  -28.0500   21.9030 C.3   204  LEU204      0.0001
    120  N        -45.3990  -29.5920   26.9830 N.3   206  CYS206     -0.1221
    121  CA       -45.2490  -29.3680   28.4270 C.3   206  CYS206      0.1808
    122  C        -45.1000  -27.8830   28.7670 C.2   206  CYS206      0.2601
    123  O        -44.5160  -27.1230   27.9960 O.2   206  CYS206     -0.2717
    124  CB       -44.0360  -30.1190   28.9600 C.3   206  CYS206      0.0970
    125  SG       -44.1870  -31.9120   28.8320 S.3   206  CYS206     -0.0800
    126  N        -45.6400  -27.4840   29.9180 N.am  207  ALA207     -0.1965
    127  CA       -45.4450  -26.1310   30.4350 C.3   207  ALA207      0.1728
    128  C        -43.9520  -25.7930   30.4520 C.2   207  ALA207      0.2616
    129  O        -43.1210  -26.6200   30.8380 O.2   207  ALA207     -0.2715
    130  CB       -46.0210  -26.0120   31.8310 C.3   207  ALA207      0.0334
    131  N        -43.6280  -24.5840   30.0200 N.am  208  ARG208     -0.1963
    132  CA       -42.2410  -24.1580   29.8380 C.3   208  ARG208      0.1729
    133  C        -41.7070  -23.5520   31.1320 C.2   208  ARG208      0.2616
    134  O        -42.1360  -22.4750   31.5390 O.2   208  ARG208     -0.2715
    135  CB       -42.1680  -23.1400   28.6920 C.3   208  ARG208      0.0348
    136  CG       -40.7690  -22.6800   28.3000 C.3   208  ARG208      0.0492
    137  CD       -40.0010  -23.7670   27.5680 C.3   208  ARG208      0.2205
    138  NE       -38.6760  -23.3040   27.1490 N.pl3 208  ARG208     -0.0865
    139  CZ       -38.4180  -22.6050   26.0410 C.cat 208  ARG208      0.5346
    140  NH1      -39.3880  -22.2630   25.1920 N.pl3 208  ARG208      0.1354
    141  NH2      -37.1680  -22.2480   25.7760 N.pl3 208  ARG208      0.1354
    142  N        -40.7590  -24.2400   31.7660 N.am  209  ARG209     -0.1977
    143  CA       -40.1260  -23.7380   32.9910 C.3   209  ARG209      0.1597
    144  C        -39.5590  -22.3340   32.7730 C.2   209  ARG209      0.2287
    145  O        -38.9620  -22.0520   31.7370 O.2   209  ARG209     -0.2864
    146  CB       -38.9830  -24.6480   33.4480 C.3   209  ARG209      0.0334
    147  CG       -39.3960  -25.9660   34.0760 C.3   209  ARG209      0.0492
    148  CD       -38.2570  -26.5090   34.9210 C.3   209  ARG209      0.2205
    149  NE       -37.0910  -26.8460   34.1110 N.pl3 209  ARG209     -0.0865
    150  CZ       -35.8210  -26.6230   34.4420 C.cat 209  ARG209      0.5346
    151  NH1      -35.4880  -26.0220   35.5780 N.pl3 209  ARG209      0.1354
    152  NH2      -34.8650  -26.9880   33.6000 N.pl3 209  ARG209      0.1354
    153  N        -55.7370  -21.4010   31.5930 N.3   285  TYR285     -0.1241
    154  CA       -54.6010  -22.1990   32.0280 C.3   285  TYR285      0.1605
    155  C        -54.4040  -23.3710   31.0780 C.2   285  TYR285      0.2264
    156  O        -55.3680  -24.0580   30.7190 O.2   285  TYR285     -0.2867
    157  CB       -54.8360  -22.7120   33.4490 C.3   285  TYR285      0.0534
    158  CG       -53.5900  -22.8640   34.2820 C.ar  285  TYR285     -0.0201
    159  CD1      -53.0430  -21.7730   34.9440 C.ar  285  TYR285     -0.0009
    160  CD2      -52.9690  -24.1000   34.4260 C.ar  285  TYR285     -0.0009
    161  CE1      -51.9150  -21.9040   35.7260 C.ar  285  TYR285      0.0417
    162  CE2      -51.8360  -24.2420   35.2170 C.ar  285  TYR285      0.0417
    163  CZ       -51.3180  -23.1390   35.8630 C.ar  285  TYR285      0.1957
    164  OH       -50.1810  -23.2710   36.6410 O.3   285  TYR285     -0.2866
    165  N        -51.3310  -25.7790   31.1240 N.3   287  CYS287     -0.1221
    166  CA       -50.0700  -26.4180   31.5170 C.3   287  CYS287      0.1808
    167  C        -49.7290  -27.6030   30.6000 C.2   287  CYS287      0.2601
    168  O        -48.5570  -27.8770   30.3400 O.2   287  CYS287     -0.2717
    169  CB       -50.1190  -26.8600   32.9880 C.3   287  CYS287      0.0970
    170  SG       -51.6240  -27.7640   33.4460 S.3   287  CYS287     -0.0800
    171  N        -50.7700  -28.2970   30.1390 N.am  288  PHE288     -0.1976
    172  CA       -50.6640  -29.3310   29.1180 C.3   288  PHE288      0.1639
    173  C        -51.8820  -29.2160   28.1950 C.2   288  PHE288      0.2290
    174  O        -52.8810  -28.6000   28.5660 O.2   288  PHE288     -0.2864
    175  CB       -50.5860  -30.7220   29.7600 C.3   288  PHE288      0.0560
    176  CG       -49.4590  -30.8690   30.7350 C.ar  288  PHE288     -0.0200
    177  CD1      -48.2010  -31.2600   30.3030 C.ar  288  PHE288     -0.0042
    178  CD2      -49.6470  -30.5860   32.0800 C.ar  288  PHE288     -0.0042
    179  CE1      -47.1510  -31.3730   31.2010 C.ar  288  PHE288     -0.0003
    180  CE2      -48.6040  -30.6930   32.9810 C.ar  288  PHE288     -0.0003
    181  CZ       -47.3540  -31.0920   32.5420 C.ar  288  PHE288     -0.0000
    182  N        -48.8890  -21.0330   29.2080 N.3   338  LEU338     -0.1231
    183  CA       -47.8280  -21.7610   29.9060 C.3   338  LEU338      0.1693
    184  C        -46.9410  -22.5090   28.9180 C.2   338  LEU338      0.2591
    185  O        -45.7580  -22.7430   29.1810 O.2   338  LEU338     -0.2718
    186  CB       -48.4180  -22.7500   30.9190 C.3   338  LEU338      0.0284
    187  CG       -48.8040  -22.1830   32.2890 C.3   338  LEU338      0.0019
    188  CD1      -50.0420  -21.3040   32.2150 C.3   338  LEU338      0.0001
    189  CD2      -49.0110  -23.3180   33.2740 C.3   338  LEU338      0.0001
    190  N        -47.5400  -22.8950   27.7950 N.am  339  GLN339     -0.1979
    191  CA       -46.8630  -23.6340   26.7310 C.3   339  GLN339      0.1601
    192  C        -45.7240  -22.8440   26.1230 C.2   339  GLN339      0.2287
    193  O        -44.6260  -23.3660   25.9400 O.2   339  GLN339     -0.2864
    194  CB       -47.8600  -23.9590   25.6130 C.3   339  GLN339      0.0394
    195  CG       -48.9650  -24.9220   26.0060 C.3   339  GLN339      0.0908
    196  CD       -48.4310  -26.3090   26.2720 C.2   339  GLN339      0.2608
    197  OE1      -47.7780  -26.9000   25.4110 O.2   339  GLN339     -0.2717
    198  NE2      -48.7000  -26.8400   27.4590 N.am  339  GLN339     -0.0878
    199  N        -43.9320  -20.5660   32.3120 N.3   343  ALA343     -0.1245
    200  CA       -44.6320  -21.1100   33.4690 C.3   343  ALA343      0.1562
    201  C        -43.7600  -21.1820   34.7340 C.2   343  ALA343      0.2260
    202  O        -43.1580  -22.2240   35.0200 O.2   343  ALA343     -0.2867
    203  CB       -45.1750  -22.4910   33.1300 C.3   343  ALA343      0.0290
    204  N        -44.1530  -22.0410   37.8680 N.3   345  TRP345     -0.1227
    205  CA       -44.8720  -22.7940   38.8990 C.3   345  TRP345      0.1737
    206  C        -46.2840  -22.2250   39.1710 C.2   345  TRP345      0.2595
    207  O        -47.1500  -22.3830   38.3290 O.2   345  TRP345     -0.2718
    208  CB       -44.0130  -22.9260   40.1640 C.3   345  TRP345      0.0564
    209  CG       -44.4560  -23.9910   41.1340 C.ar  345  TRP345      0.0003
    210  CD1      -44.7970  -23.8090   42.4410 C.ar  345  TRP345      0.0946
    211  CD2      -44.5570  -25.4050   40.8900 C.ar  345  TRP345      0.0152
    212  NE1      -45.1210  -25.0070   43.0190 N.ar  345  TRP345     -0.2442
    213  CE2      -44.9900  -26.0040   42.0900 C.ar  345  TRP345      0.0810
    214  CE3      -44.3320  -26.2160   39.7740 C.ar  345  TRP345      0.0012
    215  CZ2      -45.1990  -27.3870   42.2130 C.ar  345  TRP345      0.0191
    216  CZ3      -44.5490  -27.5980   39.8910 C.ar  345  TRP345      0.0001
    217  CH2      -44.9810  -28.1620   41.1020 C.ar  345  TRP345      0.0015
    218  N        -46.5170  -21.5730   40.3090 N.am  346  GLU346     -0.1979
    219  CA       -47.8570  -21.0490   40.6440 C.3   346  GLU346      0.1602
    220  C        -48.1180  -19.6310   40.1190 C.2   346  GLU346      0.2287
    221  O        -49.1920  -19.0690   40.3440 O.2   346  GLU346     -0.2864
    222  CB       -48.0950  -21.1060   42.1650 C.3   346  GLU346      0.0415
    223  CG       -48.1630  -22.5320   42.6980 C.3   346  GLU346      0.1163
    224  CD       -48.5730  -22.6410   44.1580 C.2   346  GLU346      0.3649
    225  OE1      -49.0050  -21.6450   44.7710 O.co2 346  GLU346     -0.2457
    226  OE2      -48.4580  -23.7540   44.7090 O.co2 346  GLU346     -0.2457
    227  N        -55.6340  -23.0850   37.1990 N.3   381  ASN381     -0.1240
    228  CA       -55.7760  -24.4920   37.5420 C.3   381  ASN381      0.1653
    229  C        -54.5800  -24.9130   38.3820 C.2   381  ASN381      0.2266
    230  O        -53.4470  -24.5160   38.0810 O.2   381  ASN381     -0.2867
    231  CB       -55.8710  -25.3280   36.2690 C.3   381  ASN381      0.1155
    232  CG       -55.5620  -26.7990   36.5020 C.2   381  ASN381      0.2627
    233  OD1      -56.4100  -27.5600   36.9640 O.2   381  ASN381     -0.2716
    234  ND2      -54.3330  -27.2040   36.1830 N.am  381  ASN381     -0.0877
    235  N        -52.6380  -28.2440   40.7710 N.3   383  GLY383     -0.1225
    236  CA       -52.5100  -29.6860   40.9580 C.3   383  GLY383      0.1811
    237  C        -52.6930  -30.4040   39.6440 C.2   383  GLY383      0.2280
    238  O        -52.1700  -29.9840   38.6260 O.2   383  GLY383     -0.2866
@<TRIPOS>BOND
     1    77    76    2
     2    76    75    1
     3    75    74    1
     4    75    78    1
     5    78    79    1
     6    79    80   ar
     7    79    81   ar
     8    80    82   ar
     9    81    83   ar
    10   118   117    1
    11    82    84   ar
    12    83    84   ar
    13    84    85    1
    14   117   116    1
    15   117   119    1
    16    86    87    1
    17   116   113    1
    18    87    88    1
    19    87    90    1
    20   113   112    1
    21   113   114    1
    22   115   114    2
    23    88    89    2
    24    90    91    1
    25   112   106   am
    26    91    92    1
    27   104   105    1
    28   108   105    1
    29   108   109    1
    30   111   109    1
    31   106   105    1
    32   106   107    2
    33   140   139    1
    34   197   196    2
    35   109   110    1
    36    92    93    1
    37   194   195    1
    38   194   191    1
    39    93    94    2
    40   141   139    1
    41   193   192    2
    42   195   196    1
    43   139   138    2
    44   192   191    1
    45   196   198   am
    46   191   190    1
    47    97    98    1
    48    96    94    1
    49    94    95    1
    50   120   121    1
    51   138   137    1
    52   137   136    1
    53   190   184   am
    54   103   101    1
    55   123   122    2
    56    98   101    1
    57    98    99    1
    58   173   174    2
    59   173   172    1
    60   136   135    1
    61   121   122    1
    62   121   124    1
    63   101   102    1
    64   135   132    1
    65   122   126   am
    66   125   124    1
    67    99   100    2
    68   184   185    2
    69   184   183    1
    70   172   175    1
    71   172   171    1
    72   182   183    1
    73   175   176    1
    74   132   131    1
    75   132   133    1
    76   183   186    1
    77   126   127    1
    78   131   128   am
    79   171   167   am
    80   177   176   ar
    81   177   179   ar
    82   168   167    2
    83   127   128    1
    84   127   130    1
    85   128   129    2
    86   167   166    1
    87   156   155    2
    88   176   178   ar
    89   186   187    1
    90   155   154    1
    91   165   166    1
    92   133   134    2
    93   133   142   am
    94   179   181   ar
    95    65    64    2
    96   166   169    1
    97   153   154    1
    98   145   144    2
    99   142   143    1
   100    64    63    1
   101    16    14    1
   102   154   157    1
   103   178   180   ar
   104   188   187    1
   105   187   189    1
   106   199   200    1
   107    58    57    2
   108   181   180   ar
   109    59    56    1
   110    59    60    1
   111    15    14    1
   112    66    63    1
   113    66    67    1
   114   144   143    1
   115   169   170    1
   116   143   146    1
   117    14    13    1
   118    63    62    1
   119   203   200    1
   120    57    56    1
   121    56    55    1
   122    60    61    1
   123   146   147    1
   124   157   158    1
   125   200   201    1
   126    68    67   ar
   127    68    70   ar
   128   152   150    1
   129    67    69   ar
   130    45    46    1
   131    45    44    1
   132    22    21    1
   133    46    40    1
   134   147   148    1
   135   149   150    2
   136   149   148    1
   137   158   160   ar
   138   158   159   ar
   139    13    10    1
   140    70    72   ar
   141   160   162   ar
   142   150   151    1
   143    69    71   ar
   144    55    61    1
   145    55    49   am
   146   201   202    2
   147    21    18    1
   148   159   161   ar
   149    44    41    1
   150    40    41    1
   151   162   163   ar
   152    50    49    2
   153    72    71   ar
   154    72    73    1
   155    43    42    2
   156    10    11    1
   157    10     9    1
   158    49    48    1
   159   161   163   ar
   160    12    11    2
   161   163   164    1
   162    41    42    1
   163    18    17    1
   164    18    19    1
   165   234   232   am
   166   231   232    1
   167   231   228    1
   168   232   233    2
   169    53    51    1
   170    32    30   ar
   171    32    33   ar
   172    48    51    1
   173    48    47    1
   174    30    28   ar
   175    33    31   ar
   176   227   228    1
   177    19    20    2
   178    51    52    1
   179   228   229    1
   180   204   205    1
   181    28    29   ar
   182    28    27    1
   183    31    29   ar
   184   230   229    2
   185   207   206    2
   186    27    24    1
   187   238   237    2
   188    52    54    1
   189   205   206    1
   190   205   208    1
   191     8     7    2
   192   206   218   am
   193    39    38    1
   194   237   236    1
   195    25    24    1
   196    25    26    2
   197   214   216   ar
   198   214   211   ar
   199     7     6    1
   200    24    23    1
   201     6     5    1
   202   216   217   ar
   203    38    35    1
   204   220   221    2
   205   220   219    1
   206   208   209    1
   207   218   219    1
   208   219   222    1
   209   235   236    1
   210     5     3   am
   211   211   209   ar
   212   211   213   ar
   213   217   215   ar
   214   209   210   ar
   215    35    36    1
   216    35    34    1
   217    36    37    2
   218   213   215   ar
   219   213   212   ar
   220   222   223    1
   221     3     4    2
   222     3     2    1
   223   210   212   ar
   224   223   224    1
   225     2     1    1
   226   224   226   ar
   227   224   225   ar
