@<TRIPOS>MOLECULE
tmp/5ab9A01.pdb
 132 133 0 0 0
SMALL
GASTEIGER

@<TRIPOS>ATOM
      1  N        100.6760   95.4720  -41.0580 N.3    14  PHE14      -0.1241
      2  CA       100.0110   94.4820  -40.2240 C.3    14  PHE14       0.1605
      3  C        100.4070   94.5790  -38.7600 C.2    14  PHE14       0.2264
      4  O        101.5990   94.6310  -38.4450 O.2    14  PHE14      -0.2867
      5  CB       100.3380   93.0810  -40.7340 C.3    14  PHE14       0.0534
      6  CG        99.7500   91.9810  -39.8950 C.ar   14  PHE14      -0.0203
      7  CD1       98.3830   91.7580  -39.8950 C.ar   14  PHE14      -0.0042
      8  CD2      100.5610   91.1550  -39.1230 C.ar   14  PHE14      -0.0042
      9  CE1       97.8230   90.7360  -39.1420 C.ar   14  PHE14      -0.0003
     10  CE2      100.0090   90.1270  -38.3610 C.ar   14  PHE14      -0.0003
     11  CZ        98.6370   89.9140  -38.3730 C.ar   14  PHE14      -0.0000
     12  N         92.9130   92.1730  -35.8790 N.3    50  LEU50      -0.1231
     13  CA        93.8600   92.2210  -36.9860 C.3    50  LEU50       0.1693
     14  C         93.7390   93.5660  -37.6780 C.2    50  LEU50       0.2592
     15  O         92.6850   93.8780  -38.2490 O.2    50  LEU50      -0.2718
     16  CB        93.5920   91.0940  -37.9860 C.3    50  LEU50       0.0284
     17  CG        93.4820   89.6830  -37.4170 C.3    50  LEU50       0.0019
     18  CD1       93.1400   88.7320  -38.5520 C.3    50  LEU50       0.0001
     19  CD2       94.7820   89.2820  -36.7590 C.3    50  LEU50       0.0001
     20  N         94.8110   94.3480  -37.6090 N.am   51  TRP51      -0.1962
     21  CA        94.8700   95.6860  -38.1920 C.3    51  TRP51       0.1771
     22  C         95.8320   95.7210  -39.3660 C.2    51  TRP51       0.2619
     23  O         96.9220   95.1590  -39.2920 O.2    51  TRP51      -0.2715
     24  CB        95.3220   96.7150  -37.1510 C.3    51  TRP51       0.0590
     25  CG        94.3430   96.9280  -36.0490 C.ar   51  TRP51       0.0006
     26  CD1       94.2580   96.2330  -34.8770 C.ar   51  TRP51       0.0946
     27  CD2       93.2900   97.8920  -36.0240 C.ar   51  TRP51       0.0152
     28  NE1       93.2220   96.7230  -34.1120 N.ar   51  TRP51      -0.2442
     29  CE2       92.6120   97.7430  -34.7970 C.ar   51  TRP51       0.0810
     30  CE3       92.8590   98.8730  -36.9240 C.ar   51  TRP51       0.0012
     31  CZ2       91.5180   98.5310  -34.4510 C.ar   51  TRP51       0.0191
     32  CZ3       91.7790   99.6580  -36.5750 C.ar   51  TRP51       0.0001
     33  CH2       91.1200   99.4810  -35.3500 C.ar   51  TRP51       0.0015
     34  N         95.4200   96.3730  -40.4480 N.am   52  VAL52      -0.1963
     35  CA        96.3250   96.7350  -41.5330 C.3    52  VAL52       0.1727
     36  C         96.0160   98.1630  -41.9470 C.2    52  VAL52       0.2616
     37  O         94.9380   98.6780  -41.6520 O.2    52  VAL52      -0.2715
     38  CB        96.1940   95.8210  -42.7720 C.3    52  VAL52       0.0290
     39  CG1       96.7960   94.4380  -42.5090 C.3    52  VAL52       0.0023
     40  CG2       94.7450   95.7250  -43.2080 C.3    52  VAL52       0.0023
     41  N         96.9550   98.7950  -42.6400 N.am   53  ASP53      -0.1957
     42  CA        96.7210  100.1280  -43.1960 C.3    53  ASP53       0.1840
     43  C         96.0150  100.0640  -44.5430 C.2    53  ASP53       0.2623
     44  O         95.3060  100.9890  -44.9290 O.2    53  ASP53      -0.2715
     45  CB        98.0360  100.8900  -43.3430 C.3    53  ASP53       0.1450
     46  CG        98.6880  101.1830  -42.0120 C.2    53  ASP53       0.3671
     47  OD1       97.9640  101.5010  -41.0400 O.co2  53  ASP53      -0.2456
     48  OD2       99.9290  101.0860  -41.9360 O.co2  53  ASP53      -0.2456
     49  N         96.2310   98.9740  -45.2680 N.am   54  SER54      -0.1936
     50  CA        95.5790   98.7870  -46.5570 C.3    54  SER54       0.2055
     51  C         95.2520   97.3160  -46.7430 C.2    54  SER54       0.2644
     52  O         95.8950   96.4440  -46.1580 O.2    54  SER54      -0.2714
     53  CB        96.4580   99.2980  -47.7010 C.3    54  SER54       0.2130
     54  OG        97.7350   98.6920  -47.6740 O.3    54  SER54      -0.2179
     55  N         94.2370   97.0470  -47.5510 N.am   55  THR55      -0.1937
     56  CA        93.7230   95.6960  -47.7130 C.3    55  THR55       0.2013
     57  C         94.7170   94.8050  -48.4500 C.2    55  THR55       0.2484
     58  O         95.1740   95.1400  -49.5390 O.2    55  THR55      -0.2729
     59  CB        92.3810   95.7100  -48.4770 C.3    55  THR55       0.1807
     60  OG1       91.4640   96.6010  -47.8250 O.3    55  THR55      -0.2208
     61  CG2       91.7830   94.3160  -48.5370 C.3    55  THR55       0.0379
     62  N         95.0610   93.6560  -47.8600 N.am   56  PRO56      -0.2726
     63  CA        95.9240   92.7210  -48.5860 C.3    56  PRO56       0.1402
     64  C         95.1280   91.9660  -49.6510 C.2    56  PRO56       0.2269
     65  O         93.8980   92.0270  -49.6570 O.2    56  PRO56      -0.2865
     66  CB        96.4310   91.7860  -47.4830 C.3    56  PRO56       0.0296
     67  CG        95.3640   91.8100  -46.4430 C.3    56  PRO56       0.0237
     68  CD        94.7040   93.1680  -46.5160 C.3    56  PRO56       0.0939
     69  N         92.0690   85.5170  -44.5390 N.3   125  CYS125     -0.1221
     70  CA        92.0140   86.8820  -44.0620 C.3   125  CYS125      0.1808
     71  C         90.7730   87.5170  -44.6640 C.2   125  CYS125      0.2601
     72  O         90.6100   87.5360  -45.8850 O.2   125  CYS125     -0.2717
     73  CB        93.2930   87.6310  -44.4460 C.3   125  CYS125      0.0970
     74  SG        93.4330   89.3030  -43.8230 S.3   125  CYS125     -0.0800
     75  N         89.8780   87.9920  -43.8080 N.am  126  GLU126     -0.1966
     76  CA        88.6440   88.6270  -44.2600 C.3   126  GLU126      0.1718
     77  C         88.6360   90.0910  -43.8550 C.2   126  GLU126      0.2458
     78  O         89.1500   90.4390  -42.7940 O.2   126  GLU126     -0.2730
     79  CB        87.4170   87.9190  -43.6800 C.3   126  GLU126      0.0428
     80  CG        87.1660   86.5360  -44.2500 C.3   126  GLU126      0.1163
     81  CD        86.1620   85.7500  -43.4310 C.2   126  GLU126      0.3649
     82  OE1       85.4570   86.3670  -42.6050 O.co2 126  GLU126     -0.2457
     83  OE2       86.0800   84.5150  -43.6110 O.co2 126  GLU126     -0.2457
     84  N         88.0670   90.9600  -44.7050 N.am  127  PRO127     -0.2716
     85  CA        87.9600   92.3820  -44.3720 C.3   127  PRO127      0.1521
     86  C         86.9590   92.6190  -43.2470 C.2   127  PRO127      0.2440
     87  O         86.1240   91.7530  -42.9820 O.2   127  PRO127     -0.2731
     88  CB        87.4720   93.0080  -45.6790 C.3   127  PRO127      0.0310
     89  CG        86.7100   91.9190  -46.3390 C.3   127  PRO127      0.0237
     90  CD        87.4690   90.6610  -46.0180 C.3   127  PRO127      0.0939
     91  N         87.0560   93.7740  -42.5790 N.am  128  PRO128     -0.2727
     92  CA        86.1200   94.0870  -41.4940 C.3   128  PRO128      0.1402
     93  C         84.6620   94.1250  -41.9510 C.2   128  PRO128      0.2269
     94  O         84.3840   94.4190  -43.1150 O.2   128  PRO128     -0.2865
     95  CB        86.5760   95.4750  -41.0290 C.3   128  PRO128      0.0296
     96  CG        88.0200   95.5320  -41.3860 C.3   128  PRO128      0.0237
     97  CD        88.1580   94.7500  -42.6620 C.3   128  PRO128      0.0939
     98  N         82.9260   98.3820  -39.0490 N.3   132  SER132     -0.1202
     99  CA        84.0900   98.0250  -38.2400 C.3   132  SER132      0.2020
    100  C         85.3880   98.5030  -38.8780 C.2   132  SER132      0.2619
    101  O         85.4710   98.6540  -40.0950 O.2   132  SER132     -0.2717
    102  CB        84.1500   96.5120  -38.0160 C.3   132  SER132      0.2103
    103  OG        83.0990   96.0860  -37.1670 O.3   132  SER132     -0.2182
    104  N         86.4000   98.7270  -38.0450 N.am  133  ASP133     -0.1959
    105  CA        87.6890   99.2230  -38.5100 C.3   133  ASP133      0.1840
    106  C         88.7450   98.1240  -38.5520 C.2   133  ASP133      0.2622
    107  O         89.8510   98.3370  -39.0470 O.2   133  ASP133     -0.2715
    108  CB        88.1720  100.3640  -37.6120 C.3   133  ASP133      0.1450
    109  CG        87.3210  101.6110  -37.7390 C.2   133  ASP133      0.3671
    110  OD1       86.8620  101.9150  -38.8610 O.co2 133  ASP133     -0.2456
    111  OD2       87.1110  102.2840  -36.7070 O.co2 133  ASP133     -0.2456
    112  N         88.4120   96.9520  -38.0210 N.am  134  CYS134     -0.1954
    113  CA        89.3500   95.8400  -38.0090 C.3   134  CYS134      0.1843
    114  C         88.5940   94.5240  -38.0320 C.2   134  CYS134      0.2626
    115  O         87.3740   94.4970  -37.8940 O.2   134  CYS134     -0.2714
    116  CB        90.2680   95.9080  -36.7830 C.3   134  CYS134      0.0997
    117  SG        89.4610   95.6250  -35.1930 S.3   134  CYS134     -0.0797
    118  N         89.3260   93.4380  -38.2400 N.am  135  THR135     -0.1950
    119  CA        88.7710   92.0950  -38.1990 C.3   135  THR135      0.1897
    120  C         89.1990   91.4520  -36.8890 C.2   135  THR135      0.2313
    121  O         90.3060   91.6960  -36.4140 O.2   135  THR135     -0.2863
    122  CB        89.2550   91.2710  -39.4050 C.3   135  THR135      0.1794
    123  OG1       88.7760   91.8860  -40.6080 O.3   135  THR135     -0.2208
    124  CG2       88.7630   89.8280  -39.3440 C.3   135  THR135      0.0378
    125  N        100.7160   86.9680  -41.1140 N.3   162  LEU162     -0.1245
    126  CA        99.9220   87.2810  -42.2850 C.3   162  LEU162      0.1561
    127  C        100.6870   86.6790  -43.4520 C.2   162  LEU162      0.2260
    128  O        101.8670   86.9640  -43.6090 O.2   162  LEU162     -0.2867
    129  CB        99.7530   88.7910  -42.4320 C.3   162  LEU162      0.0270
    130  CG        98.7440   89.2730  -43.4680 C.3   162  LEU162      0.0019
    131  CD1       97.3400   88.9950  -42.9660 C.3   162  LEU162      0.0001
    132  CD2       98.9320   90.7670  -43.7490 C.3   162  LEU162      0.0001
@<TRIPOS>BOND
     1    65    64    2
     2    64    63    1
     3    58    57    2
     4    63    62    1
     5    63    66    1
     6    61    59    1
     7    59    60    1
     8    59    56    1
     9    57    62   am
    10    57    56    1
    11    62    68    1
    12    56    55    1
    13    53    54    1
    14    53    50    1
    15    55    51   am
    16    66    67    1
    17    51    50    1
    18    51    52    2
    19    50    49    1
    20    68    67    1
    21    89    90    1
    22    89    88    1
    23    90    84    1
    24    72    71    2
    25    88    85    1
    26    49    43   am
    27    44    43    2
    28    84    85    1
    29    84    77   am
    30    71    70    1
    31    71    75   am
    32    43    42    1
    33    69    70    1
    34    73    70    1
    35    73    74    1
    36    85    86    1
    37    76    77    1
    38    76    75    1
    39    76    79    1
    40    80    79    1
    41    80    81    1
    42    77    78    2
    43   132   130    1
    44    83    81   ar
    45   128   127    2
    46   130   131    1
    47   130   129    1
    48   127   126    1
    49    81    82   ar
    50    45    42    1
    51    45    46    1
    52    86    87    2
    53    86    91   am
    54    40    38    1
    55    42    41    1
    56    94    93    2
    57    38    39    1
    58    38    35    1
    59    97    91    1
    60    97    96    1
    61    41    36   am
    62    91    92    1
    63   129   126    1
    64   126   125    1
    65    46    48   ar
    66    46    47   ar
    67    93    92    1
    68    36    37    2
    69    36    35    1
    70    35    34    1
    71    92    95    1
    72    96    95    1
    73     1     2    1
    74     5     2    1
    75     5     6    1
    76   123   122    1
    77    34    22   am
    78     2     3    1
    79   101   100    2
    80     7     6   ar
    81     7     9   ar
    82     6     8   ar
    83   122   124    1
    84   122   119    1
    85    22    23    2
    86    22    21    1
    87     9    11   ar
    88     8    10   ar
    89    98    99    1
    90   107   106    2
    91   100    99    1
    92   100   104   am
    93   110   109   ar
    94     3     4    2
    95   106   105    1
    96   106   112   am
    97    18    17    1
    98   105   104    1
    99   105   108    1
   100    11    10   ar
   101    15    14    2
   102   118   119    1
   103   118   114   am
   104    99   102    1
   105   119   120    1
   106    21    20    1
   107    21    24    1
   108   114   113    1
   109   114   115    2
   110   112   113    1
   111   102   103    1
   112   113   116    1
   113    16    17    1
   114    16    13    1
   115   109   108    1
   116   109   111   ar
   117    14    20   am
   118    14    13    1
   119    17    19    1
   120    24    25    1
   121    13    12    1
   122    30    32   ar
   123    30    27   ar
   124   120   121    2
   125   116   117    1
   126    32    33   ar
   127    25    27   ar
   128    25    26   ar
   129    27    29   ar
   130    33    31   ar
   131    26    28   ar
   132    29    31   ar
   133    29    28   ar
