@<TRIPOS>MOLECULE
tmp/5abaB00.pdb
 93 92 0 0 0
SMALL
GASTEIGER

@<TRIPOS>ATOM
      1  N        125.8440  101.3480  -35.9520 N.3    52  LEU52      -0.1245
      2  CA       126.8300  101.5450  -37.0050 C.3    52  LEU52       0.1561
      3  C        126.7140  102.9710  -37.5340 C.2    52  LEU52       0.2260
      4  O        125.6380  103.3870  -37.9400 O.2    52  LEU52      -0.2867
      5  CB       126.6100  100.5500  -38.1380 C.3    52  LEU52       0.0270
      6  CG       126.3810   99.1020  -37.6960 C.3    52  LEU52       0.0019
      7  CD1      126.2020   98.2440  -38.9460 C.3    52  LEU52       0.0001
      8  CD2      127.5340   98.6110  -36.8450 C.3    52  LEU52       0.0001
      9  N        128.4850  105.8460  -40.2540 N.3    54  VAL54      -0.1231
     10  CA       129.4010  106.0970  -41.3670 C.3    54  VAL54       0.1692
     11  C        129.3090  107.5520  -41.8130 C.2    54  VAL54       0.2592
     12  O        128.2970  108.2150  -41.5690 O.2    54  VAL54      -0.2718
     13  CB       129.0970  105.2000  -42.5770 C.3    54  VAL54       0.0266
     14  CG1      129.3420  103.7370  -42.2280 C.3    54  VAL54       0.0020
     15  CG2      127.6540  105.4040  -43.0390 C.3    54  VAL54       0.0020
     16  N        130.3550  108.0400  -42.4760 N.am   55  ASP55      -0.1960
     17  CA       130.3170  109.3810  -43.0670 C.3    55  ASP55       0.1840
     18  C        129.7440  109.3310  -44.4720 C.2    55  ASP55       0.2623
     19  O        129.2410  110.3320  -44.9860 O.2    55  ASP55      -0.2715
     20  CB       131.7130  110.0040  -43.1060 C.3    55  ASP55       0.1450
     21  CG       132.2540  110.3310  -41.7330 C.2    55  ASP55       0.3671
     22  OD1      131.4480  110.6410  -40.8280 O.co2  55  ASP55      -0.2456
     23  OD2      133.4910  110.2750  -41.5620 O.co2  55  ASP55      -0.2456
     24  N        129.8620  108.1740  -45.1150 N.am   56  SER56      -0.1936
     25  CA       129.2810  108.0030  -46.4400 C.3    56  SER56       0.2055
     26  C        128.7680  106.5770  -46.6020 C.2    56  SER56       0.2644
     27  O        129.2480  105.6460  -45.9490 O.2    56  SER56      -0.2714
     28  CB       130.2910  108.3520  -47.5400 C.3    56  SER56       0.2130
     29  OG       131.4790  107.5990  -47.4230 O.3    56  SER56      -0.2179
     30  N        127.7540  106.4300  -47.4540 N.am   57  THR57      -0.1937
     31  CA       127.0790  105.1500  -47.6630 C.3    57  THR57       0.2013
     32  C        127.9600  104.1130  -48.3560 C.2    57  THR57       0.2484
     33  O        128.4310  104.3350  -49.4640 O.2    57  THR57      -0.2729
     34  CB       125.8030  105.3340  -48.5050 C.3    57  THR57       0.1807
     35  OG1      124.9550  106.3110  -47.8850 O.3    57  THR57      -0.2208
     36  CG2      125.0460  104.0100  -48.6410 C.3    57  THR57       0.0379
     37  N        128.1700  102.9610  -47.7090 N.am   58  PRO58      -0.2726
     38  CA       128.9150  101.8980  -48.3820 C.3    58  PRO58       0.1402
     39  C        128.0700  101.2400  -49.4830 C.2    58  PRO58       0.2269
     40  O        126.8480  101.3870  -49.4990 O.2    58  PRO58      -0.2865
     41  CB       129.2280  100.9200  -47.2380 C.3    58  PRO58       0.0296
     42  CG       128.1250  101.1180  -46.2820 C.3    58  PRO58       0.0237
     43  CD       127.7920  102.5940  -46.3310 C.3    58  PRO58       0.0939
     44  N        124.8600   95.0520  -44.3640 N.3   127  CYS127     -0.1221
     45  CA       124.8370   96.4150  -43.8460 C.3   127  CYS127      0.1808
     46  C        123.6960   97.1710  -44.5080 C.2   127  CYS127      0.2601
     47  O        123.7680   97.4790  -45.6910 O.2   127  CYS127     -0.2717
     48  CB       126.1720   97.1180  -44.1160 C.3   127  CYS127      0.0970
     49  SG       126.2340   98.8220  -43.4950 S.3   127  CYS127     -0.0800
     50  N        122.6400   97.4420  -43.7530 N.am  128  GLU128     -0.1966
     51  CA       121.4450   98.0620  -44.3020 C.3   128  GLU128      0.1718
     52  C        121.4020   99.5500  -43.9420 C.2   128  GLU128      0.2458
     53  O        121.9790   99.9590  -42.9440 O.2   128  GLU128     -0.2730
     54  CB       120.1950   97.3420  -43.7870 C.3   128  GLU128      0.0428
     55  CG       119.9470   95.9910  -44.4490 C.3   128  GLU128      0.1163
     56  CD       119.6950   96.1050  -45.9450 C.2   128  GLU128      0.3649
     57  OE1      118.8970   96.9770  -46.3500 O.co2 128  GLU128     -0.2457
     58  OE2      120.2900   95.3220  -46.7190 O.co2 128  GLU128     -0.2457
     59  N        120.7410  100.3600  -44.7780 N.am  129  PRO129     -0.2716
     60  CA       120.5900  101.7900  -44.4820 C.3   129  PRO129      0.1521
     61  C        119.7020  102.0110  -43.2610 C.2   129  PRO129      0.2440
     62  O        118.8700  101.1560  -42.9450 O.2   129  PRO129     -0.2731
     63  CB       119.9370  102.3470  -45.7550 C.3   129  PRO129      0.0310
     64  CG       120.2800  101.3580  -46.8170 C.3   129  PRO129      0.0237
     65  CD       120.2780  100.0290  -46.1360 C.3   129  PRO129      0.0939
     66  N        119.8840  103.1490  -42.5680 N.am  130  PRO130     -0.2727
     67  CA       119.0500  103.4840  -41.4100 C.3   130  PRO130      0.1402
     68  C        117.5680  103.5500  -41.7780 C.2   130  PRO130      0.2269
     69  O        117.2350  103.8690  -42.9250 O.2   130  PRO130     -0.2865
     70  CB       119.5650  104.8690  -40.9920 C.3   130  PRO130      0.0296
     71  CG       120.9550  104.9520  -41.5560 C.3   130  PRO130      0.0237
     72  CD       120.9000  104.1800  -42.8410 C.3   130  PRO130      0.0939
     73  N        119.5940  108.2230  -38.0080 N.3   135  ASP135     -0.1225
     74  CA       120.8880  108.6740  -38.5070 C.3   135  ASP135      0.1805
     75  C        121.9190  107.5500  -38.5270 C.2   135  ASP135      0.2598
     76  O        123.0470  107.7350  -38.9790 O.2   135  ASP135     -0.2718
     77  CB       121.4030  109.8370  -37.6560 C.3   135  ASP135      0.1424
     78  CG       120.4980  111.0510  -37.7300 C.2   135  ASP135      0.3668
     79  OD1      120.1280  111.4310  -38.8550 O.co2 135  ASP135     -0.2456
     80  OD2      120.1430  111.6040  -36.6650 O.co2 135  ASP135     -0.2456
     81  N        121.5350  106.3840  -38.0250 N.am  136  CYS136     -0.1956
     82  CA       122.4500  105.2540  -37.9980 C.3   136  CYS136      0.1843
     83  C        121.6770  103.9580  -38.1010 C.2   136  CYS136      0.2626
     84  O        120.4530  103.9400  -37.9700 O.2   136  CYS136     -0.2714
     85  CB       123.2850  105.2540  -36.7110 C.3   136  CYS136      0.0997
     86  SG       122.3270  104.9470  -35.1880 S.3   136  CYS136     -0.0797
     87  N        122.4130  102.8710  -38.3010 N.am  137  THR137     -0.1950
     88  CA       121.8250  101.5430  -38.3640 C.3   137  THR137      0.1897
     89  C        122.1440  100.8100  -37.0640 C.2   137  THR137      0.2313
     90  O        123.2140  101.0030  -36.4910 O.2   137  THR137     -0.2863
     91  CB       122.3520  100.7800  -39.5820 C.3   137  THR137      0.1794
     92  OG1      121.9110  101.4430  -40.7760 O.3   137  THR137     -0.2208
     93  CG2      121.8510   99.3310  -39.6070 C.3   137  THR137      0.0378
@<TRIPOS>BOND
     1    40    39    2
     2    39    38    1
     3    33    32    2
     4    36    34    1
     5    34    35    1
     6    34    31    1
     7    38    37    1
     8    38    41    1
     9    32    37   am
    10    32    31    1
    11    37    43    1
    12    31    30    1
    13    28    29    1
    14    28    25    1
    15    30    26   am
    16    41    42    1
    17    64    65    1
    18    64    63    1
    19    58    56   ar
    20    26    25    1
    21    26    27    2
    22    25    24    1
    23    57    56   ar
    24    43    42    1
    25    65    59    1
    26    56    55    1
    27    63    60    1
    28    47    46    2
    29    24    18   am
    30    19    18    2
    31    59    60    1
    32    59    52   am
    33    46    45    1
    34    46    50   am
    35    60    61    1
    36    18    17    1
    37    55    54    1
    38    44    45    1
    39    51    52    1
    40    51    54    1
    41    51    50    1
    42    48    45    1
    43    48    49    1
    44    52    53    2
    45    61    62    2
    46    61    66   am
    47    20    17    1
    48    20    21    1
    49    17    16    1
    50    15    13    1
    51    69    68    2
    52    72    66    1
    53    72    71    1
    54    13    14    1
    55    13    10    1
    56    66    67    1
    57    16    11   am
    58    11    12    2
    59    11    10    1
    60    68    67    1
    61    21    23   ar
    62    21    22   ar
    63    71    70    1
    64    67    70    1
    65    10     9    1
    66    92    91    1
    67    93    91    1
    68    91    88    1
    69    76    75    2
    70     7     6    1
    71    79    78   ar
    72    75    74    1
    73    75    81   am
    74    74    73    1
    75    74    77    1
    76    88    87    1
    77    88    89    1
    78    87    83   am
    79     5     6    1
    80     5     2    1
    81    83    82    1
    82    83    84    2
    83    81    82    1
    84    82    85    1
    85     4     3    2
    86    78    77    1
    87    78    80   ar
    88     6     8    1
    89     3     2    1
    90    89    90    2
    91     2     1    1
    92    85    86    1
