@<TRIPOS>MOLECULE
tmp/5abgA00.pdb
 187 184 0 0 0
SMALL
GASTEIGER

@<TRIPOS>ATOM
      1  N         30.4920   44.0520  245.5820 N.3   132  GLY132     -0.1210
      2  CA        31.1370   45.3180  245.8830 C.3   132  GLY132      0.1956
      3  C         30.8090   45.8580  247.2580 C.2   132  GLY132      0.2612
      4  O         30.8540   47.0720  247.4720 O.2   132  GLY132     -0.2717
      5  N         30.4880   44.9630  248.1880 N.am  133  PHE133     -0.1962
      6  CA        30.0350   45.3690  249.5130 C.3   133  PHE133      0.1771
      7  C         31.1500   45.3680  250.5540 C.2   133  PHE133      0.2619
      8  O         32.2250   44.8070  250.3250 O.2   133  PHE133     -0.2715
      9  CB        28.9000   44.4580  249.9900 C.3   133  PHE133      0.0574
     10  CG        29.2180   42.9950  249.8950 C.ar  133  PHE133     -0.0200
     11  CD1       30.0320   42.3870  250.8340 C.ar  133  PHE133     -0.0042
     12  CD2       28.7070   42.2310  248.8590 C.ar  133  PHE133     -0.0042
     13  CE1       30.3310   41.0400  250.7420 C.ar  133  PHE133     -0.0003
     14  CE2       28.9990   40.8870  248.7630 C.ar  133  PHE133     -0.0003
     15  CZ        29.8160   40.2900  249.7040 C.ar  133  PHE133     -0.0000
     16  N         30.8840   46.0190  251.6870 N.am  134  TYR134     -0.1974
     17  CA        31.7240   45.8990  252.8740 C.3   134  TYR134      0.1639
     18  C         31.2450   44.7030  253.6910 C.2   134  TYR134      0.2290
     19  O         30.0440   44.4330  253.7610 O.2   134  TYR134     -0.2864
     20  CB        31.6750   47.1660  253.7360 C.3   134  TYR134      0.0560
     21  CG        32.1740   48.4290  253.0670 C.ar  134  TYR134     -0.0198
     22  CD1       33.5250   48.7590  253.0770 C.ar  134  TYR134     -0.0009
     23  CD2       31.2920   49.3030  252.4490 C.ar  134  TYR134     -0.0009
     24  CE1       33.9820   49.9180  252.4780 C.ar  134  TYR134      0.0417
     25  CE2       31.7410   50.4640  251.8450 C.ar  134  TYR134      0.0417
     26  CZ        33.0880   50.7650  251.8630 C.ar  134  TYR134      0.1957
     27  OH        33.5370   51.9210  251.2640 O.3   134  TYR134     -0.2866
     28  N         35.0290   45.1170  249.0460 N.3   163  LYS163     -0.1245
     29  CA        35.7190   46.2560  249.6450 C.3   163  LYS163      0.1561
     30  C         36.7910   45.8350  250.6520 C.2   163  LYS163      0.2260
     31  O         37.7960   46.5280  250.8180 O.2   163  LYS163     -0.2867
     32  CB        34.7090   47.1810  250.3320 C.3   163  LYS163      0.0271
     33  CG        33.8090   47.9540  249.3730 C.3   163  LYS163      0.0035
     34  CD        34.5610   49.1010  248.7100 C.3   163  LYS163      0.0206
     35  CE        33.6260   50.0170  247.9310 C.3   163  LYS163      0.1093
     36  NZ        33.1180   49.3940  246.6760 N.3   163  LYS163     -0.1314
     37  N         35.1440   54.8090  244.2720 N.3   239  ASP239     -0.1225
     38  CA        34.0390   55.0920  245.1870 C.3   239  ASP239      0.1805
     39  C         34.4900   55.1240  246.6500 C.2   239  ASP239      0.2597
     40  O         35.3520   54.3500  247.0640 O.2   239  ASP239     -0.2718
     41  CB        32.9250   54.0550  245.0090 C.3   239  ASP239      0.1424
     42  CG        33.4230   52.6320  245.1540 C.2   239  ASP239      0.3668
     43  OD1       34.6050   52.3880  244.8520 O.co2 239  ASP239     -0.2456
     44  OD2       32.6340   51.7550  245.5660 O.co2 239  ASP239     -0.2456
     45  N         33.8940   56.0330  247.4200 N.am  240  ASP240     -0.1974
     46  CA        34.1550   56.1690  248.8560 C.3   240  ASP240      0.1709
     47  C         35.6130   56.4910  249.1710 C.2   240  ASP240      0.2293
     48  O         36.2610   55.7730  249.9350 O.2   240  ASP240     -0.2864
     49  CB        33.7520   54.8940  249.6030 C.3   240  ASP240      0.1436
     50  CG        32.2660   54.6190  249.5280 C.2   240  ASP240      0.3671
     51  OD1       31.5080   55.5140  249.0980 O.co2 240  ASP240     -0.2456
     52  OD2       31.8560   53.5080  249.9190 O.co2 240  ASP240     -0.2456
     53  N         34.1280   53.1460  238.2750 N.3   275  CYS275     -0.1235
     54  CA        33.1420   53.6880  239.1990 C.3   275  CYS275      0.1677
     55  C         33.6030   55.0650  239.6660 C.2   275  CYS275      0.2270
     56  O         34.6690   55.1860  240.2690 O.2   275  CYS275     -0.2867
     57  CB        32.9420   52.7590  240.3940 C.3   275  CYS275      0.0956
     58  SG        31.5500   53.2350  241.4360 S.3   275  CYS275     -0.0801
     59  N         29.0730   58.9790  242.4200 N.3   279  TYR279     -0.1241
     60  CA        28.3570   57.8860  241.7640 C.3   279  TYR279      0.1605
     61  C         26.8440   57.9490  241.9760 C.2   279  TYR279      0.2264
     62  O         26.1260   57.0120  241.6270 O.2   279  TYR279     -0.2867
     63  CB        28.9000   56.5380  242.2510 C.3   279  TYR279      0.0534
     64  CG        28.9180   56.3680  243.7510 C.ar  279  TYR279     -0.0201
     65  CD1       27.7790   55.9800  244.4410 C.ar  279  TYR279     -0.0009
     66  CD2       30.0810   56.5840  244.4760 C.ar  279  TYR279     -0.0009
     67  CE1       27.7950   55.8170  245.8120 C.ar  279  TYR279      0.0417
     68  CE2       30.1090   56.4250  245.8460 C.ar  279  TYR279      0.0417
     69  CZ        28.9650   56.0420  246.5090 C.ar  279  TYR279      0.1957
     70  OH        28.9960   55.8850  247.8730 O.3   279  TYR279     -0.2866
     71  N         25.3550   62.9970  245.8400 N.3   283  TRP283     -0.1241
     72  CA        26.7500   63.2360  246.1980 C.3   283  TRP283      0.1605
     73  C         27.4690   64.0690  245.1410 C.2   283  TRP283      0.2264
     74  O         28.6120   64.4840  245.3410 O.2   283  TRP283     -0.2867
     75  CB        27.4860   61.9130  246.4040 C.3   283  TRP283      0.0550
     76  CG        27.1350   61.2290  247.6870 C.ar  283  TRP283      0.0003
     77  CD1       26.0100   61.4160  248.4360 C.ar  283  TRP283      0.0946
     78  CD2       27.9210   60.2540  248.3810 C.ar  283  TRP283      0.0152
     79  NE1       26.0440   60.6140  249.5490 N.ar  283  TRP283     -0.2442
     80  CE2       27.2080   59.8910  249.5400 C.ar  283  TRP283      0.0810
     81  CE3       29.1590   59.6510  248.1320 C.ar  283  TRP283      0.0012
     82  CZ2       27.6900   58.9520  250.4490 C.ar  283  TRP283      0.0191
     83  CZ3       29.6360   58.7190  249.0360 C.ar  283  TRP283      0.0001
     84  CH2       28.9020   58.3790  250.1820 C.ar  283  TRP283      0.0015
     85  N         26.8780   53.9900  238.1670 N.3   306  TRP306     -0.1227
     86  CA        25.9450   54.9660  238.7170 C.3   306  TRP306      0.1737
     87  C         24.8880   54.2480  239.5500 C.2   306  TRP306      0.2596
     88  O         24.3400   53.2360  239.1080 O.2   306  TRP306     -0.2718
     89  CB        25.2970   55.7570  237.5780 C.3   306  TRP306      0.0564
     90  CG        24.4840   56.9370  238.0030 C.ar  306  TRP306      0.0003
     91  CD1       23.1260   57.0510  237.9720 C.ar  306  TRP306      0.0946
     92  CD2       24.9800   58.1790  238.5130 C.ar  306  TRP306      0.0152
     93  NE1       22.7440   58.2870  238.4340 N.ar  306  TRP306     -0.2442
     94  CE2       23.8650   58.9990  238.7720 C.ar  306  TRP306      0.0810
     95  CE3       26.2590   58.6770  238.7780 C.ar  306  TRP306      0.0012
     96  CZ2       23.9890   60.2870  239.2830 C.ar  306  TRP306      0.0191
     97  CZ3       26.3800   59.9560  239.2860 C.ar  306  TRP306      0.0001
     98  CH2       25.2530   60.7470  239.5300 C.ar  306  TRP306      0.0015
     99  N         24.6020   54.7630  240.7460 N.am  307  THR307     -0.1953
    100  CA        23.6450   54.1180  241.6490 C.3   307  THR307      0.1897
    101  C         22.2910   54.8210  241.7040 C.2   307  THR307      0.2313
    102  O         21.4290   54.4460  242.5010 O.2   307  THR307     -0.2863
    103  CB        24.1890   54.0380  243.0950 C.3   307  THR307      0.1794
    104  OG1       24.2540   55.3520  243.6640 O.3   307  THR307     -0.2208
    105  CG2       25.5690   53.4110  243.1250 C.3   307  THR307      0.0378
    106  N         22.6550   57.1410  247.0350 N.3   311  VAL311     -0.1231
    107  CA        23.4980   55.9670  247.2580 C.3   311  VAL311      0.1692
    108  C         22.6590   54.7020  247.1400 C.2   311  VAL311      0.2591
    109  O         23.0190   53.7670  246.4240 O.2   311  VAL311     -0.2718
    110  CB        24.1790   56.0050  248.6450 C.3   311  VAL311      0.0266
    111  CG1       25.0210   54.7510  248.8710 C.3   311  VAL311      0.0020
    112  CG2       25.0420   57.2530  248.7860 C.3   311  VAL311      0.0020
    113  N         21.5410   54.6860  247.8600 N.am  312  ILE312     -0.1980
    114  CA        20.5510   53.6270  247.7340 C.3   312  ILE312      0.1595
    115  C         19.3140   54.2080  247.0620 C.2   312  ILE312      0.2287
    116  O         18.6210   55.0420  247.6420 O.2   312  ILE312     -0.2864
    117  CB        20.1580   53.0240  249.0960 C.3   312  ILE312      0.0276
    118  CG1       21.3730   52.8950  250.0230 C.3   312  ILE312      0.0022
    119  CG2       19.4870   51.6750  248.8930 C.3   312  ILE312      0.0022
    120  CD1       22.4540   51.9550  249.5250 C.3   312  ILE312      0.0001
    121  N         24.7400   50.5190  238.8500 N.3   334  TRP334     -0.1241
    122  CA        25.1510   49.7950  240.0440 C.3   334  TRP334      0.1605
    123  C         24.0230   49.9340  241.0610 C.2   334  TRP334      0.2264
    124  O         23.9250   50.9480  241.7450 O.2   334  TRP334     -0.2867
    125  CB        26.4740   50.3610  240.5780 C.3   334  TRP334      0.0550
    126  CG        26.9950   49.7820  241.8840 C.ar  334  TRP334      0.0003
    127  CD1       26.2740   49.4650  243.0030 C.ar  334  TRP334      0.0946
    128  CD2       28.3610   49.4750  242.1930 C.ar  334  TRP334      0.0152
    129  NE1       27.1050   48.9790  243.9810 N.ar  334  TRP334     -0.2442
    130  CE2       28.3910   48.9730  243.5110 C.ar  334  TRP334      0.0810
    131  CE3       29.5610   49.5730  241.4820 C.ar  334  TRP334      0.0012
    132  CZ2       29.5720   48.5700  244.1310 C.ar  334  TRP334      0.0191
    133  CZ3       30.7330   49.1720  242.0980 C.ar  334  TRP334      0.0001
    134  CH2       30.7300   48.6790  243.4130 C.ar  334  TRP334      0.0015
    135  N         22.2210   49.3320  244.4210 N.3   336  ASN336     -0.1240
    136  CA        22.5830   48.9600  245.7860 C.3   336  ASN336      0.1653
    137  C         21.4290   48.2770  246.5160 C.2   336  ASN336      0.2266
    138  O         20.9220   48.7680  247.5240 O.2   336  ASN336     -0.2867
    139  CB        23.0630   50.1920  246.5630 C.3   336  ASN336      0.1155
    140  CG        24.5520   50.4440  246.3900 C.2   336  ASN336      0.2627
    141  OD1       25.3540   49.5110  246.3900 O.2   336  ASN336     -0.2716
    142  ND2       24.9270   51.7110  246.2420 N.am  336  ASN336     -0.0877
    143  N         22.1330   44.7350  249.0290 N.3   339  VAL339     -0.1245
    144  CA        23.2640   44.9550  249.9380 C.3   339  VAL339      0.1561
    145  C         22.7690   45.4930  251.2820 C.2   339  VAL339      0.2260
    146  O         21.9390   46.4020  251.3330 O.2   339  VAL339     -0.2867
    147  CB        24.3180   45.9260  249.3420 C.3   339  VAL339      0.0252
    148  CG1       23.6850   47.2440  248.9360 C.3   339  VAL339      0.0019
    149  CG2       25.4660   46.1560  250.3300 C.3   339  VAL339      0.0019
    150  N         25.0380   45.9830  254.1550 N.3   341  ASP341     -0.1225
    151  CA        26.2020   46.2290  254.9970 C.3   341  ASP341      0.1805
    152  C         26.0570   47.4910  255.8470 C.2   341  ASP341      0.2597
    153  O         26.9490   47.8140  256.6280 O.2   341  ASP341     -0.2718
    154  CB        27.4710   46.3090  254.1430 C.3   341  ASP341      0.1424
    155  CG        27.3610   47.3020  253.0050 C.2   341  ASP341      0.3668
    156  OD1       26.5720   48.2630  253.0970 O.co2 341  ASP341     -0.2456
    157  OD2       28.0820   47.1180  252.0060 O.co2 341  ASP341     -0.2456
    158  N         24.9360   48.1920  255.7000 N.am  342  TYR342     -0.1976
    159  CA        24.6140   49.3240  256.5690 C.3   342  TYR342      0.1639
    160  C         23.4050   49.0140  257.4540 C.2   342  TYR342      0.2290
    161  O         22.9870   49.8460  258.2580 O.2   342  TYR342     -0.2864
    162  CB        24.3580   50.5860  255.7430 C.3   342  TYR342      0.0560
    163  CG        23.2160   50.4750  254.7610 C.ar  342  TYR342     -0.0198
    164  CD1       23.4030   49.8880  253.5170 C.ar  342  TYR342     -0.0009
    165  CD2       21.9560   50.9700  255.0700 C.ar  342  TYR342     -0.0009
    166  CE1       22.3670   49.7890  252.6090 C.ar  342  TYR342      0.0417
    167  CE2       20.9110   50.8760  254.1670 C.ar  342  TYR342      0.0417
    168  CZ        21.1250   50.2830  252.9370 C.ar  342  TYR342      0.1957
    169  OH        20.0970   50.1800  252.0280 O.3   342  TYR342     -0.2866
    170  N         24.3470   44.9300  243.6670 N.3   369  ASN369     -0.1240
    171  CA        25.2530   44.7580  244.7980 C.3   369  ASN369      0.1653
    172  C         24.5220   43.9970  245.9090 C.2   369  ASN369      0.2266
    173  O         23.5750   44.5240  246.4900 O.2   369  ASN369     -0.2867
    174  CB        25.7420   46.1200  245.2960 C.3   369  ASN369      0.1155
    175  CG        26.8410   46.0090  246.3390 C.2   369  ASN369      0.2627
    176  OD1       27.5090   44.9800  246.4590 O.2   369  ASN369     -0.2716
    177  ND2       27.0410   47.0840  247.0940 N.am  369  ASN369     -0.0877
    178  N         20.3140   56.1240  255.0320 N.3   430  HIS430     -0.1241
    179  CA        19.9990   56.3390  253.6220 C.3   430  HIS430      0.1621
    180  C         18.5000   56.5280  253.4020 C.2   430  HIS430      0.2264
    181  O         18.0730   56.9180  252.3150 O.2   430  HIS430     -0.2867
    182  CB        20.5080   55.1690  252.7760 C.3   430  HIS430      0.0745
    183  CG        21.9980   55.0150  252.7960 C.ar  430  HIS430      0.0817
    184  ND1       22.8570   56.0470  252.4840 N.ar  430  HIS430     -0.2268
    185  CD2       22.7810   53.9480  253.0840 C.ar  430  HIS430      0.1154
    186  CE1       24.1050   55.6240  252.5830 C.ar  430  HIS430      0.1986
    187  NE2       24.0870   54.3540  252.9440 N.ar  430  HIS430     -0.2212
@<TRIPOS>BOND
     1    89    90    1
     2    89    86    1
     3    91    90   ar
     4    91    93   ar
     5    90    92   ar
     6    85    86    1
     7    53    54    1
     8    93    94   ar
     9    92    94   ar
    10    92    95   ar
    11    86    87    1
    12    94    96   ar
    13    95    97   ar
    14   121   122    1
    15    88    87    2
    16    54    55    1
    17    54    57    1
    18    96    98   ar
    19    97    98   ar
    20    87    99   am
    21    55    56    2
    22   122   125    1
    23   122   123    1
    24    57    58    1
    25   125   126    1
    26    99   100    1
    27   123   124    2
    28   131   133   ar
    29   131   128   ar
    30    62    61    2
    31   100   101    1
    32   100   103    1
    33   101   102    2
    34    60    61    1
    35    60    63    1
    36    60    59    1
    37   126   128   ar
    38   126   127   ar
    39   133   134   ar
    40   128   130   ar
    41    63    64    1
    42   127   129   ar
    43   103   105    1
    44   103   104    1
    45   134   132   ar
    46   130   129   ar
    47   130   132   ar
    48   170   171    1
    49    64    65   ar
    50    64    66   ar
    51    37    38    1
    52   135   136    1
    53    65    67   ar
    54    66    68   ar
    55   171   174    1
    56   171   172    1
    57    43    42   ar
    58    41    42    1
    59    41    38    1
    60    73    74    2
    61    73    72    1
    62    42    44   ar
    63    38    39    1
    64   174   175    1
    65     1     2    1
    66   136   137    1
    67   136   139    1
    68    67    69   ar
    69    71    72    1
    70    68    69   ar
    71     2     3    1
    72   172   173    2
    73    72    75    1
    74   142   140   am
    75   175   176    2
    76   175   177   am
    77   141   140    2
    78   140   139    1
    79    75    76    1
    80   109   108    2
    81    69    70    1
    82   137   138    2
    83    39    40    2
    84    39    45   am
    85    36    35    1
    86   106   107    1
    87   115   116    2
    88   115   114    1
    89   108   107    1
    90   108   113   am
    91   107   110    1
    92     3     4    2
    93     3     5   am
    94    45    46    1
    95    76    78   ar
    96    76    77   ar
    97   114   113    1
    98   114   117    1
    99    35    34    1
   100    81    78   ar
   101    81    83   ar
   102     5     6    1
   103    78    80   ar
   104    77    79   ar
   105   110   112    1
   106   110   111    1
   107    34    33    1
   108    14    12   ar
   109    14    15   ar
   110    46    47    1
   111    46    49    1
   112    12    10   ar
   113   119   117    1
   114   148   147    1
   115   143   144    1
   116    83    84   ar
   117    28    29    1
   118   117   118    1
   119    51    50   ar
   120    47    48    2
   121   147   144    1
   122   147   149    1
   123    33    32    1
   124     6     9    1
   125     6     7    1
   126   120   118    1
   127    50    49    1
   128    50    52   ar
   129    80    79   ar
   130    80    82   ar
   131    29    32    1
   132    29    30    1
   133    15    13   ar
   134    10     9    1
   135    10    11   ar
   136   144   145    1
   137    84    82   ar
   138     8     7    2
   139     7    16   am
   140    30    31    2
   141    13    11   ar
   142    27    26    1
   143   145   146    2
   144    16    17    1
   145    25    26   ar
   146    25    23   ar
   147    26    24   ar
   148   157   155   ar
   149   169   168    1
   150   181   180    2
   151    23    21   ar
   152    24    22   ar
   153   184   186   ar
   154   184   183   ar
   155   186   187   ar
   156   166   168   ar
   157   166   164   ar
   158   182   183    1
   159   182   179    1
   160   183   185   ar
   161    17    18    1
   162    17    20    1
   163   168   167   ar
   164   187   185   ar
   165   155   156   ar
   166   155   154    1
   167    21    22   ar
   168    21    20    1
   169   180   179    1
   170   164   163   ar
   171   179   178    1
   172    18    19    2
   173   154   151    1
   174   150   151    1
   175   167   165   ar
   176   163   165   ar
   177   163   162    1
   178   151   152    1
   179   158   152   am
   180   158   159    1
   181   162   159    1
   182   152   153    2
   183   159   160    1
   184   160   161    2
