@<TRIPOS>MOLECULE
tmp/5abhB00.pdb
 173 168 0 0 0
SMALL
GASTEIGER

@<TRIPOS>ATOM
      1  N         30.0840    9.1670  293.7550 N.3   134  GLY134     -0.1210
      2  CA        30.6120    7.8180  293.5490 C.3   134  GLY134      0.1956
      3  C         30.3540    7.2470  292.1510 C.2   134  GLY134      0.2612
      4  O         30.4930    6.0460  291.9250 O.2   134  GLY134     -0.2717
      5  N         30.1050    8.1470  291.2130 N.am  135  PHE135     -0.1962
      6  CA        29.6310    7.7960  289.8610 C.3   135  PHE135      0.1771
      7  C         30.7640    7.8060  288.8230 C.2   135  PHE135      0.2619
      8  O         31.8710    8.2780  289.1150 O.2   135  PHE135     -0.2715
      9  CB        28.4540    8.7320  289.4440 C.3   135  PHE135      0.0574
     10  CG        28.8060   10.1880  289.4600 C.ar  135  PHE135     -0.0200
     11  CD1       29.6350   10.7170  288.4850 C.ar  135  PHE135     -0.0042
     12  CD2       28.3660   11.0140  290.4890 C.ar  135  PHE135     -0.0042
     13  CE1       30.0240   12.0450  288.5280 C.ar  135  PHE135     -0.0003
     14  CE2       28.7480   12.3420  290.5460 C.ar  135  PHE135     -0.0003
     15  CZ        29.5600   12.8600  289.5480 C.ar  135  PHE135     -0.0000
     16  N         30.4890    7.1500  287.6840 N.am  136  TYR136     -0.1974
     17  CA        31.3030    7.2130  286.5010 C.3   136  TYR136      0.1639
     18  C         30.8730    8.4230  285.7090 C.2   136  TYR136      0.2290
     19  O         29.6710    8.7160  285.6180 O.2   136  TYR136     -0.2864
     20  CB        31.1240    5.9600  285.6560 C.3   136  TYR136      0.0560
     21  CG        31.6360    4.7020  286.3180 C.ar  136  TYR136     -0.0198
     22  CD1       33.0130    4.4310  286.4150 C.ar  136  TYR136     -0.0009
     23  CD2       30.7570    3.7420  286.7590 C.ar  136  TYR136     -0.0009
     24  CE1       33.4620    3.2510  287.0000 C.ar  136  TYR136      0.0417
     25  CE2       31.2010    2.5860  287.3710 C.ar  136  TYR136      0.0417
     26  CZ        32.5350    2.3390  287.4890 C.ar  136  TYR136      0.1957
     27  OH        32.8910    1.1320  288.0490 O.3   136  TYR136     -0.2866
     28  N         34.5390    8.0090  290.3560 N.3   165  LYS165     -0.1245
     29  CA        35.2510    6.9010  289.7270 C.3   165  LYS165      0.1561
     30  C         36.3640    7.3340  288.7550 C.2   165  LYS165      0.2260
     31  O         37.3880    6.6550  288.6690 O.2   165  LYS165     -0.2867
     32  CB        34.2950    5.9580  289.0230 C.3   165  LYS165      0.0271
     33  CG        33.3920    5.2000  289.9950 C.3   165  LYS165      0.0035
     34  CD        34.1440    4.0530  290.6420 C.3   165  LYS165      0.0206
     35  CE        33.1960    3.1570  291.4380 C.3   165  LYS165      0.1093
     36  NZ        32.6280    3.7910  292.6720 N.3   165  LYS165     -0.1314
     37  N         34.6280   -1.6040  295.0850 N.3   241  ASP241     -0.1225
     38  CA        33.5380   -1.8780  294.1770 C.3   241  ASP241      0.1805
     39  C         33.9590   -1.8580  292.6840 C.2   241  ASP241      0.2597
     40  O         34.8030   -1.0500  292.2740 O.2   241  ASP241     -0.2718
     41  CB        32.3850   -0.8930  294.4100 C.3   241  ASP241      0.1424
     42  CG        32.8180    0.5530  294.3310 C.2   241  ASP241      0.3668
     43  OD1       34.0130    0.8300  294.6030 O.co2 241  ASP241     -0.2456
     44  OD2       31.9830    1.4210  293.9570 O.co2 241  ASP241     -0.2456
     45  N         33.3770   -2.7720  291.9030 N.am  242  ASP242     -0.1974
     46  CA        33.5580   -2.8540  290.4420 C.3   242  ASP242      0.1709
     47  C         35.0370   -3.0880  290.0880 C.2   242  ASP242      0.2293
     48  O         35.6130   -2.3510  289.2850 O.2   242  ASP242     -0.2864
     49  CB        33.0640   -1.5810  289.7420 C.3   242  ASP242      0.1436
     50  CG        31.5360   -1.4640  289.7260 C.2   242  ASP242      0.3671
     51  OD1       30.8460   -2.3990  290.2120 O.co2 242  ASP242     -0.2456
     52  OD2       31.0500   -0.4400  289.1770 O.co2 242  ASP242     -0.2456
     53  N         33.5230    0.2340  301.1900 N.3   277  CYS277     -0.1235
     54  CA        32.5930   -0.3660  300.2350 C.3   277  CYS277      0.1677
     55  C         33.0980   -1.7310  299.8110 C.2   277  CYS277      0.2270
     56  O         34.1990   -1.8780  299.2320 O.2   277  CYS277     -0.2867
     57  CB        32.3920    0.5210  298.9990 C.3   277  CYS277      0.0956
     58  SG        30.9770    0.0360  297.9600 S.3   277  CYS277     -0.0801
     59  N         28.5930   -5.7070  296.8750 N.3   281  TYR281     -0.1241
     60  CA        27.9510   -4.5890  297.5360 C.3   281  TYR281      0.1605
     61  C         26.4310   -4.6170  297.3990 C.2   281  TYR281      0.2264
     62  O         25.7760   -3.6730  297.8200 O.2   281  TYR281     -0.2867
     63  CB        28.5050   -3.2660  297.0030 C.3   281  TYR281      0.0534
     64  CG        28.4730   -3.1230  295.5000 C.ar  281  TYR281     -0.0201
     65  CD1       27.3270   -2.7100  294.8550 C.ar  281  TYR281     -0.0009
     66  CD2       29.6310   -3.3100  294.7380 C.ar  281  TYR281     -0.0009
     67  CE1       27.3000   -2.5140  293.4820 C.ar  281  TYR281      0.0417
     68  CE2       29.6200   -3.1380  293.3610 C.ar  281  TYR281      0.0417
     69  CZ        28.4530   -2.7380  292.7240 C.ar  281  TYR281      0.1957
     70  OH        28.4390   -2.5770  291.3410 O.3   281  TYR281     -0.2866
     71  N         24.5740   -9.8520  293.5660 N.3   285  TRP285     -0.1241
     72  CA        25.9400   -9.9810  293.1030 C.3   285  TRP285      0.1605
     73  C         26.8050  -10.7220  294.1070 C.2   285  TRP285      0.2264
     74  O         27.9940  -10.9290  293.8690 O.2   285  TRP285     -0.2867
     75  CB        26.5290   -8.5860  292.8590 C.3   285  TRP285      0.0550
     76  CG        26.2480   -8.0220  291.4820 C.ar  285  TRP285      0.0003
     77  CD1       25.1230   -8.2000  290.7220 C.ar  285  TRP285      0.0946
     78  CD2       27.1120   -7.1690  290.7250 C.ar  285  TRP285      0.0152
     79  NE1       25.2460   -7.5260  289.5280 N.ar  285  TRP285     -0.2442
     80  CE2       26.4630   -6.8970  289.4970 C.ar  285  TRP285      0.0810
     81  CE3       28.3910   -6.6320  290.9540 C.ar  285  TRP285      0.0012
     82  CZ2       27.0430   -6.1040  288.5050 C.ar  285  TRP285      0.0191
     83  CZ3       28.9720   -5.8470  289.9700 C.ar  285  TRP285      0.0001
     84  CH2       28.2960   -5.5910  288.7590 C.ar  285  TRP285      0.0015
     85  N         24.1800   -1.4590  298.6100 N.3   309  THR309     -0.1218
     86  CA        23.2870   -0.7460  297.6930 C.3   309  THR309      0.1862
     87  C         21.8830   -1.3450  297.6310 C.2   309  THR309      0.2287
     88  O         21.0340   -0.8350  296.8990 O.2   309  THR309     -0.2866
     89  CB        23.8350   -0.6710  296.2530 C.3   309  THR309      0.1770
     90  OG1       23.6880   -1.9440  295.6100 O.3   309  THR309     -0.2211
     91  CG2       25.3420   -0.2100  296.2560 C.3   309  THR309      0.0375
     92  N         22.0100   -3.6800  292.1900 N.3   313  VAL313     -0.1231
     93  CA        22.8790   -2.5210  292.0230 C.3   313  VAL313      0.1692
     94  C         22.0690   -1.2480  292.1740 C.2   313  VAL313      0.2591
     95  O         22.4800   -0.2820  292.8240 O.2   313  VAL313     -0.2718
     96  CB        23.5620   -2.5100  290.6220 C.3   313  VAL313      0.0266
     97  CG1       24.4010   -1.2600  290.4640 C.3   313  VAL313      0.0020
     98  CG2       24.4230   -3.7460  290.4240 C.3   313  VAL313      0.0020
     99  N         20.9020   -1.2570  291.5540 N.am  314  ILE314     -0.1980
    100  CA        19.9660   -0.1740  291.6660 C.3   314  ILE314      0.1595
    101  C         18.7790   -0.7790  292.3390 C.2   314  ILE314      0.2287
    102  O         18.1200   -1.6480  291.7700 O.2   314  ILE314     -0.2864
    103  CB        19.5490    0.3730  290.2820 C.3   314  ILE314      0.0276
    104  CG1       20.7410    0.3770  289.2980 C.3   314  ILE314      0.0022
    105  CG2       18.9190    1.7430  290.4320 C.3   314  ILE314      0.0022
    106  CD1       21.9250    1.2270  289.7210 C.3   314  ILE314      0.0001
    107  N         24.3260    2.8110  300.4580 N.3   336  TRP336     -0.1241
    108  CA        24.7490    3.5970  299.3000 C.3   336  TRP336      0.1605
    109  C         23.6540    3.4120  298.3090 C.2   336  TRP336      0.2264
    110  O         23.5320    2.3260  297.7520 O.2   336  TRP336     -0.2867
    111  CB        26.0500    2.9750  298.7700 C.3   336  TRP336      0.0550
    112  CG        26.5840    3.5010  297.4620 C.ar  336  TRP336      0.0003
    113  CD1       25.8770    3.7810  296.3200 C.ar  336  TRP336      0.0946
    114  CD2       27.9690    3.6970  297.1300 C.ar  336  TRP336      0.0152
    115  NE1       26.7440    4.1530  295.3050 N.ar  336  TRP336     -0.2442
    116  CE2       28.0270    4.1250  295.7820 C.ar  336  TRP336      0.0810
    117  CE3       29.1560    3.5770  297.8470 C.ar  336  TRP336      0.0012
    118  CZ2       29.2340    4.4570  295.1430 C.ar  336  TRP336      0.0191
    119  CZ3       30.3380    3.9050  297.2340 C.ar  336  TRP336      0.0001
    120  CH2       30.3730    4.3040  295.8570 C.ar  336  TRP336      0.0015
    121  N         21.8010    3.9300  294.9280 N.3   338  ASN338     -0.1240
    122  CA        22.1480    4.2800  293.5220 C.3   338  ASN338      0.1653
    123  C         21.0070    4.9610  292.7730 C.2   338  ASN338      0.2266
    124  O         20.4850    4.4420  291.8000 O.2   338  ASN338     -0.2867
    125  CB        22.6570    3.0280  292.7730 C.3   338  ASN338      0.1155
    126  CG        24.1820    2.8430  292.9140 C.2   338  ASN338      0.2627
    127  OD1       24.8900    3.8110  292.9780 O.2   338  ASN338     -0.2716
    128  ND2       24.6500    1.5990  293.0530 N.am  338  ASN338     -0.0877
    129  N         21.7920    8.6400  290.3500 N.3   341  VAL341     -0.1245
    130  CA        22.9160    8.3820  289.4320 C.3   341  VAL341      0.1561
    131  C         22.3800    7.8620  288.0800 C.2   341  VAL341      0.2260
    132  O         21.4910    6.9830  288.0160 O.2   341  VAL341     -0.2867
    133  CB        23.9280    7.3930  290.0190 C.3   341  VAL341      0.0252
    134  CG1       23.2520    6.1110  290.4670 C.3   341  VAL341      0.0019
    135  CG2       25.0520    7.0800  289.0210 C.3   341  VAL341      0.0019
    136  N         24.5920    7.2440  285.2600 N.3   343  ASP343     -0.1225
    137  CA        25.7670    6.9360  284.4570 C.3   343  ASP343      0.1805
    138  C         25.6060    5.7130  283.5510 C.2   343  ASP343      0.2597
    139  O         26.5370    5.3380  282.8200 O.2   343  ASP343     -0.2718
    140  CB        27.0240    6.8430  285.3150 C.3   343  ASP343      0.1424
    141  CG        26.9480    5.7900  286.4310 C.2   343  ASP343      0.3668
    142  OD1       26.0920    4.8690  286.4230 O.co2 343  ASP343     -0.2456
    143  OD2       27.8200    5.8870  287.3210 O.co2 343  ASP343     -0.2456
    144  N         24.4320    5.0780  283.6120 N.am  344  TYR344     -0.1976
    145  CA        24.1280    3.9460  282.7570 C.3   344  TYR344      0.1639
    146  C         22.8850    4.2170  281.9030 C.2   344  TYR344      0.2290
    147  O         22.4820    3.3580  281.1280 O.2   344  TYR344     -0.2864
    148  CB        23.9060    2.6670  283.5790 C.3   344  TYR344      0.0560
    149  CG        22.7580    2.7670  284.5880 C.ar  344  TYR344     -0.0198
    150  CD1       22.9540    3.3820  285.8150 C.ar  344  TYR344     -0.0009
    151  CD2       21.5030    2.2710  284.3140 C.ar  344  TYR344     -0.0009
    152  CE1       21.9500    3.4860  286.7580 C.ar  344  TYR344      0.0417
    153  CE2       20.4690    2.3740  285.2470 C.ar  344  TYR344      0.0417
    154  CZ        20.7020    2.9690  286.4850 C.ar  344  TYR344      0.1957
    155  OH        19.6800    3.1180  287.4210 O.3   344  TYR344     -0.2866
    156  N         24.0880    8.3220  295.7150 N.3   371  ASN371     -0.1240
    157  CA        24.9660    8.4640  294.5450 C.3   371  ASN371      0.1653
    158  C         24.1920    9.1640  293.4480 C.2   371  ASN371      0.2266
    159  O         23.1950    8.6380  292.9520 O.2   371  ASN371     -0.2867
    160  CB        25.3460    7.0750  294.0540 C.3   371  ASN371      0.1155
    161  CG        26.5100    7.0810  293.0840 C.2   371  ASN371      0.2627
    162  OD1       27.2660    8.0470  293.0120 O.2   371  ASN371     -0.2716
    163  ND2       26.6390    5.9960  292.3010 N.am  371  ASN371     -0.0877
    164  N         19.6830   -2.8060  284.2730 N.3   432  HIS432     -0.1241
    165  CA        19.3110   -3.0610  285.6780 C.3   432  HIS432      0.1621
    166  C         17.8420   -3.3150  285.8930 C.2   432  HIS432      0.2264
    167  O         17.4430   -3.6680  287.0030 O.2   432  HIS432     -0.2867
    168  CB        19.7050   -1.8960  286.5440 C.3   432  HIS432      0.0745
    169  CG        21.1640   -1.6610  286.5640 C.ar  432  HIS432      0.0817
    170  ND1       22.0550   -2.6410  286.9260 N.ar  432  HIS432     -0.2268
    171  CD2       21.8910   -0.5580  286.3050 C.ar  432  HIS432      0.1154
    172  CE1       23.2820   -2.1690  286.8270 C.ar  432  HIS432      0.1986
    173  NE2       23.2060   -0.8960  286.4800 N.ar  432  HIS432     -0.2212
@<TRIPOS>BOND
     1   147   146    2
     2   146   145    1
     3   145   148    1
     4   145   144    1
     5   139   138    2
     6   138   144   am
     7   138   137    1
     8   148   149    1
     9   164   165    1
    10   151   149   ar
    11   151   153   ar
    12   137   136    1
    13   137   140    1
    14   149   150   ar
    15   153   154   ar
    16   140   141    1
    17    19    18    2
    18    20    21    1
    19    20    17    1
    20   165   166    1
    21   165   168    1
    22    18    17    1
    23   150   152   ar
    24   166   167    2
    25   171   173   ar
    26   171   169   ar
    27    21    22   ar
    28    21    23   ar
    29    22    24   ar
    30   142   141   ar
    31   141   143   ar
    32   173   172   ar
    33   154   152   ar
    34   154   155    1
    35    17    16    1
    36   168   169    1
    37   169   170   ar
    38    23    25   ar
    39   172   170   ar
    40    24    26   ar
    41    25    26   ar
    42    26    27    1
    43    16     7   am
    44   132   131    2
    45   131   130    1
    46    11    13   ar
    47    11    10   ar
    48    82    84   ar
    49    82    80   ar
    50    13    15   ar
    51    31    30    2
    52    30    29    1
    53    84    83   ar
    54     7     8    2
    55     7     6    1
    56   135   133    1
    57    32    29    1
    58    32    33    1
    59    52    50   ar
    60    48    47    2
    61   104   106    1
    62   104   103    1
    63   130   133    1
    64   130   129    1
    65     9    10    1
    66     9     6    1
    67    10    12   ar
    68    80    79   ar
    69    80    78   ar
    70    79    77   ar
    71    15    14   ar
    72    50    49    1
    73    50    51   ar
    74    29    28    1
    75    49    46    1
    76     6     5    1
    77    83    81   ar
    78    33    34    1
    79   133   134    1
    80    47    46    1
    81   103   105    1
    82   103   100    1
    83    98    96    1
    84    46    45    1
    85    97    96    1
    86    12    14   ar
    87    96    93    1
    88    34    35    1
    89    77    76   ar
    90    78    81   ar
    91    78    76   ar
    92     5     3   am
    93    70    69    1
    94    35    36    1
    95    76    75    1
    96    99   100    1
    97    99    94   am
    98   100   101    1
    99   102   101    2
   100   124   123    2
   101    45    39   am
   102     4     3    2
   103    93    94    1
   104    93    92    1
   105     3     2    1
   106    94    95    2
   107    40    39    2
   108   163   161   am
   109    39    38    1
   110    69    68   ar
   111    69    67   ar
   112   125   126    1
   113   125   122    1
   114   123   122    1
   115    75    72    1
   116   126   127    2
   117   126   128   am
   118   159   158    2
   119   162   161    2
   120   161   160    1
   121    72    71    1
   122    72    73    1
   123    68    66   ar
   124   158   157    1
   125    67    65   ar
   126   122   121    1
   127     2     1    1
   128    74    73    2
   129    44    42   ar
   130   160   157    1
   131    38    41    1
   132    38    37    1
   133    42    41    1
   134    42    43   ar
   135   157   156    1
   136    66    64   ar
   137    65    64   ar
   138   118   116   ar
   139   118   120   ar
   140   115   116   ar
   141   115   113   ar
   142    64    63    1
   143    90    89    1
   144   116   114   ar
   145   120   119   ar
   146    89    91    1
   147    89    86    1
   148   113   112   ar
   149    59    60    1
   150    88    87    2
   151    63    60    1
   152   114   112   ar
   153   114   117   ar
   154   119   117   ar
   155    61    60    1
   156    61    62    2
   157   112   111    1
   158    87    86    1
   159    86    85    1
   160   110   109    2
   161    58    57    1
   162   109   108    1
   163   111   108    1
   164    57    54    1
   165    56    55    2
   166   108   107    1
   167    55    54    1
   168    54    53    1
