@<TRIPOS>MOLECULE
tmp/5abjA00.pdb
 243 238 0 0 0
SMALL
GASTEIGER

@<TRIPOS>ATOM
      1  N         63.4820  204.0740   75.7730 N.3    98  TRP98      -0.1241
      2  CA        64.5470  204.9490   76.2330 C.3    98  TRP98       0.1605
      3  C         65.8590  204.1800   76.3610 C.2    98  TRP98       0.2264
      4  O         65.9090  203.1570   77.0420 O.2    98  TRP98      -0.2867
      5  CB        64.1720  205.5650   77.5860 C.3    98  TRP98       0.0550
      6  CG        65.2380  206.4600   78.1400 C.ar   98  TRP98       0.0003
      7  CD1       65.7380  207.5880   77.5620 C.ar   98  TRP98       0.0946
      8  CD2       65.9720  206.2710   79.3580 C.ar   98  TRP98       0.0152
      9  NE1       66.7430  208.1120   78.3380 N.ar   98  TRP98      -0.2442
     10  CE2       66.9080  207.3230   79.4460 C.ar   98  TRP98       0.0810
     11  CE3       65.9310  205.3140   80.3810 C.ar   98  TRP98       0.0012
     12  CZ2       67.8020  207.4480   80.5180 C.ar   98  TRP98       0.0191
     13  CZ3       66.8210  205.4360   81.4530 C.ar   98  TRP98       0.0001
     14  CH2       67.7430  206.4980   81.5080 C.ar   98  TRP98       0.0015
     15  N         69.1630  203.4640   77.9490 N.3   100  ILE100     -0.1231
     16  CA        69.7060  203.7580   79.2610 C.3   100  ILE100      0.1692
     17  C         71.0440  204.4820   79.2260 C.2   100  ILE100      0.2592
     18  O         72.0370  203.9600   78.7320 O.2   100  ILE100     -0.2718
     19  CB        69.7980  202.4620   80.0850 C.3   100  ILE100      0.0266
     20  CG1       68.4400  201.7510   80.0240 C.3   100  ILE100      0.0019
     21  CG2       70.1440  202.7790   81.5330 C.3   100  ILE100      0.0020
     22  CD1       68.4400  200.3450   80.5330 C.3   100  ILE100      0.0001
     23  N         71.0340  205.7080   79.7450 N.am  101  ASP101     -0.1960
     24  CA        72.2110  206.5690   79.8190 C.3   101  ASP101      0.1840
     25  C         71.9790  207.5220   81.0000 C.2   101  ASP101      0.2622
     26  O         71.0830  208.3730   80.9670 O.2   101  ASP101     -0.2715
     27  CB        72.3610  207.3610   78.5230 C.3   101  ASP101      0.1450
     28  CG        73.6900  208.0820   78.4330 C.2   101  ASP101      0.3671
     29  OD1       74.0870  208.7100   79.4360 O.co2 101  ASP101     -0.2456
     30  OD2       74.3330  208.0320   77.3590 O.co2 101  ASP101     -0.2456
     31  N         72.7910  207.3790   82.0400 N.am  102  LEU102     -0.1963
     32  CA        72.6480  208.1950   83.2430 C.3   102  LEU102      0.1728
     33  C         73.3630  209.5400   83.1960 C.2   102  LEU102      0.2616
     34  O         73.3920  210.2570   84.1960 O.2   102  LEU102     -0.2715
     35  CB        73.1690  207.4100   84.4470 C.3   102  LEU102      0.0311
     36  CG        72.7840  205.9310   84.4870 C.3   102  LEU102      0.0022
     37  CD1       73.5420  205.2400   85.6150 C.3   102  LEU102      0.0001
     38  CD2       71.2780  205.7920   84.6550 C.3   102  LEU102      0.0001
     39  N         73.9310  209.8910   82.0490 N.am  103  MET103     -0.1977
     40  CA        74.6800  211.1400   81.9350 C.3   103  MET103      0.1605
     41  C         73.8570  212.3560   81.5070 C.2   103  MET103      0.2287
     42  O         74.4160  213.3890   81.1360 O.2   103  MET103     -0.2864
     43  CB        75.8500  210.9440   80.9640 C.3   103  MET103      0.0413
     44  CG        76.6630  209.6820   81.2230 C.3   103  MET103      0.0598
     45  SD        77.4190  209.6370   82.8760 S.3   103  MET103     -0.1393
     46  CE        76.2470  208.6480   83.8120 C.3   103  MET103      0.0692
     47  N         78.9780  198.7730   90.9950 N.3   120  PHE120     -0.1241
     48  CA        77.9200  198.8810   91.9920 C.3   120  PHE120      0.1605
     49  C         76.5830  198.2850   91.5760 C.2   120  PHE120      0.2264
     50  O         76.3510  197.9980   90.4020 O.2   120  PHE120     -0.2867
     51  CB        77.7090  200.3600   92.3370 C.3   120  PHE120      0.0534
     52  CG        77.2980  201.2020   91.1530 C.ar  120  PHE120     -0.0203
     53  CD1       75.9740  201.2240   90.7210 C.ar  120  PHE120     -0.0042
     54  CD2       78.2460  201.9240   90.4300 C.ar  120  PHE120     -0.0042
     55  CE1       75.6000  201.9450   89.5860 C.ar  120  PHE120     -0.0003
     56  CE2       77.8810  202.6500   89.2910 C.ar  120  PHE120     -0.0003
     57  CZ        76.5530  202.6580   88.8700 C.ar  120  PHE120     -0.0000
     58  N         72.3000  198.8980   92.0390 N.3   122  ALA122     -0.1245
     59  CA        71.5180  200.1230   92.1210 C.3   122  ALA122      0.1562
     60  C         70.0450  199.8830   92.3870 C.2   122  ALA122      0.2260
     61  O         69.4800  198.8580   91.9930 O.2   122  ALA122     -0.2867
     62  CB        71.6930  200.9380   90.8450 C.3   122  ALA122      0.0290
     63  N         66.4460  201.3850   91.6490 N.3   124  PHE124     -0.1241
     64  CA        65.7340  202.3140   90.7840 C.3   124  PHE124      0.1605
     65  C         64.3040  202.5180   91.2590 C.2   124  PHE124      0.2264
     66  O         63.5700  201.5570   91.5110 O.2   124  PHE124     -0.2867
     67  CB        65.7320  201.8020   89.3440 C.3   124  PHE124      0.0534
     68  CG        66.9890  202.1100   88.5970 C.ar  124  PHE124     -0.0203
     69  CD1       67.1420  203.3310   87.9480 C.ar  124  PHE124     -0.0042
     70  CD2       68.0390  201.2010   88.5690 C.ar  124  PHE124     -0.0042
     71  CE1       68.3300  203.6490   87.2780 C.ar  124  PHE124     -0.0003
     72  CE2       69.2330  201.5080   87.9030 C.ar  124  PHE124     -0.0003
     73  CZ        69.3780  202.7380   87.2560 C.ar  124  PHE124     -0.0000
     74  N         60.6210  204.5490   90.4100 N.3   126  PHE126     -0.1241
     75  CA        59.8850  205.1770   89.3120 C.3   126  PHE126      0.1605
     76  C         58.6980  206.0090   89.7710 C.2   126  PHE126      0.2264
     77  O         57.6470  205.4640   90.1170 O.2   126  PHE126     -0.2867
     78  CB        59.4010  204.1040   88.3440 C.3   126  PHE126      0.0534
     79  CG        60.5000  203.2350   87.8330 C.ar  126  PHE126     -0.0203
     80  CD1       61.3350  203.6760   86.8110 C.ar  126  PHE126     -0.0042
     81  CD2       60.7310  201.9860   88.3990 C.ar  126  PHE126     -0.0042
     82  CE1       62.3900  202.8850   86.3570 C.ar  126  PHE126     -0.0003
     83  CE2       61.7820  201.1870   87.9540 C.ar  126  PHE126     -0.0003
     84  CZ        62.6130  201.6360   86.9320 C.ar  126  PHE126     -0.0000
     85  N         56.4320  198.6760   82.7380 N.3   142  TYR142     -0.1241
     86  CA        57.8180  199.0780   82.5230 C.3   142  TYR142      0.1605
     87  C         58.5420  197.7740   82.1790 C.2   142  TYR142      0.2264
     88  O         58.3900  196.7740   82.8810 O.2   142  TYR142     -0.2867
     89  CB        58.4540  199.6780   83.7880 C.3   142  TYR142      0.0534
     90  CG        57.6750  200.7610   84.5180 C.ar  142  TYR142     -0.0201
     91  CD1       57.0830  201.8280   83.8360 C.ar  142  TYR142     -0.0009
     92  CD2       57.5960  200.7500   85.9140 C.ar  142  TYR142     -0.0009
     93  CE1       56.4380  202.8570   84.5350 C.ar  142  TYR142      0.0417
     94  CE2       56.9600  201.7680   86.6120 C.ar  142  TYR142      0.0417
     95  CZ        56.3860  202.8130   85.9230 C.ar  142  TYR142      0.1957
     96  OH        55.7700  203.8080   86.6460 O.3   142  TYR142     -0.2866
     97  N         62.3550  195.9460   80.9120 N.3   144  TYR144     -0.1241
     98  CA        63.7830  196.0880   80.6760 C.3   144  TYR144      0.1605
     99  C         64.1370  195.2490   79.4430 C.2   144  TYR144      0.2264
    100  O         63.9200  194.0360   79.4160 O.2   144  TYR144     -0.2867
    101  CB        64.5740  195.6290   81.9020 C.3   144  TYR144      0.0534
    102  CG        66.0630  195.5770   81.6580 C.ar  144  TYR144     -0.0201
    103  CD1       66.7250  196.6390   81.0340 C.ar  144  TYR144     -0.0009
    104  CD2       66.8120  194.4560   82.0240 C.ar  144  TYR144     -0.0009
    105  CE1       68.0960  196.5830   80.7770 C.ar  144  TYR144      0.0417
    106  CE2       68.1860  194.3900   81.7720 C.ar  144  TYR144      0.0417
    107  CZ        68.8180  195.4570   81.1480 C.ar  144  TYR144      0.1957
    108  OH        70.1680  195.4020   80.8950 O.3   144  TYR144     -0.2866
    109  N         62.4070  191.1360   82.2320 N.3   166  PRO166     -0.2102
    110  CA        61.7040  191.4580   83.4730 C.3   166  PRO166      0.1504
    111  C         60.8100  192.6780   83.2380 C.2   166  PRO166      0.2576
    112  O         61.2440  193.6760   82.6560 O.2   166  PRO166     -0.2718
    113  CB        62.8410  191.7400   84.4500 C.3   166  PRO166      0.0282
    114  CG        63.9100  192.3130   83.5580 C.3   166  PRO166      0.0208
    115  CD        63.8540  191.3920   82.3600 C.3   166  PRO166      0.0893
    116  N         59.5550  192.5840   83.6620 N.am  167  SER167     -0.1938
    117  CA        58.6130  193.6860   83.5120 C.3   167  SER167      0.2055
    118  C         58.0070  194.0270   84.8650 C.2   167  SER167      0.2642
    119  O         57.9800  193.1950   85.7770 O.2   167  SER167     -0.2714
    120  CB        57.4770  193.3140   82.5460 C.3   167  SER167      0.2130
    121  OG        57.8880  193.3740   81.1920 O.3   167  SER167     -0.2179
    122  N         57.5220  195.2580   84.9860 N.am  168  VAL168     -0.1977
    123  CA        56.8670  195.7220   86.2030 C.3   168  VAL168      0.1596
    124  C         55.5280  196.3330   85.7960 C.2   168  VAL168      0.2287
    125  O         55.4850  197.2310   84.9510 O.2   168  VAL168     -0.2864
    126  CB        57.6870  196.8220   86.9340 C.3   168  VAL168      0.0276
    127  CG1       56.8730  197.3930   88.0870 C.3   168  VAL168      0.0022
    128  CG2       58.9950  196.2490   87.4660 C.3   168  VAL168      0.0022
    129  N         62.8320  198.7290   92.3070 N.3   179  VAL179     -0.1245
    130  CA        63.4810  197.4350   92.1240 C.3   179  VAL179      0.1561
    131  C         64.9960  197.5480   92.2560 C.2   179  VAL179      0.2260
    132  O         65.5600  198.6390   92.1200 O.2   179  VAL179     -0.2867
    133  CB        63.1430  196.8150   90.7210 C.3   179  VAL179      0.0252
    134  CG1       61.6310  196.6420   90.5710 C.3   179  VAL179      0.0019
    135  CG2       63.6920  197.6930   89.6010 C.3   179  VAL179      0.0019
    136  N         68.7930  196.4230   90.9230 N.3   181  VAL181     -0.1231
    137  CA        69.4660  196.0160   89.6960 C.3   181  VAL181      0.1678
    138  C         70.9160  195.6610   90.0260 C.2   181  VAL181      0.2434
    139  O         71.6040  196.4070   90.7310 O.2   181  VAL181     -0.2733
    140  CB        69.4320  197.1640   88.6710 C.3   181  VAL181      0.0265
    141  CG1       70.3430  196.8430   87.4900 C.3   181  VAL181      0.0020
    142  CG2       67.9940  197.3900   88.2050 C.3   181  VAL181      0.0020
    143  N         71.4080  194.5210   89.5180 N.am  182  PRO182     -0.2729
    144  CA        72.7860  194.0980   89.7910 C.3   182  PRO182      0.1401
    145  C         73.8220  194.7960   88.9150 C.2   182  PRO182      0.2269
    146  O         73.4780  195.6400   88.0840 O.2   182  PRO182     -0.2865
    147  CB        72.7310  192.6010   89.5200 C.3   182  PRO182      0.0296
    148  CG        71.8290  192.5470   88.3240 C.3   182  PRO182      0.0237
    149  CD        70.7070  193.5240   88.6890 C.3   182  PRO182      0.0939
    150  N         75.7220  194.7950   85.9120 N.3   184  MET184     -0.1245
    151  CA        75.5650  194.0590   84.6600 C.3   184  MET184      0.1570
    152  C         76.5850  194.1820   83.5350 C.2   184  MET184      0.2261
    153  O         76.4010  193.5910   82.4680 O.2   184  MET184     -0.2867
    154  CB        74.1850  194.3760   84.0960 C.3   184  MET184      0.0387
    155  CG        73.0660  194.1200   85.0930 C.3   184  MET184      0.0595
    156  SD        71.4770  194.5500   84.4110 S.3   184  MET184     -0.1393
    157  CE        71.6550  196.3560   84.3740 C.3   184  MET184      0.0692
    158  N         82.0790  199.6830   85.6070 N.3   190  TYR190     -0.1227
    159  CA        81.6280  200.6220   84.5910 C.3   190  TYR190      0.1736
    160  C         82.7440  201.6620   84.5460 C.2   190  TYR190      0.2595
    161  O         83.5000  201.8000   85.5110 O.2   190  TYR190     -0.2718
    162  CB        80.3290  201.3240   85.0090 C.3   190  TYR190      0.0548
    163  CG        79.1430  200.4220   85.2480 C.ar  190  TYR190     -0.0200
    164  CD1       78.7160  199.5200   84.2790 C.ar  190  TYR190     -0.0009
    165  CD2       78.4160  200.5050   86.4360 C.ar  190  TYR190     -0.0009
    166  CE1       77.5860  198.7190   84.4870 C.ar  190  TYR190      0.0417
    167  CE2       77.2930  199.7140   86.6520 C.ar  190  TYR190      0.0417
    168  CZ        76.8840  198.8230   85.6760 C.ar  190  TYR190      0.1957
    169  OH        75.7730  198.0370   85.9030 O.3   190  TYR190     -0.2866
    170  N         82.8690  202.3760   83.4350 N.am  191  GLN191     -0.1965
    171  CA        83.8740  203.4220   83.3530 C.3   191  GLN191      0.1733
    172  C         83.2270  204.6460   82.7110 C.2   191  GLN191      0.2616
    173  O         82.6160  204.5610   81.6380 O.2   191  GLN191     -0.2715
    174  CB        85.1130  202.9460   82.5780 C.3   191  GLN191      0.0408
    175  CG        84.9640  202.7340   81.0870 C.3   191  GLN191      0.0908
    176  CD        86.1730  202.0100   80.5090 C.2   191  GLN191      0.2608
    177  OE1       86.1340  200.7910   80.2710 O.2   191  GLN191     -0.2717
    178  NE2       87.2650  202.7490   80.2990 N.am  191  GLN191     -0.0878
    179  N         83.3250  205.7760   83.4030 N.am  192  TRP192     -0.1974
    180  CA        82.7430  207.0200   82.9300 C.3   192  TRP192      0.1640
    181  C         83.5920  207.6530   81.8340 C.2   192  TRP192      0.2290
    182  O         83.1550  208.5990   81.1670 O.2   192  TRP192     -0.2864
    183  CB        82.6180  207.9960   84.0930 C.3   192  TRP192      0.0576
    184  CG        81.9470  207.4010   85.2830 C.ar  192  TRP192      0.0006
    185  CD1       82.4680  207.2820   86.5380 C.ar  192  TRP192      0.0946
    186  CD2       80.6340  206.8260   85.3350 C.ar  192  TRP192      0.0152
    187  NE1       81.5630  206.6650   87.3700 N.ar  192  TRP192     -0.2442
    188  CE2       80.4290  206.3750   86.6590 C.ar  192  TRP192      0.0810
    189  CE3       79.6110  206.6480   84.3940 C.ar  192  TRP192      0.0012
    190  CZ2       79.2440  205.7560   87.0680 C.ar  192  TRP192      0.0191
    191  CZ3       78.4260  206.0310   84.8010 C.ar  192  TRP192      0.0001
    192  CH2       78.2560  205.5930   86.1280 C.ar  192  TRP192      0.0015
    193  N         79.4390  199.8480   78.7650 N.3   217  ASN217     -0.1240
    194  CA        78.5840  200.7560   79.5390 C.3   217  ASN217      0.1653
    195  C         77.1520  200.7960   78.9980 C.2   217  ASN217      0.2266
    196  O         76.2470  201.3590   79.6270 O.2   217  ASN217     -0.2867
    197  CB        79.1460  202.1830   79.5240 C.3   217  ASN217      0.1155
    198  CG        80.4840  202.3070   80.2440 C.2   217  ASN217      0.2627
    199  OD1       80.6700  201.7740   81.3420 O.2   217  ASN217     -0.2716
    200  ND2       81.4180  203.0320   79.6340 N.am  217  ASN217     -0.0877
    201  N         73.9060  199.3550   78.6450 N.3   219  MET219     -0.1245
    202  CA        73.0430  198.3640   79.2730 C.3   219  MET219      0.1570
    203  C         71.7040  198.0430   78.6090 C.2   219  MET219      0.2261
    204  O         70.9320  197.2380   79.1360 O.2   219  MET219     -0.2867
    205  CB        72.8090  198.7630   80.7310 C.3   219  MET219      0.0387
    206  CG        74.0780  198.7210   81.5610 C.3   219  MET219      0.0595
    207  SD        74.8900  197.0970   81.4310 S.3   219  MET219     -0.1393
    208  CE        76.2570  197.4470   80.3170 C.3   219  MET219      0.0692
    209  N         65.0400  200.7290   78.1020 N.3   222  PHE222     -0.1241
    210  CA        63.9940  200.7160   79.1240 C.3   222  PHE222      0.1605
    211  C         62.7040  201.1140   78.3940 C.2   222  PHE222      0.2264
    212  O         62.5410  202.2660   77.9840 O.2   222  PHE222     -0.2867
    213  CB        64.2930  201.7360   80.2230 C.3   222  PHE222      0.0534
    214  CG        63.2240  201.8190   81.2810 C.ar  222  PHE222     -0.0203
    215  CD1       63.0440  200.7850   82.1930 C.ar  222  PHE222     -0.0042
    216  CD2       62.3900  202.9270   81.3580 C.ar  222  PHE222     -0.0042
    217  CE1       62.0480  200.8540   83.1690 C.ar  222  PHE222     -0.0003
    218  CE2       61.3910  203.0060   82.3290 C.ar  222  PHE222     -0.0003
    219  CZ        61.2200  201.9670   83.2350 C.ar  222  PHE222     -0.0000
    220  N         67.8680  206.8990   90.6300 N.3   242  MET242     -0.1245
    221  CA        68.8070  205.8180   90.8780 C.3   242  MET242      0.1570
    222  C         69.5160  206.0080   92.2030 C.2   242  MET242      0.2261
    223  O         69.9070  207.1250   92.5680 O.2   242  MET242     -0.2867
    224  CB        69.8540  205.7330   89.7750 C.3   242  MET242      0.0387
    225  CG        70.9430  204.7260   90.0820 C.3   242  MET242      0.0595
    226  SD        72.2140  204.6350   88.8170 S.3   242  MET242     -0.1393
    227  CE        73.2940  206.0350   89.3240 C.3   242  MET242      0.0692
    228  N         75.6960  214.3100   76.5740 N.3   263  LYS263     -0.1231
    229  CA        75.7460  213.1110   77.4030 C.3   263  LYS263      0.1693
    230  C         76.9820  212.2620   77.1490 C.2   263  LYS263      0.2592
    231  O         77.6540  211.8280   78.0840 O.2   263  LYS263     -0.2718
    232  CB        74.5410  212.2120   77.1390 C.3   263  LYS263      0.0285
    233  CG        73.1900  212.8280   77.3520 C.3   263  LYS263      0.0035
    234  CD        72.1140  211.7860   77.0790 C.3   263  LYS263      0.0206
    235  CE        70.7330  212.4170   77.0570 C.3   263  LYS263      0.1093
    236  NZ        69.6620  211.3890   76.8730 N.3   263  LYS263     -0.1314
    237  N         77.2720  212.0300   75.8740 N.am  264  THR264     -0.1953
    238  CA        78.3730  211.1630   75.4720 C.3   264  THR264      0.1897
    239  C         79.8160  211.6730   75.4200 C.2   264  THR264      0.2313
    240  O         80.7040  210.9320   74.9940 O.2   264  THR264     -0.2863
    241  CB        78.0470  210.5180   74.1050 C.3   264  THR264      0.1794
    242  OG1       77.8920  211.5430   73.1090 O.3   264  THR264     -0.2208
    243  CG2       76.7570  209.7160   74.2020 C.3   264  THR264      0.0378
@<TRIPOS>BOND
     1   242   241    1
     2   241   243    1
     3   241   238    1
     4   240   239    2
     5   239   238    1
     6   238   237    1
     7     1     2    1
     8   237   230   am
     9     2     3    1
    10     2     5    1
    11     3     4    2
    12   228   229    1
    13   236   235    1
    14   235   234    1
    15   234   233    1
    16   232   233    1
    17   232   229    1
    18   230   229    1
    19   230   231    2
    20    30    28   ar
    21     7     6   ar
    22     7     9   ar
    23     5     6    1
    24    15    16    1
    25   212   211    2
    26   209   210    1
    27     6     8   ar
    28     9    10   ar
    29   211   210    1
    30    28    27    1
    31    28    29   ar
    32    27    24    1
    33   203   204    2
    34   203   202    1
    35   201   202    1
    36    18    17    2
    37   193   194    1
    38   195   194    1
    39   195   196    2
    40   210   213    1
    41    17    16    1
    42    17    23   am
    43    16    19    1
    44   202   205    1
    45     8    10   ar
    46     8    11   ar
    47   100    99    2
    48    99    98    1
    49    10    12   ar
    50   197   194    1
    51   197   198    1
    52   200   198   am
    53    23    24    1
    54    24    25    1
    55    20    19    1
    56    20    22    1
    57    19    21    1
    58   213   214    1
    59   198   199    2
    60   177   176    2
    61   178   176   am
    62   208   207    1
    63    11    13   ar
    64   176   175    1
    65    12    14   ar
    66    98    97    1
    67    98   101    1
    68   205   206    1
    69   105   103   ar
    70   105   107   ar
    71   108   107    1
    72    43    44    1
    73    43    40    1
    74    26    25    2
    75    25    31   am
    76   103   102   ar
    77   175   174    1
    78    42    41    2
    79   107   106   ar
    80   182   181    2
    81   121   120    1
    82    44    45    1
    83   214   216   ar
    84   214   215   ar
    85   216   218   ar
    86   207   206    1
    87    13    14   ar
    88    41    40    1
    89   173   172    2
    90   102   101    1
    91   102   104   ar
    92   106   104   ar
    93   181   180    1
    94    40    39    1
    95    31    32    1
    96    39    33   am
    97    87    86    1
    98    87    88    2
    99   215   217   ar
   100   109   115    1
   101   109   110    1
   102   218   219   ar
   103   115   114    1
   104   153   152    2
   105    86    85    1
   106    86    89    1
   107   120   117    1
   108   174   171    1
   109   112   111    2
   110   172   171    1
   111   172   179   am
   112    45    46    1
   113   180   179    1
   114   180   183    1
   115   217   219   ar
   116    33    32    1
   117    33    34    2
   118   111   110    1
   119   111   116   am
   120    32    35    1
   121   171   170    1
   122   170   160   am
   123   110   113    1
   124   117   116    1
   125   117   118    1
   126   152   151    1
   127   114   113    1
   128    89    90    1
   129    91    90   ar
   130    91    93   ar
   131   183   184    1
   132   154   151    1
   133   154   155    1
   134   164   166   ar
   135   164   163   ar
   136   157   156    1
   137   189   191   ar
   138   189   186   ar
   139   156   155    1
   140    35    36    1
   141   166   168   ar
   142    36    38    1
   143    36    37    1
   144    90    92   ar
   145    93    95   ar
   146   160   159    1
   147   160   161    2
   148   159   162    1
   149   159   158    1
   150   151   150    1
   151   191   192   ar
   152   118   122   am
   153   118   119    2
   154   125   124    2
   155   122   123    1
   156   162   163    1
   157   163   165   ar
   158   184   186   ar
   159   184   185   ar
   160   186   188   ar
   161   168   169    1
   162   168   167   ar
   163   124   123    1
   164    92    94   ar
   165    95    94   ar
   166    95    96    1
   167   192   190   ar
   168   123   126    1
   169    82    80   ar
   170    82    84   ar
   171   165   167   ar
   172   185   187   ar
   173   188   190   ar
   174   188   187   ar
   175    80    79   ar
   176    84    83   ar
   177   126   128    1
   178   126   127    1
   179    73    71   ar
   180    73    72   ar
   181    71    69   ar
   182   141   140    1
   183    79    78    1
   184    79    81   ar
   185    72    70   ar
   186    69    68   ar
   187    83    81   ar
   188   146   145    2
   189   142   140    1
   190   148   149    1
   191   148   147    1
   192    78    75    1
   193    70    68   ar
   194    68    67    1
   195   140   137    1
   196   149   143    1
   197   226   227    1
   198   226   225    1
   199    57    56   ar
   200    57    55   ar
   201   145   144    1
   202    56    54   ar
   203    75    76    1
   204    75    74    1
   205    67    64    1
   206   143   144    1
   207   143   138   am
   208   147   144    1
   209    55    53   ar
   210   135   133    1
   211   137   138    1
   212   137   136    1
   213    76    77    2
   214   224   225    1
   215   224   221    1
   216   138   139    2
   217    50    49    2
   218    54    52   ar
   219   134   133    1
   220   220   221    1
   221   133   130    1
   222    53    52   ar
   223    64    65    1
   224    64    63    1
   225    62    59    1
   226   221   222    1
   227    47    48    1
   228    52    51    1
   229    65    66    2
   230    49    48    1
   231    48    51    1
   232    61    60    2
   233    58    59    1
   234   132   131    2
   235    59    60    1
   236   130   131    1
   237   130   129    1
   238   222   223    2
