@<TRIPOS>MOLECULE
tmp/5abuA00.pdb
 159 151 0 0 0
SMALL
GASTEIGER

@<TRIPOS>ATOM
      1  N          6.5370   52.0810    9.4290 N.3    15  LEU15      -0.1245
      2  CA         5.0850   52.1630    9.4840 C.3    15  LEU15       0.1561
      3  C          4.5380   52.2290    8.0670 C.2    15  LEU15       0.2260
      4  O          4.7290   53.2230    7.3710 O.2    15  LEU15      -0.2867
      5  CB         4.6340   53.3860   10.2850 C.3    15  LEU15       0.0270
      6  CG         3.1250   53.5240   10.5030 C.3    15  LEU15       0.0019
      7  CD1        2.6520   52.5700   11.5870 C.3    15  LEU15       0.0001
      8  CD2        2.7580   54.9600   10.8460 C.3    15  LEU15       0.0001
      9  N          1.5610   52.3250    5.1090 N.3    17  ASN17      -0.1240
     10  CA         0.2500   52.9340    4.9260 C.3    17  ASN17       0.1653
     11  C         -0.7460   51.8900    4.4270 C.2    17  ASN17       0.2266
     12  O         -0.9020   51.6930    3.2210 O.2    17  ASN17      -0.2867
     13  CB         0.3360   54.1100    3.9500 C.3    17  ASN17       0.1155
     14  CG        -0.9210   54.9610    3.9450 C.2    17  ASN17       0.2627
     15  OD1       -1.9770   54.5390    4.4180 O.2    17  ASN17      -0.2716
     16  ND2       -0.8110   56.1700    3.4070 N.am   17  ASN17      -0.0877
     17  N         -3.2920   50.7000   13.3700 N.3    23  TRP23      -0.1227
     18  CA        -2.0280   51.4310   13.3890 C.3    23  TRP23       0.1737
     19  C         -0.8800   50.5620   13.9000 C.2    23  TRP23       0.2595
     20  O          0.2080   50.5610   13.3250 O.2    23  TRP23      -0.2718
     21  CB        -2.1510   52.6890   14.2520 C.3    23  TRP23       0.0564
     22  CG        -0.9010   53.5220   14.2740 C.ar   23  TRP23       0.0003
     23  CD1       -0.5970   54.5680   13.4510 C.ar   23  TRP23       0.0946
     24  CD2        0.2140   53.3750   15.1630 C.ar   23  TRP23       0.0152
     25  NE1        0.6360   55.0810   13.7730 N.ar   23  TRP23      -0.2442
     26  CE2        1.1550   54.3660   14.8200 C.ar   23  TRP23       0.0810
     27  CE3        0.5070   52.5030   16.2150 C.ar   23  TRP23       0.0012
     28  CZ2        2.3670   54.5080   15.4910 C.ar   23  TRP23       0.0191
     29  CZ3        1.7100   52.6450   16.8800 C.ar   23  TRP23       0.0001
     30  CH2        2.6250   53.6400   16.5160 C.ar   23  TRP23       0.0015
     31  N         -1.1300   49.8200   14.9750 N.am   24  GLU24      -0.1979
     32  CA        -0.1160   48.9410   15.5520 C.3    24  GLU24       0.1602
     33  C          0.3310   47.8720   14.5580 C.2    24  GLU24       0.2287
     34  O          1.5130   47.5380   14.4840 O.2    24  GLU24      -0.2864
     35  CB        -0.6430   48.2760   16.8250 C.3    24  GLU24       0.0415
     36  CG        -0.8430   49.2330   17.9910 C.3    24  GLU24       0.1163
     37  CD        -1.2800   48.5240   19.2590 C.2    24  GLU24       0.3649
     38  OE1       -0.6820   47.4780   19.5930 O.co2  24  GLU24      -0.2457
     39  OE2       -2.2230   49.0100   19.9190 O.co2  24  GLU24      -0.2457
     40  N          0.3850   48.1230   11.3920 N.3    26  MET26      -0.1245
     41  CA         1.1180   48.7380   10.2900 C.3    26  MET26       0.1570
     42  C          2.6180   48.7880   10.5760 C.2    26  MET26       0.2261
     43  O          3.4260   48.8920    9.6540 O.2    26  MET26      -0.2867
     44  CB         0.6030   50.1550   10.0210 C.3    26  MET26       0.0387
     45  CG        -0.8310   50.2250    9.5160 C.3    26  MET26       0.0595
     46  SD        -1.3200   51.8990    9.0500 S.3    26  MET26      -0.1393
     47  CE        -3.0390   51.9140    9.5570 C.3    26  MET26       0.0692
     48  N          2.3490   59.2900    4.7500 N.3    55  GLY55      -0.1225
     49  CA         1.6060   58.5660    5.7670 C.3    55  GLY55       0.1811
     50  C          2.3920   57.4210    6.3810 C.2    55  GLY55       0.2280
     51  O          1.8810   56.7080    7.2450 O.2    55  GLY55      -0.2866
     52  N          6.1280   56.0410    8.2900 N.3    57  ASP57      -0.1239
     53  CA         7.1410   56.5020    9.2390 C.3    57  ASP57       0.1674
     54  C          8.4030   55.6490    9.1990 C.2    57  ASP57       0.2266
     55  O          8.3550   54.4620    8.8740 O.2    57  ASP57      -0.2867
     56  CB         6.5980   56.4840   10.6720 C.3    57  ASP57       0.1410
     57  CG         5.4180   57.4140   10.8710 C.2    57  ASP57       0.3668
     58  OD1        5.1870   58.2940   10.0160 O.co2  57  ASP57      -0.2456
     59  OD2        4.7300   57.2720   11.9040 O.co2  57  ASP57      -0.2456
     60  N          5.8130   52.9680   20.1470 N.3    68  MET68      -0.1230
     61  CA         4.4080   53.2320   20.4420 C.3    68  MET68       0.1702
     62  C          4.1610   53.5560   21.9150 C.2    68  MET68       0.2592
     63  O          4.9370   53.1720   22.7920 O.2    68  MET68      -0.2718
     64  CB         3.5510   52.0330   20.0220 C.3    68  MET68       0.0401
     65  CG         4.0360   50.6880   20.5510 C.3    68  MET68       0.0596
     66  SD         3.0990   49.2880   19.8930 S.3    68  MET68      -0.1393
     67  CE         3.5580   49.3450   18.1620 C.3    68  MET68       0.0692
     68  N          3.0650   54.2660   22.1670 N.am   69  TRP69      -0.1962
     69  CA         2.7000   54.7050   23.5100 C.3    69  TRP69       0.1771
     70  C          2.5280   53.5380   24.4750 C.2    69  TRP69       0.2619
     71  O          2.7740   53.6720   25.6730 O.2    69  TRP69      -0.2715
     72  CB         1.4000   55.5110   23.4650 C.3    69  TRP69       0.0590
     73  CG         1.4280   56.6710   22.5200 C.ar   69  TRP69       0.0006
     74  CD1        2.4950   57.4690   22.2310 C.ar   69  TRP69       0.0946
     75  CD2        0.3360   57.1570   21.7320 C.ar   69  TRP69       0.0152
     76  NE1        2.1330   58.4280   21.3150 N.ar   69  TRP69      -0.2442
     77  CE2        0.8130   58.2570   20.9920 C.ar   69  TRP69       0.0810
     78  CE3       -0.9990   56.7700   21.5820 C.ar   69  TRP69       0.0012
     79  CZ2        0.0020   58.9740   20.1150 C.ar   69  TRP69       0.0191
     80  CZ3       -1.8020   57.4830   20.7120 C.ar   69  TRP69       0.0001
     81  CH2       -1.3000   58.5720   19.9890 C.ar   69  TRP69       0.0015
     82  N          2.1010   52.3960   23.9460 N.am   70  GLU70      -0.1977
     83  CA         1.7270   51.2570   24.7760 C.3    70  GLU70       0.1602
     84  C          2.9350   50.5920   25.4270 C.2    70  GLU70       0.2287
     85  O          2.8060   49.9570   26.4750 O.2    70  GLU70      -0.2864
     86  CB         0.9610   50.2220   23.9490 C.3    70  GLU70       0.0415
     87  CG        -0.3770   50.7080   23.4170 C.3    70  GLU70       0.1163
     88  CD        -0.2430   51.5320   22.1530 C.2    70  GLU70       0.3649
     89  OE1        0.6230   52.4310   22.1080 O.co2  70  GLU70      -0.2457
     90  OE2       -1.0010   51.2740   21.1960 O.co2  70  GLU70      -0.2457
     91  N          8.3130   63.2190   23.9840 N.3    79  ARG79      -0.1245
     92  CA         9.1470   63.3870   22.7990 C.3    79  ARG79       0.1563
     93  C          9.5200   64.8440   22.5490 C.2    79  ARG79       0.2260
     94  O          8.6970   65.7400   22.7260 O.2    79  ARG79      -0.2867
     95  CB         8.4230   62.8320   21.5690 C.3    79  ARG79       0.0307
     96  CG         7.0740   63.4920   21.3120 C.3    79  ARG79       0.0489
     97  CD         6.3890   62.9600   20.0640 C.3    79  ARG79       0.2205
     98  NE         5.1520   63.6890   19.7860 N.pl3  79  ARG79      -0.0865
     99  CZ         4.4260   63.5520   18.6800 C.cat  79  ARG79       0.5346
    100  NH1        4.8040   62.7110   17.7270 N.pl3  79  ARG79       0.1354
    101  NH2        3.3180   64.2640   18.5250 N.pl3  79  ARG79       0.1354
    102  N          7.9670   61.4620   10.9270 N.3   117  ASN117     -0.1240
    103  CA         6.6690   61.3950   10.2750 C.3   117  ASN117      0.1653
    104  C          6.7220   62.0850    8.9220 C.2   117  ASN117      0.2266
    105  O          7.1840   63.2210    8.8130 O.2   117  ASN117     -0.2867
    106  CB         5.5880   62.0410   11.1460 C.3   117  ASN117      0.1155
    107  CG         5.5000   61.4230   12.5260 C.2   117  ASN117      0.2627
    108  OD1        5.6400   62.1130   13.5350 O.2   117  ASN117     -0.2716
    109  ND2        5.2620   60.1180   12.5770 N.am  117  ASN117     -0.0877
    110  N          4.3100   63.3690    6.1720 N.3   119  ARG119     -0.1245
    111  CA         2.9390   63.7230    5.8320 C.3   119  ARG119      0.1563
    112  C          2.9380   64.7650    4.7170 C.2   119  ARG119      0.2260
    113  O          3.9670   65.3790    4.4290 O.2   119  ARG119     -0.2867
    114  CB         2.1990   64.2490    7.0650 C.3   119  ARG119      0.0307
    115  CG         2.2480   63.3150    8.2710 C.3   119  ARG119      0.0489
    116  CD         1.4280   62.0490    8.0460 C.3   119  ARG119      0.2205
    117  NE         1.4890   61.1420    9.1930 N.pl3 119  ARG119     -0.0865
    118  CZ         2.3340   60.1180    9.3140 C.cat 119  ARG119      0.5346
    119  NH1        3.2130   59.8400    8.3580 N.pl3 119  ARG119      0.1354
    120  NH2        2.2980   59.3640   10.4040 N.pl3 119  ARG119      0.1354
    121  N          7.4770   65.7730   10.5280 N.3   124  LYS124     -0.1245
    122  CA         7.9700   65.8390   11.9010 C.3   124  LYS124      0.1561
    123  C          9.1460   64.8950   12.1240 C.2   124  LYS124      0.2260
    124  O          9.1680   63.7850   11.5960 O.2   124  LYS124     -0.2867
    125  CB         6.8610   65.4860   12.8940 C.3   124  LYS124      0.0271
    126  CG         5.7160   66.4760   12.9690 C.3   124  LYS124      0.0035
    127  CD         4.7450   66.0640   14.0650 C.3   124  LYS124      0.0206
    128  CE         3.5050   66.9370   14.0890 C.3   124  LYS124      0.1093
    129  NZ         2.5340   66.4720   15.1180 N.3   124  LYS124     -0.1314
    130  N         12.1330   60.3240   21.1590 N.3   128  TRP128     -0.1241
    131  CA        11.3630   59.8390   22.3010 C.3   128  TRP128      0.1605
    132  C         12.2510   59.5400   23.5080 C.2   128  TRP128      0.2264
    133  O         13.3090   58.9230   23.3680 O.2   128  TRP128     -0.2867
    134  CB        10.5850   58.5780   21.9150 C.3   128  TRP128      0.0550
    135  CG         9.4650   58.8200   20.9440 C.ar  128  TRP128      0.0003
    136  CD1        9.3950   59.7960   19.9920 C.ar  128  TRP128      0.0946
    137  CD2        8.2480   58.0720   20.8410 C.ar  128  TRP128      0.0152
    138  NE1        8.2120   59.6980   19.3000 N.ar  128  TRP128     -0.2442
    139  CE2        7.4890   58.6490   19.8030 C.ar  128  TRP128      0.0810
    140  CE3        7.7270   56.9690   21.5240 C.ar  128  TRP128      0.0012
    141  CZ2        6.2380   58.1590   19.4310 C.ar  128  TRP128      0.0191
    142  CZ3        6.4850   56.4850   21.1540 C.ar  128  TRP128      0.0001
    143  CH2        5.7550   57.0790   20.1180 C.ar  128  TRP128      0.0015
    144  N         -0.5320   63.8010   24.2600 N.3   165  THR165     -0.1218
    145  CA        -0.6210   63.6000   22.8190 C.3   165  THR165      0.1862
    146  C         -1.8320   62.7480   22.4530 C.2   165  THR165      0.2287
    147  O         -2.5820   63.0830   21.5360 O.2   165  THR165     -0.2866
    148  CB         0.6530   62.9250   22.2680 C.3   165  THR165      0.1770
    149  OG1        1.8010   63.7080   22.6170 O.3   165  THR165     -0.2211
    150  CG2        0.5850   62.7800   20.7500 C.3   165  THR165      0.0375
    151  N         -5.1290   64.4210   22.5860 N.3   168  LYS168     -0.1245
    152  CA        -5.2860   65.5160   21.6320 C.3   168  LYS168      0.1561
    153  C         -5.5460   66.8390   22.3450 C.2   168  LYS168      0.2260
    154  O         -6.5790   67.4740   22.1330 O.2   168  LYS168     -0.2867
    155  CB        -6.4250   65.2150   20.6550 C.3   168  LYS168      0.0271
    156  CG        -6.2590   63.9160   19.8890 C.3   168  LYS168      0.0035
    157  CD        -4.9560   63.8520   19.1440 C.3   168  LYS168      0.0206
    158  CE        -4.9630   62.6820   18.1590 C.3   168  LYS168      0.1093
    159  NZ        -4.8490   61.3500   18.8120 N.3   168  LYS168     -0.1314
@<TRIPOS>BOND
     1    12    11    2
     2    16    14   am
     3    14    13    1
     4    14    15    2
     5    13    10    1
     6    11    10    1
     7   113   112    2
     8   112   111    1
     9    48    49    1
    10    10     9    1
    11    49    50    1
    12   111   110    1
    13   111   114    1
    14    50    51    2
    15   114   115    1
    16     4     3    2
    17   116   115    1
    18   116   117    1
    19     3     2    1
    20    52    53    1
    21   119   118    1
    22   105   104    2
    23    55    54    2
    24   104   103    1
    25    46    45    1
    26    46    47    1
    27   117   118    2
    28    54    53    1
    29    53    56    1
    30   118   120    1
    31     1     2    1
    32     2     5    1
    33    45    44    1
    34    43    42    2
    35    58    57   ar
    36    44    41    1
    37   103   102    1
    38   103   106    1
    39     5     6    1
    40    41    42    1
    41    41    40    1
    42     6     8    1
    43     6     7    1
    44   121   122    1
    45    56    57    1
    46    57    59   ar
    47   106   107    1
    48   124   123    2
    49   122   123    1
    50   122   125    1
    51   107   109   am
    52   107   108    2
    53   125   126    1
    54   126   127    1
    55    20    19    2
    56    17    18    1
    57    18    19    1
    58    18    21    1
    59    23    25   ar
    60    23    22   ar
    61    25    26   ar
    62    19    31   am
    63   127   128    1
    64   128   129    1
    65    21    22    1
    66    22    24   ar
    67    34    33    2
    68    33    32    1
    69    26    24   ar
    70    26    28   ar
    71    31    32    1
    72    24    27   ar
    73    28    30   ar
    74    32    35    1
    75    27    29   ar
    76    30    29   ar
    77    35    36    1
    78   100    99    1
    79    36    37    1
    80   158   159    1
    81   158   157    1
    82    67    66    1
    83   101    99    1
    84    99    98    2
    85   157   156    1
    86    37    38   ar
    87    37    39   ar
    88   138   139   ar
    89   138   136   ar
    90   141   139   ar
    91   141   143   ar
    92    98    97    1
    93   139   137   ar
    94   156   155    1
    95    66    65    1
    96    81    79   ar
    97    81    80   ar
    98   136   135   ar
    99    64    61    1
   100    64    65    1
   101    97    96    1
   102    79    77   ar
   103   143   142   ar
   104    60    61    1
   105    61    62    1
   106   155   152    1
   107    80    78   ar
   108   150   148    1
   109   137   135   ar
   110   137   140   ar
   111   135   134    1
   112    77    76   ar
   113    77    75   ar
   114   142   140   ar
   115   130   131    1
   116    90    88   ar
   117    96    95    1
   118    76    74   ar
   119   147   146    2
   120    95    92    1
   121    78    75   ar
   122   152   153    1
   123   152   151    1
   124    75    73   ar
   125    62    68   am
   126    62    63    2
   127   134   131    1
   128    89    88   ar
   129   154   153    2
   130    88    87    1
   131    68    69    1
   132    74    73   ar
   133   148   149    1
   134   148   145    1
   135   131   132    1
   136   146   145    1
   137    73    72    1
   138    93    94    2
   139    93    92    1
   140    92    91    1
   141   145   144    1
   142   133   132    2
   143    87    86    1
   144    72    69    1
   145    69    70    1
   146    82    70   am
   147    82    83    1
   148    86    83    1
   149    70    71    2
   150    83    84    1
   151    84    85    2
