@<TRIPOS>MOLECULE
tmp/5abwA00.pdb
 133 131 0 0 0
SMALL
GASTEIGER

@<TRIPOS>ATOM
      1  N         21.9450  -21.9880    8.2710 N.3    41  HIS41      -0.1241
      2  CA        22.9590  -21.0280    7.8130 C.3    41  HIS41       0.1621
      3  C         22.3830  -19.9630    6.8920 C.2    41  HIS41       0.2264
      4  O         22.9290  -18.8680    6.7710 O.2    41  HIS41      -0.2867
      5  CB        24.2060  -21.7020    7.2270 C.3    41  HIS41       0.0745
      6  CG        24.0570  -22.1670    5.8130 C.ar   41  HIS41       0.0817
      7  ND1       23.7550  -23.4770    5.5010 N.ar   41  HIS41      -0.2268
      8  CD2       24.2770  -21.5350    4.6340 C.ar   41  HIS41       0.1154
      9  CE1       23.7500  -23.6170    4.1810 C.ar   41  HIS41       0.1986
     10  NE2       24.0610  -22.4530    3.6350 N.ar   41  HIS41      -0.2212
     11  N         21.5440  -25.5080   15.9610 N.3    80  TYR80      -0.1241
     12  CA        22.5140  -25.1810   14.9170 C.3    80  TYR80       0.1605
     13  C         23.8680  -24.8810   15.5150 C.2    80  TYR80       0.2264
     14  O         23.9680  -24.0710   16.4500 O.2    80  TYR80      -0.2867
     15  CB        22.0370  -23.9660   14.1130 C.3    80  TYR80       0.0534
     16  CG        23.0110  -23.4600   13.0530 C.ar   80  TYR80      -0.0201
     17  CD1       23.6370  -24.3360   12.1430 C.ar   80  TYR80      -0.0009
     18  CD2       23.2590  -22.0880   12.9290 C.ar   80  TYR80      -0.0009
     19  CE1       24.5410  -23.8410   11.1610 C.ar   80  TYR80       0.0417
     20  CE2       24.1500  -21.5960   11.9540 C.ar   80  TYR80       0.0417
     21  CZ        24.7650  -22.4730   11.0810 C.ar   80  TYR80       0.1957
     22  OH        25.6340  -21.9840   10.1200 O.3    80  TYR80      -0.2866
     23  N         27.3090  -23.5070   14.0000 N.3    82  PRO82      -0.2102
     24  CA        28.0290  -22.9910   12.8260 C.3    82  PRO82       0.1504
     25  C         29.5130  -23.3850   12.7730 C.2    82  PRO82       0.2576
     26  O         30.0720  -23.4920   11.6870 O.2    82  PRO82      -0.2718
     27  CB        27.8650  -21.4740   12.9430 C.3    82  PRO82       0.0282
     28  CG        27.6770  -21.2290   14.4170 C.3    82  PRO82       0.0208
     29  CD        26.8870  -22.4210   14.9030 C.3    82  PRO82       0.0893
     30  N         30.1430  -23.6350   13.9150 N.am   83  VAL83      -0.1966
     31  CA        31.5450  -24.0480   13.9250 C.3    83  VAL83       0.1727
     32  C         31.7560  -25.4140   13.2650 C.2    83  VAL83       0.2616
     33  O         32.7070  -25.6040   12.5010 O.2    83  VAL83      -0.2715
     34  CB        32.1350  -24.0240   15.3470 C.3    83  VAL83       0.0290
     35  CG1       33.5570  -24.5690   15.3410 C.3    83  VAL83       0.0023
     36  CG2       32.1040  -22.5870   15.8880 C.3    83  VAL83       0.0023
     37  N         30.8640  -26.3600   13.5430 N.am   84  ASN84      -0.1958
     38  CA        30.9930  -27.7150   13.0030 C.3    84  ASN84       0.1819
     39  C         30.0270  -28.0020   11.8680 C.2    84  ASN84       0.2621
     40  O         30.0410  -29.1040   11.3010 O.2    84  ASN84      -0.2715
     41  CB        30.7940  -28.7290   14.1350 C.3    84  ASN84       0.1195
     42  CG        31.8780  -28.6260   15.1900 C.2    84  ASN84       0.2630
     43  OD1       33.0730  -28.7360   14.8750 O.2    84  ASN84      -0.2716
     44  ND2       31.4760  -28.3930   16.4430 N.am   84  ASN84      -0.0877
     45  N         29.2120  -27.0060   11.5320 N.am   85  LEU85      -0.1977
     46  CA        28.1580  -27.1040   10.5230 C.3    85  LEU85       0.1596
     47  C         27.2850  -28.3410   10.7980 C.2    85  LEU85       0.2287
     48  O         27.1490  -29.2330    9.9630 O.2    85  LEU85      -0.2864
     49  CB        28.7320  -27.0650    9.0860 C.3    85  LEU85       0.0297
     50  CG        29.7050  -25.9270    8.7230 C.3    85  LEU85       0.0022
     51  CD1       31.1800  -26.2450    9.0680 C.3    85  LEU85       0.0001
     52  CD2       29.6090  -25.5950    7.2340 C.3    85  LEU85       0.0001
     53  N         30.1550  -37.3660    7.2290 N.3   150  ARG150     -0.1245
     54  CA        29.8800  -37.6970    8.6320 C.3   150  ARG150      0.1563
     55  C         28.5260  -38.3840    8.7930 C.2   150  ARG150      0.2260
     56  O         27.5930  -38.1540    8.0090 O.2   150  ARG150     -0.2867
     57  CB        29.9190  -36.4420    9.5060 C.3   150  ARG150      0.0307
     58  CG        31.1670  -35.6170    9.3430 C.3   150  ARG150      0.0489
     59  CD        31.0490  -34.3610   10.2140 C.3   150  ARG150      0.2205
     60  NE        30.0270  -33.4440    9.7010 N.pl3 150  ARG150     -0.0865
     61  CZ        29.9300  -32.1610   10.0460 C.cat 150  ARG150      0.5346
     62  NH1       30.7940  -31.6380   10.9210 N.pl3 150  ARG150      0.1354
     63  NH2       28.9630  -31.4090    9.5340 N.pl3 150  ARG150      0.1354
     64  N         25.5630  -29.2410   -6.0430 N.3   165  VAL165     -0.1231
     65  CA        24.9250  -28.0240   -5.5720 C.3   165  VAL165      0.1692
     66  C         25.9430  -26.8790   -5.4570 C.2   165  VAL165      0.2592
     67  O         27.1660  -27.1020   -5.4340 O.2   165  VAL165     -0.2718
     68  CB        24.1670  -28.2160   -4.2270 C.3   165  VAL165      0.0266
     69  CG1       23.1820  -29.3770   -4.3220 C.3   165  VAL165      0.0020
     70  CG2       25.1360  -28.4400   -3.0480 C.3   165  VAL165      0.0020
     71  N         25.4490  -25.6490   -5.4040 N.am  166  CYS166     -0.1956
     72  CA        26.3490  -24.5090   -5.2610 C.3   166  CYS166      0.1843
     73  C         25.7090  -23.3990   -4.4170 C.2   166  CYS166      0.2625
     74  O         24.6200  -23.5730   -3.8750 O.2   166  CYS166     -0.2714
     75  CB        26.7910  -24.0400   -6.6570 C.3   166  CYS166      0.0997
     76  SG        28.3480  -23.0710   -6.6690 S.3   166  CYS166     -0.0797
     77  N         26.3990  -22.2640   -4.2630 N.am  167  PHE167     -0.1974
     78  CA        25.8880  -21.1780   -3.4270 C.3   167  PHE167      0.1639
     79  C         24.5080  -20.7480   -3.9200 C.2   167  PHE167      0.2290
     80  O         24.2570  -20.7370   -5.1320 O.2   167  PHE167     -0.2864
     81  CB        26.8770  -20.0040   -3.4760 C.3   167  PHE167      0.0560
     82  CG        28.1980  -20.3180   -2.8370 C.ar  167  PHE167     -0.0200
     83  CD1       28.3740  -20.1170   -1.4720 C.ar  167  PHE167     -0.0042
     84  CD2       29.2480  -20.8150   -3.6020 C.ar  167  PHE167     -0.0042
     85  CE1       29.5600  -20.4070   -0.8530 C.ar  167  PHE167     -0.0003
     86  CE2       30.4780  -21.1190   -2.9920 C.ar  167  PHE167     -0.0003
     87  CZ        30.6460  -20.8940   -1.6250 C.ar  167  PHE167     -0.0000
     88  N         21.8540  -23.5520   -0.9900 N.3   170  SER170     -0.1217
     89  CA        21.6990  -23.6060    0.4570 C.3   170  SER170      0.1889
     90  C         20.2190  -23.6430    0.8360 C.2   170  SER170      0.2288
     91  O         19.4280  -22.8270    0.3430 O.2   170  SER170     -0.2866
     92  CB        22.2720  -22.3160    1.0440 C.3   170  SER170      0.2089
     93  OG        23.6810  -22.2740    0.9480 O.3   170  SER170     -0.2183
     94  N         20.1250  -28.7120    1.7320 N.3   184  ALA184     -0.1231
     95  CA        21.4990  -28.4320    1.2700 C.3   184  ALA184      0.1694
     96  C         22.2640  -27.6040    2.2890 C.2   184  ALA184      0.2593
     97  O         21.8010  -26.5200    2.6740 O.2   184  ALA184     -0.2718
     98  CB        21.4720  -27.7430   -0.0720 C.3   184  ALA184      0.0304
     99  N         23.4290  -28.1150    2.7140 N.am  185  SER185     -0.1938
    100  CA        24.1420  -27.5400    3.8660 C.3   185  SER185      0.2055
    101  C         25.5390  -27.0090    3.5050 C.2   185  SER185      0.2643
    102  O         25.8530  -25.8550    3.8020 O.2   185  SER185     -0.2714
    103  CB        24.2250  -28.5420    5.0350 C.3   185  SER185      0.2130
    104  OG        24.8430  -27.9570    6.1920 O.3   185  SER185     -0.2179
    105  N         26.3750  -27.8350    2.8930 N.am  186  PHE186     -0.1959
    106  CA        27.7140  -27.3490    2.5120 C.3   186  PHE186      0.1771
    107  C         28.4120  -28.1610    1.4620 C.2   186  PHE186      0.2619
    108  O         28.1370  -29.3580    1.3060 O.2   186  PHE186     -0.2715
    109  CB        28.6200  -27.1780    3.7690 C.3   186  PHE186      0.0574
    110  CG        28.9320  -28.4660    4.5200 C.ar  186  PHE186     -0.0200
    111  CD1       30.0040  -29.2890    4.1320 C.ar  186  PHE186     -0.0042
    112  CD2       28.1790  -28.8360    5.6300 C.ar  186  PHE186     -0.0042
    113  CE1       30.3040  -30.4550    4.8330 C.ar  186  PHE186     -0.0003
    114  CE2       28.4800  -29.9830    6.3330 C.ar  186  PHE186     -0.0003
    115  CZ        29.5420  -30.8060    5.9310 C.ar  186  PHE186     -0.0000
    116  N         29.3340  -27.4960    0.7580 N.am  187  VAL187     -0.1963
    117  CA        30.2160  -28.1420   -0.1900 C.3   187  VAL187      0.1727
    118  C         31.6430  -27.9990    0.2790 C.2   187  VAL187      0.2616
    119  O         31.9480  -27.1310    1.0960 O.2   187  VAL187     -0.2715
    120  CB        30.0540  -27.5630   -1.6240 C.3   187  VAL187      0.0290
    121  CG1       28.6090  -27.6920   -2.1400 C.3   187  VAL187      0.0023
    122  CG2       30.5560  -26.1550   -1.6990 C.3   187  VAL187      0.0023
    123  N         32.5110  -28.8710   -0.2200 N.am  188  ARG188     -0.1977
    124  CA        33.9580  -28.7710    0.0130 C.3   188  ARG188      0.1597
    125  C         34.6780  -28.8990   -1.3190 C.2   188  ARG188      0.2287
    126  O         34.2230  -29.6230   -2.2100 O.2   188  ARG188     -0.2864
    127  CB        34.4170  -29.8840    0.9530 C.3   188  ARG188      0.0334
    128  CG        33.9980  -29.6600    2.4040 C.3   188  ARG188      0.0492
    129  CD        34.0530  -30.9620    3.1870 C.3   188  ARG188      0.2205
    130  NE        33.0000  -31.8810    2.7500 N.pl3 188  ARG188     -0.0865
    131  CZ        32.9550  -33.1730    3.0550 C.cat 188  ARG188      0.5346
    132  NH1       33.9490  -33.7610    3.7390 N.pl3 188  ARG188      0.1354
    133  NH2       31.9290  -33.9130    2.6180 N.pl3 188  ARG188      0.1354
@<TRIPOS>BOND
     1    76    75    1
     2    75    72    1
     3    64    65    1
     4    65    66    1
     5    65    68    1
     6    66    67    2
     7    66    71   am
     8    71    72    1
     9    72    73    1
    10    80    79    2
    11    73    77   am
    12    73    74    2
    13    69    68    1
    14    77    78    1
    15    68    70    1
    16    79    78    1
    17    84    86   ar
    18    84    82   ar
    19    81    78    1
    20    81    82    1
    21    86    87   ar
    22    82    83   ar
    23   126   125    2
    24   121   120    1
    25   122   120    1
    26    87    85   ar
    27   120   117    1
    28    83    85   ar
    29   125   124    1
    30    88    89    1
    31   123   124    1
    32   123   118   am
    33   117   118    1
    34   117   116    1
    35    98    95    1
    36   124   127    1
    37   118   119    2
    38    91    90    2
    39    89    90    1
    40    89    92    1
    41   116   107   am
    42    93    92    1
    43   127   128    1
    44    95    94    1
    45    95    96    1
    46   108   107    2
    47   107   106    1
    48    96    97    2
    49    96    99   am
    50   128   129    1
    51   106   105    1
    52   106   109    1
    53   133   131    1
    54    99   100    1
    55   130   131    2
    56   130   129    1
    57   105   101   am
    58   131   132    1
    59   101   102    2
    60   101   100    1
    61    10     9   ar
    62    10     8   ar
    63   109   110    1
    64   100   103    1
    65   111   110   ar
    66   111   113   ar
    67     9     7   ar
    68   110   112   ar
    69     8     6   ar
    70   113   115   ar
    71   103   104    1
    72     7     6   ar
    73   112   114   ar
    74     6     5    1
    75   115   114   ar
    76     4     3    2
    77     3     2    1
    78     5     2    1
    79    53    54    1
    80    52    50    1
    81     2     1    1
    82    56    55    2
    83    54    55    1
    84    54    57    1
    85    50    51    1
    86    50    49    1
    87    49    46    1
    88    58    57    1
    89    58    59    1
    90    63    61    1
    91    60    61    2
    92    60    59    1
    93    48    47    2
    94    61    62    1
    95    22    21    1
    96    46    47    1
    97    46    45    1
    98    21    19   ar
    99    21    20   ar
   100    19    17   ar
   101    40    39    2
   102    45    39   am
   103    26    25    2
   104    39    38    1
   105    20    18   ar
   106    17    16   ar
   107    33    32    2
   108    25    24    1
   109    25    30   am
   110    24    27    1
   111    24    23    1
   112    18    16   ar
   113    27    28    1
   114    38    37    1
   115    38    41    1
   116    16    15    1
   117    32    37   am
   118    32    31    1
   119    30    31    1
   120    31    34    1
   121    23    29    1
   122    15    12    1
   123    41    42    1
   124    28    29    1
   125    43    42    2
   126    12    13    1
   127    12    11    1
   128    42    44   am
   129    35    34    1
   130    34    36    1
   131    13    14    2
