@<TRIPOS>MOLECULE
tmp/5abxA00.pdb
 149 146 0 0 0
SMALL
GASTEIGER

@<TRIPOS>ATOM
      1  N          4.7750   14.1730   16.7820 N.3    22  TRP22      -0.1227
      2  CA         6.1100   14.5680   17.2170 C.3    22  TRP22       0.1737
      3  C          6.2410   14.7290   18.7280 C.2    22  TRP22       0.2595
      4  O          7.1300   14.1450   19.3440 O.2    22  TRP22      -0.2718
      5  CB         6.5120   15.8760   16.5420 C.3    22  TRP22       0.0564
      6  CG         7.8650   16.3270   16.9630 C.ar   22  TRP22       0.0003
      7  CD1        9.0560   15.9420   16.4260 C.ar   22  TRP22       0.0946
      8  CD2        8.1770   17.2370   18.0270 C.ar   22  TRP22       0.0152
      9  NE1       10.0910   16.5550   17.0840 N.ar   22  TRP22      -0.2442
     10  CE2        9.5790   17.3530   18.0740 C.ar   22  TRP22       0.0810
     11  CE3        7.4080   17.9630   18.9440 C.ar   22  TRP22       0.0012
     12  CZ2       10.2290   18.1720   18.9920 C.ar   22  TRP22       0.0191
     13  CZ3        8.0560   18.7700   19.8600 C.ar   22  TRP22       0.0001
     14  CH2        9.4530   18.8660   19.8800 C.ar   22  TRP22       0.0015
     15  N          5.3590   15.5190   19.3280 N.am   23  GLU23      -0.1979
     16  CA         5.4600   15.8000   20.7570 C.3    23  GLU23       0.1602
     17  C          5.2980   14.5420   21.6060 C.2    23  GLU23       0.2287
     18  O          5.7890   14.4720   22.7300 O.2    23  GLU23      -0.2864
     19  CB         4.4220   16.8520   21.1710 C.3    23  GLU23       0.0415
     20  CG         2.9700   16.4760   20.9030 C.3    23  GLU23       0.1163
     21  CD         2.5150   16.7550   19.4710 C.2    23  GLU23       0.3649
     22  OE1        3.3650   17.0680   18.6030 O.co2  23  GLU23      -0.2457
     23  OE2        1.2940   16.6600   19.2110 O.co2  23  GLU23      -0.2457
     24  N         16.6260   11.9620   18.6160 N.3    56  ASP56      -0.1239
     25  CA        17.1770   13.2410   19.0860 C.3    56  ASP56       0.1674
     26  C         17.5780   13.1810   20.5590 C.2    56  ASP56       0.2266
     27  O         16.9650   12.4650   21.3550 O.2    56  ASP56      -0.2867
     28  CB        16.1670   14.3930   18.9930 C.3    56  ASP56       0.1410
     29  CG        15.4760   14.5120   17.6490 C.2    56  ASP56       0.3668
     30  OD1       16.0960   14.2680   16.5940 O.co2  56  ASP56      -0.2456
     31  OD2       14.2930   14.9250   17.6620 O.co2  56  ASP56      -0.2456
     32  N         17.8850   16.3220   23.5710 N.3    58  TYR58      -0.1241
     33  CA        17.7100   17.7380   23.9020 C.3    58  TYR58       0.1605
     34  C         18.2700   17.9560   25.2960 C.2    58  TYR58       0.2264
     35  O         18.0010   17.1530   26.1930 O.2    58  TYR58      -0.2867
     36  CB        16.2370   18.1660   23.8720 C.3    58  TYR58       0.0534
     37  CG        15.5010   17.8840   22.5850 C.ar   58  TYR58      -0.0201
     38  CD1       15.0640   16.6010   22.2670 C.ar   58  TYR58      -0.0009
     39  CD2       15.2250   18.9100   21.6970 C.ar   58  TYR58      -0.0009
     40  CE1       14.3840   16.3600   21.0810 C.ar   58  TYR58       0.0417
     41  CE2       14.5440   18.6740   20.5230 C.ar   58  TYR58       0.0417
     42  CZ        14.1290   17.4050   20.2220 C.ar   58  TYR58       0.1957
     43  OH        13.4590   17.1970   19.0350 O.3    58  TYR58      -0.2866
     44  N         11.4890   21.5150   25.2820 N.3    66  PRO66      -0.2102
     45  CA        12.2030   21.6880   24.0130 C.3    66  PRO66       0.1504
     46  C         11.2480   21.7110   22.8190 C.2    66  PRO66       0.2576
     47  O         11.2940   20.8540   21.9310 O.2    66  PRO66      -0.2718
     48  CB        13.1420   20.4800   23.9780 C.3    66  PRO66       0.0282
     49  CG        12.4190   19.4340   24.7320 C.3    66  PRO66       0.0208
     50  CD        11.6370   20.1460   25.8090 C.3    66  PRO66       0.0893
     51  N         10.3880   22.7200   22.8240 N.am   67  MET67      -0.1966
     52  CA         9.3480   22.8930   21.8160 C.3    67  MET67       0.1736
     53  C          9.2600   24.3550   21.4090 C.2    67  MET67       0.2616
     54  O          9.3570   25.2340   22.2670 O.2    67  MET67      -0.2715
     55  CB         7.9890   22.4530   22.3550 C.3    67  MET67       0.0427
     56  CG         7.9760   21.1210   23.0560 C.3    67  MET67       0.0599
     57  SD         6.3920   20.8980   23.8900 S.3    67  MET67      -0.1393
     58  CE         6.3910   19.1250   24.1020 C.3    67  MET67       0.0692
     59  N          9.0540   24.6080   20.1160 N.am   68  TRP68      -0.1960
     60  CA         8.8040   25.9640   19.6190 C.3    68  TRP68       0.1771
     61  C          7.6920   26.6380   20.4150 C.2    68  TRP68       0.2619
     62  O          7.7310   27.8430   20.6600 O.2    68  TRP68      -0.2715
     63  CB         8.4040   25.9500   18.1410 C.3    68  TRP68       0.0590
     64  CG         9.3530   25.2720   17.2160 C.ar   68  TRP68       0.0006
     65  CD1       10.7180   25.2910   17.2640 C.ar   68  TRP68       0.0946
     66  CD2        9.0020   24.4720   16.0850 C.ar   68  TRP68       0.0152
     67  NE1       11.2360   24.5510   16.2280 N.ar   68  TRP68      -0.2442
     68  CE2       10.2020   24.0350   15.4910 C.ar   68  TRP68       0.0810
     69  CE3        7.7860   24.0780   15.5190 C.ar   68  TRP68       0.0012
     70  CZ2       10.2210   23.2270   14.3620 C.ar   68  TRP68       0.0191
     71  CZ3        7.8070   23.2760   14.4000 C.ar   68  TRP68       0.0001
     72  CH2        9.0150   22.8590   13.8300 C.ar   68  TRP68       0.0015
     73  N          6.7050   25.8420   20.8170 N.am   69  GLU69      -0.1977
     74  CA         5.5070   26.3510   21.4830 C.3    69  GLU69       0.1602
     75  C          5.7180   26.7640   22.9430 C.2    69  GLU69       0.2287
     76  O          4.8640   27.4350   23.5250 O.2    69  GLU69      -0.2864
     77  CB         4.3920   25.3010   21.4280 C.3    69  GLU69       0.0415
     78  CG         3.9110   24.9560   20.0230 C.3    69  GLU69       0.1163
     79  CD         4.8600   24.0460   19.2600 C.2    69  GLU69       0.3649
     80  OE1        5.7900   23.4850   19.8790 O.co2  69  GLU69      -0.2457
     81  OE2        4.6730   23.8960   18.0330 O.co2  69  GLU69      -0.2457
     82  N         17.3670   29.2740   16.6950 N.3    78  ARG78      -0.1245
     83  CA        18.4870   28.3660   16.9040 C.3    78  ARG78       0.1563
     84  C         19.6570   28.6830   15.9860 C.2    78  ARG78       0.2260
     85  O         19.4680   29.0910   14.8340 O.2    78  ARG78      -0.2867
     86  CB        18.0520   26.9160   16.6790 C.3    78  ARG78       0.0307
     87  CG        17.6320   26.6130   15.2480 C.3    78  ARG78       0.0489
     88  CD        17.4090   25.1360   15.0040 C.3    78  ARG78       0.2205
     89  NE        17.0640   24.8720   13.6060 N.pl3  78  ARG78      -0.0865
     90  CZ        16.8790   23.6600   13.0940 C.cat  78  ARG78       0.5346
     91  NH1       17.0150   22.5800   13.8570 N.pl3  78  ARG78       0.1354
     92  NH2       16.5630   23.5250   11.8130 N.pl3  78  ARG78       0.1354
     93  N         20.1310   16.1210   16.3000 N.3   117  ASN117     -0.1240
     94  CA        19.2630   15.2780   15.4920 C.3   117  ASN117      0.1653
     95  C         20.1240   14.3150   14.6990 C.2   117  ASN117      0.2266
     96  O         21.0290   14.7480   13.9940 O.2   117  ASN117     -0.2867
     97  CB        18.4220   16.0950   14.5030 C.3   117  ASN117      0.1155
     98  CG        17.7100   17.2630   15.1350 C.2   117  ASN117      0.2627
     99  OD1       18.0040   18.4220   14.8220 O.2   117  ASN117     -0.2716
    100  ND2       16.7200   16.9740   15.9700 N.am  117  ASN117     -0.0877
    101  N         20.2370   11.9770   11.6130 N.3   119  ARG119     -0.1245
    102  CA        19.4800   11.8390   10.3690 C.3   119  ARG119      0.1563
    103  C         20.3790   11.3410    9.2440 C.2   119  ARG119      0.2260
    104  O         21.5420   11.7410    9.1400 O.2   119  ARG119     -0.2867
    105  CB        18.8500   13.1740    9.9590 C.3   119  ARG119      0.0307
    106  CG        17.9540   13.8290   11.0070 C.3   119  ARG119      0.0489
    107  CD        16.6190   13.1230   11.1670 C.3   119  ARG119      0.2205
    108  NE        15.7150   13.8770   12.0390 N.pl3 119  ARG119     -0.0865
    109  CZ        15.6890   13.7880   13.3690 C.cat 119  ARG119      0.5346
    110  NH1       16.4990   12.9580   14.0110 N.pl3 119  ARG119      0.1354
    111  NH2       14.8330   14.5270   14.0620 N.pl3 119  ARG119      0.1354
    112  N         20.1810   12.0260    6.0880 N.3   121  LYS121     -0.1245
    113  CA        20.5040   13.1510    5.2110 C.3   121  LYS121      0.1561
    114  C         21.6660   13.9950    5.7430 C.2   121  LYS121      0.2260
    115  O         22.3120   14.7270    4.9930 O.2   121  LYS121     -0.2867
    116  CB        19.2680   14.0360    5.0220 C.3   121  LYS121      0.0271
    117  CG        19.4520   15.1640    4.0140 C.3   121  LYS121      0.0035
    118  CD        18.1910   16.0010    3.8530 C.3   121  LYS121      0.0206
    119  CE        18.3700   17.0470    2.7590 C.3   121  LYS121      0.1093
    120  NZ        17.2900   18.0720    2.7590 N.3   121  LYS121     -0.1314
    121  N         22.4350   17.0060   12.7200 N.3   124  LYS124     -0.1245
    122  CA        22.3720   18.4250   13.0490 C.3   124  LYS124      0.1561
    123  C         22.6170   18.6230   14.5380 C.2   124  LYS124      0.2260
    124  O         22.1530   17.8320   15.3550 O.2   124  LYS124     -0.2867
    125  CB        21.0170   19.0200   12.6480 C.3   124  LYS124      0.0271
    126  CG        20.8010   19.0530   11.1340 C.3   124  LYS124      0.0035
    127  CD        19.4080   19.5220   10.7430 C.3   124  LYS124      0.0206
    128  CE        18.3650   18.4610   11.0300 C.3   124  LYS124      0.1093
    129  NZ        17.0290   18.8850   10.5480 N.3   124  LYS124     -0.1314
    130  N         19.5720   26.5040   20.8650 N.3   128  TRP128     -0.1241
    131  CA        18.3580   27.3080   20.9470 C.3   128  TRP128      0.1605
    132  C         18.5440   28.4860   21.9030 C.2   128  TRP128      0.2264
    133  O         19.0290   28.3280   23.0320 O.2   128  TRP128     -0.2867
    134  CB        17.1700   26.4590   21.4090 C.3   128  TRP128      0.0550
    135  CG        16.6340   25.4470   20.4130 C.ar  128  TRP128      0.0003
    136  CD1       17.3270   24.7950   19.4260 C.ar  128  TRP128      0.0946
    137  CD2       15.2820   24.9840   20.3210 C.ar  128  TRP128      0.0152
    138  NE1       16.4820   23.9600   18.7300 N.ar  128  TRP128     -0.2442
    139  CE2       15.2230   24.0590   19.2630 C.ar  128  TRP128      0.0810
    140  CE3       14.1130   25.2690   21.0350 C.ar  128  TRP128      0.0012
    141  CZ2       14.0400   23.4140   18.9000 C.ar  128  TRP128      0.0191
    142  CZ3       12.9420   24.6250   20.6750 C.ar  128  TRP128      0.0001
    143  CH2       12.9150   23.7120   19.6170 C.ar  128  TRP128      0.0015
    144  N         10.5790   28.2730   11.2150 N.3   165  SER165     -0.1217
    145  CA        10.6930   26.8150   11.2050 C.3   165  SER165      0.1889
    146  C          9.3290   26.1650   11.3930 C.2   165  SER165      0.2288
    147  O          9.0670   25.0830   10.8670 O.2   165  SER165     -0.2866
    148  CB        11.6480   26.3350   12.3070 C.3   165  SER165      0.2089
    149  OG        12.9490   26.8810   12.1450 O.3   165  SER165     -0.2183
@<TRIPOS>BOND
     1   119   120    1
     2   119   118    1
     3   118   117    1
     4   117   116    1
     5   115   114    2
     6   116   113    1
     7   113   114    1
     8   113   112    1
     9   104   103    2
    10   103   102    1
    11   105   102    1
    12   105   106    1
    13   102   101    1
    14   129   128    1
    15   127   128    1
    16   127   126    1
    17   147   146    2
    18   106   107    1
    19   126   125    1
    20   107   108    1
    21   145   144    1
    22   145   146    1
    23   145   148    1
    24    92    90    1
    25   108   109    2
    26   149   148    1
    27   125   122    1
    28   121   122    1
    29   122   123    1
    30    90    89    2
    31    90    91    1
    32   109   110    1
    33   109   111    1
    34    89    88    1
    35    72    70   ar
    36    72    71   ar
    37    96    95    2
    38    70    68   ar
    39    71    69   ar
    40    97    98    1
    41    97    94    1
    42   123   124    2
    43    95    94    1
    44    99    98    2
    45    85    84    2
    46    88    87    1
    47    98   100   am
    48    87    86    1
    49    68    66   ar
    50    68    67   ar
    51    94    93    1
    52    69    66   ar
    53    84    83    1
    54    66    64   ar
    55    67    65   ar
    56     7     6   ar
    57     7     9   ar
    58     5     6    1
    59     5     2    1
    60    30    29   ar
    61    86    83    1
    62    82    83    1
    63     1     2    1
    64     6     8   ar
    65     9    10   ar
    66    64    65   ar
    67    64    63    1
    68     2     3    1
    69    29    31   ar
    70    29    28    1
    71     8    10   ar
    72     8    11   ar
    73    81    79   ar
    74    10    12   ar
    75    63    60    1
    76    22    21   ar
    77    24    25    1
    78     3    15   am
    79     3     4    2
    80   138   139   ar
    81   138   136   ar
    82   141   139   ar
    83   141   143   ar
    84    11    13   ar
    85    12    14   ar
    86    28    25    1
    87    43    42    1
    88    25    26    1
    89    23    21   ar
    90    79    80   ar
    91    79    78    1
    92   139   137   ar
    93    15    16    1
    94   136   135   ar
    95    21    20    1
    96   143   142   ar
    97    60    59    1
    98    60    61    1
    99    13    14   ar
   100    78    77    1
   101    59    53   am
   102    42    41   ar
   103    42    40   ar
   104   137   135   ar
   105   137   140   ar
   106   135   134    1
   107    61    62    2
   108    61    73   am
   109    41    39   ar
   110    26    27    2
   111   142   140   ar
   112    16    19    1
   113    16    17    1
   114    73    74    1
   115   130   131    1
   116    20    19    1
   117   131   134    1
   118   131   132    1
   119    40    38   ar
   120    53    52    1
   121    53    54    2
   122    77    74    1
   123    74    75    1
   124    17    18    2
   125    39    37   ar
   126    52    55    1
   127    52    51    1
   128   132   133    2
   129    47    46    2
   130    38    37   ar
   131    55    56    1
   132    37    36    1
   133    46    51   am
   134    46    45    1
   135    75    76    2
   136    56    57    1
   137    32    33    1
   138    36    33    1
   139    57    58    1
   140    33    34    1
   141    48    45    1
   142    48    49    1
   143    45    44    1
   144    49    50    1
   145    44    50    1
   146    34    35    2
