@<TRIPOS>MOLECULE
tmp/5abzB00.pdb
 134 127 0 0 0
SMALL
GASTEIGER

@<TRIPOS>ATOM
      1  N        -42.5620  -11.5800  -20.8240 N.3     1  PHE1       -0.1241
      2  CA       -41.1530  -12.0290  -20.9300 C.3     1  PHE1        0.1605
      3  C        -41.0590  -13.4660  -20.4590 C.2     1  PHE1        0.2264
      4  O        -41.4610  -13.7680  -19.3370 O.2     1  PHE1       -0.2867
      5  CB       -40.1830  -11.1680  -20.1050 C.3     1  PHE1        0.0534
      6  CG       -38.7560  -11.6860  -20.1340 C.ar    1  PHE1       -0.0203
      7  CD1      -38.3530  -12.7040  -19.2880 C.ar    1  PHE1       -0.0042
      8  CD2      -37.8290  -11.1810  -21.0300 C.ar    1  PHE1       -0.0042
      9  CE1      -37.0740  -13.1880  -19.3250 C.ar    1  PHE1       -0.0003
     10  CE2      -36.5530  -11.6670  -21.0640 C.ar    1  PHE1       -0.0003
     11  CZ       -36.1750  -12.6740  -20.2110 C.ar    1  PHE1       -0.0000
     12  N        -43.7330  -16.7320  -18.2140 N.3    13  ILE13      -0.1231
     13  CA       -43.9560  -15.4150  -17.5850 C.3    13  ILE13       0.1692
     14  C        -44.0050  -15.5750  -16.0910 C.2    13  ILE13       0.2592
     15  O        -44.6910  -16.4510  -15.5810 O.2    13  ILE13      -0.2718
     16  CB       -45.2690  -14.7800  -18.0910 C.3    13  ILE13       0.0266
     17  CG1      -45.1460  -14.4610  -19.6010 C.3    13  ILE13       0.0019
     18  CG2      -45.6380  -13.5180  -17.2950 C.3    13  ILE13       0.0020
     19  CD1      -46.4600  -14.1960  -20.2750 C.3    13  ILE13       0.0001
     20  N        -43.2260  -14.7810  -15.3820 N.am   14  GLY14      -0.1957
     21  CA       -43.1990  -14.8920  -13.9360 C.3    14  GLY14       0.1869
     22  C        -41.9920  -15.5980  -13.3760 C.2    14  GLY14       0.2309
     23  O        -41.7730  -15.5910  -12.1660 O.2    14  GLY14      -0.2863
     24  N        -39.2840  -10.8000  -25.4940 N.3    46  ASN46      -0.1225
     25  CA       -40.1340   -9.7620  -24.9240 C.3    46  ASN46       0.1785
     26  C        -41.5350   -9.9610  -25.4820 C.2    46  ASN46       0.2597
     27  O        -41.6950  -10.0530  -26.6970 O.2    46  ASN46      -0.2718
     28  CB       -39.5850   -8.3660  -25.2950 C.3    46  ASN46       0.1169
     29  CG       -40.3560   -7.2220  -24.6580 C.2    46  ASN46       0.2627
     30  OD1      -41.5820   -7.2510  -24.5530 O.2    46  ASN46      -0.2716
     31  ND2      -39.6300   -6.1950  -24.2410 N.am   46  ASN46      -0.0877
     32  N        -42.5480  -10.0450  -24.6190 N.am   47  ASP47      -0.1960
     33  CA       -43.8990  -10.3380  -25.1130 C.3    47  ASP47       0.1840
     34  C        -44.7000   -9.1110  -25.5010 C.2    47  ASP47       0.2622
     35  O        -45.8280   -9.2630  -25.9560 O.2    47  ASP47      -0.2715
     36  CB       -44.7240  -11.1110  -24.0900 C.3    47  ASP47       0.1450
     37  CG       -44.3090  -12.5300  -23.9620 C.2    47  ASP47       0.3671
     38  OD1      -44.2300  -13.2410  -25.0050 O.co2  47  ASP47      -0.2456
     39  OD2      -44.0760  -12.9330  -22.7910 O.co2  47  ASP47      -0.2456
     40  N        -44.1700   -7.9080  -25.2900 N.am   48  TYR48      -0.1974
     41  CA       -44.8160   -6.7250  -25.8600 C.3    48  TYR48       0.1639
     42  C        -43.8370   -5.5880  -26.0280 C.2    48  TYR48       0.2290
     43  O        -43.8960   -4.5850  -25.3160 O.2    48  TYR48      -0.2864
     44  CB       -46.0290   -6.2610  -25.0340 C.3    48  TYR48       0.0560
     45  CG       -46.9250   -5.3820  -25.8940 C.ar   48  TYR48      -0.0198
     46  CD1      -47.4460   -5.8620  -27.1010 C.ar   48  TYR48      -0.0009
     47  CD2      -47.2210   -4.0680  -25.5330 C.ar   48  TYR48      -0.0009
     48  CE1      -48.2430   -5.0670  -27.9110 C.ar   48  TYR48       0.0417
     49  CE2      -48.0250   -3.2670  -26.3390 C.ar   48  TYR48       0.0417
     50  CZ       -48.5280   -3.7670  -27.5230 C.ar   48  TYR48       0.1957
     51  OH       -49.3160   -2.9640  -28.3210 O.3    48  TYR48      -0.2866
     52  N        -42.8800   -1.9840  -24.0870 N.3    52  ILE52      -0.1245
     53  CA       -42.1640   -2.4520  -22.8940 C.3    52  ILE52       0.1561
     54  C        -40.7410   -2.7720  -23.2520 C.2    52  ILE52       0.2260
     55  O        -40.4610   -3.3720  -24.2940 O.2    52  ILE52      -0.2867
     56  CB       -42.8170   -3.7020  -22.2370 C.3    52  ILE52       0.0252
     57  CG1      -44.3170   -3.4730  -22.0600 C.3    52  ILE52       0.0019
     58  CG2      -42.1150   -4.0390  -20.8930 C.3    52  ILE52       0.0019
     59  CD1      -44.9950   -4.4330  -21.1180 C.3    52  ILE52       0.0001
     60  N        -37.6920   -4.8420  -21.5690 N.3    54  ASP54      -0.1239
     61  CA       -37.2990   -5.8020  -20.5290 C.3    54  ASP54       0.1674
     62  C        -35.8040   -5.7420  -20.2790 C.2    54  ASP54       0.2266
     63  O        -35.0120   -5.6910  -21.2180 O.2    54  ASP54      -0.2867
     64  CB       -37.6930   -7.2200  -20.9210 C.3    54  ASP54       0.1410
     65  CG       -39.1950   -7.4670  -20.8130 C.2    54  ASP54       0.3668
     66  OD1      -39.8410   -6.9570  -19.8600 O.co2  54  ASP54      -0.2456
     67  OD2      -39.7190   -8.1660  -21.7030 O.co2  54  ASP54      -0.2456
     68  N        -40.0280   -9.7410  -29.9740 N.3    98  ARG98      -0.1245
     69  CA       -40.8850  -10.8810  -29.7420 C.3    98  ARG98       0.1563
     70  C        -40.1850  -12.1510  -30.2170 C.2    98  ARG98       0.2260
     71  O        -40.6390  -13.2870  -29.9670 O.2    98  ARG98      -0.2867
     72  CB       -42.2110  -10.6430  -30.4730 C.3    98  ARG98       0.0307
     73  CG       -43.3780  -11.4820  -30.0240 C.3    98  ARG98       0.0489
     74  CD       -44.6960  -10.8610  -30.4810 C.3    98  ARG98       0.2205
     75  NE       -45.6500  -10.7450  -29.3800 N.pl3  98  ARG98      -0.0865
     76  CZ       -46.9360  -10.4270  -29.5210 C.cat  98  ARG98       0.5346
     77  NH1      -47.4540  -10.1920  -30.7270 N.pl3  98  ARG98       0.1354
     78  NH2      -47.7130  -10.3550  -28.4470 N.pl3  98  ARG98       0.1354
     79  N        -35.0110  -10.6890  -14.3620 N.3   133  GLN133     -0.1245
     80  CA       -35.7390   -9.8700  -15.3380 C.3   133  GLN133      0.1566
     81  C        -36.6200   -8.8030  -14.6790 C.2   133  GLN133      0.2260
     82  O        -37.4510   -9.1020  -13.8220 O.2   133  GLN133     -0.2867
     83  CB       -36.6000  -10.7570  -16.2270 C.3   133  GLN133      0.0367
     84  CG       -37.4530   -9.9810  -17.2070 C.3   133  GLN133      0.0905
     85  CD       -38.9300   -9.9740  -16.8560 C.2   133  GLN133      0.2608
     86  OE1      -39.4820  -10.9660  -16.3430 O.2   133  GLN133     -0.2717
     87  NE2      -39.5920   -8.8490  -17.1470 N.am  133  GLN133     -0.0878
     88  N        -38.4850   -4.6280  -15.7740 N.3   135  ASN135     -0.1240
     89  CA       -38.9200   -3.8490  -16.9250 C.3   135  ASN135      0.1653
     90  C        -39.0920   -2.3730  -16.5890 C.2   135  ASN135      0.2266
     91  O        -38.7920   -1.9400  -15.4840 O.2   135  ASN135     -0.2867
     92  CB       -40.2180   -4.4250  -17.4750 C.3   135  ASN135      0.1155
     93  CG       -41.3130   -4.4740  -16.4370 C.2   135  ASN135      0.2627
     94  OD1      -41.5570   -3.5000  -15.7350 O.2   135  ASN135     -0.2716
     95  ND2      -41.9850   -5.6120  -16.3360 N.am  135  ASN135     -0.0877
     96  N        -42.0640   -0.6620  -16.6970 N.3   137  TYR137     -0.1227
     97  CA       -43.4980   -0.6610  -16.9100 C.3   137  TYR137      0.1736
     98  C        -44.2150   -0.8900  -15.5970 C.2   137  TYR137      0.2595
     99  O        -45.2800   -0.3240  -15.3660 O.2   137  TYR137     -0.2718
    100  CB       -43.8530   -1.7410  -17.9410 C.3   137  TYR137      0.0548
    101  CG       -45.2970   -2.0810  -18.0480 C.ar  137  TYR137     -0.0200
    102  CD1      -46.1470   -1.3240  -18.8520 C.ar  137  TYR137     -0.0009
    103  CD2      -45.8230   -3.1860  -17.3880 C.ar  137  TYR137     -0.0009
    104  CE1      -47.4970   -1.6410  -18.9840 C.ar  137  TYR137      0.0417
    105  CE2      -47.1850   -3.5220  -17.5080 C.ar  137  TYR137      0.0417
    106  CZ       -48.0150   -2.7400  -18.3110 C.ar  137  TYR137      0.1957
    107  OH       -49.3570   -3.0450  -18.4490 O.3   137  TYR137     -0.2866
    108  N        -43.6070   -1.7120  -14.7390 N.am  138  ASN138     -0.1974
    109  CA       -44.1760   -2.0500  -13.4410 C.3   138  ASN138      0.1688
    110  C        -43.1390   -2.6200  -12.4720 C.2   138  ASN138      0.2292
    111  O        -41.9140   -2.4650  -12.6680 O.2   138  ASN138     -0.2864
    112  CB       -45.3440   -3.0430  -13.6180 C.3   138  ASN138      0.1181
    113  CG       -44.9070   -4.4060  -14.1590 C.2   138  ASN138      0.2629
    114  OD1      -43.7800   -4.8730  -13.9410 O.2   138  ASN138     -0.2716
    115  ND2      -45.8110   -5.0510  -14.8630 N.am  138  ASN138     -0.0877
    116  N        -42.5850   -5.8110  -11.6700 N.3   140  ASP140     -0.1239
    117  CA       -42.1080   -7.1730  -11.9700 C.3   140  ASP140      0.1674
    118  C        -40.6090   -7.2780  -11.7600 C.2   140  ASP140      0.2266
    119  O        -39.8300   -6.5130  -12.3330 O.2   140  ASP140     -0.2867
    120  CB       -42.4340   -7.5880  -13.4080 C.3   140  ASP140      0.1410
    121  CG       -43.9020   -7.9340  -13.6010 C.2   140  ASP140      0.3668
    122  OD1      -44.6470   -8.0310  -12.5970 O.co2 140  ASP140     -0.2456
    123  OD2      -44.3060   -8.1220  -14.7650 O.co2 140  ASP140     -0.2456
    124  N        -38.4020  -10.7640  -11.6370 N.3   142  PHE142     -0.1241
    125  CA       -38.5120  -12.2250  -11.7350 C.3   142  PHE142      0.1605
    126  C        -37.1770  -12.9400  -11.8950 C.2   142  PHE142      0.2264
    127  O        -36.3070  -12.5170  -12.6570 O.2   142  PHE142     -0.2867
    128  CB       -39.4000  -12.5940  -12.9210 C.3   142  PHE142      0.0534
    129  CG       -40.8250  -12.1480  -12.7690 C.ar  142  PHE142     -0.0203
    130  CD1      -41.5420  -12.4530  -11.6330 C.ar  142  PHE142     -0.0042
    131  CD2      -41.4370  -11.4050  -13.7590 C.ar  142  PHE142     -0.0042
    132  CE1      -42.8420  -12.0380  -11.4930 C.ar  142  PHE142     -0.0003
    133  CE2      -42.7500  -11.0050  -13.6240 C.ar  142  PHE142     -0.0003
    134  CZ       -43.4430  -11.3170  -12.4900 C.ar  142  PHE142     -0.0000
@<TRIPOS>BOND
     1    77    76    1
     2    74    73    1
     3    74    75    1
     4    72    73    1
     5    72    69    1
     6    70    71    2
     7    70    69    1
     8    68    69    1
     9    76    75    2
    10    76    78    1
    11    51    50    1
    12    48    50   ar
    13    48    46   ar
    14    50    49   ar
    15    46    45   ar
    16    27    26    2
    17    49    47   ar
    18    42    41    1
    19    42    43    2
    20    35    34    2
    21    45    47   ar
    22    45    44    1
    23    41    40    1
    24    41    44    1
    25    34    40   am
    26    34    33    1
    27    24    25    1
    28    26    25    1
    29    26    32   am
    30    28    25    1
    31    28    29    1
    32    33    32    1
    33    33    36    1
    34    38    37   ar
    35    29    30    2
    36    29    31   am
    37    55    54    2
    38    36    37    1
    39    52    53    1
    40    37    39   ar
    41    54    53    1
    42    53    56    1
    43    56    57    1
    44    56    58    1
    45    57    59    1
    46    67    65   ar
    47    60    61    1
    48    63    62    2
    49    10     8   ar
    50    10    11   ar
    51     8     6   ar
    52     2     1    1
    53     2     3    1
    54     2     5    1
    55    64    65    1
    56    64    61    1
    57    65    66   ar
    58    61    62    1
    59     3     4    2
    60    19    17    1
    61    11     9   ar
    62     6     5    1
    63     6     7   ar
    64    17    16    1
    65     9     7   ar
    66   104   102   ar
    67   104   106   ar
    68   102   101   ar
    69   107   106    1
    70   106   105   ar
    71    12    13    1
    72    16    13    1
    73    16    18    1
    74   101   100    1
    75   101   103   ar
    76   100    97    1
    77    13    14    1
    78   105   103   ar
    79    92    89    1
    80    92    93    1
    81    84    85    1
    82    84    83    1
    83    87    85   am
    84    89    90    1
    85    89    88    1
    86    97    96    1
    87    97    98    1
    88    85    86    2
    89    90    91    2
    90    93    95   am
    91    93    94    2
    92    83    80    1
    93    14    15    2
    94    14    20   am
    95    98    99    2
    96    98   108   am
    97    20    21    1
    98    80    81    1
    99    80    79    1
   100   115   113   am
   101   123   121   ar
   102   108   109    1
   103    81    82    2
   104   113   114    2
   105   113   112    1
   106    21    22    1
   107   131   133   ar
   108   131   129   ar
   109   133   134   ar
   110   112   109    1
   111   121   120    1
   112   121   122   ar
   113   109   110    1
   114   120   117    1
   115    22    23    2
   116   128   129    1
   117   128   125    1
   118   129   130   ar
   119   111   110    2
   120   127   126    2
   121   134   132   ar
   122   119   118    2
   123   117   118    1
   124   117   116    1
   125   126   125    1
   126   125   124    1
   127   130   132   ar
