@<TRIPOS>MOLECULE
tmp/5ac1A00.pdb
 134 128 0 0 0
SMALL
GASTEIGER

@<TRIPOS>ATOM
      1  N         59.6090   21.9470   95.3530 N.3   114  MET114     -0.1245
      2  CA        59.8590   23.3560   95.0800 C.3   114  MET114      0.1570
      3  C         60.8300   23.5580   93.9290 C.2   114  MET114      0.2261
      4  O         60.4520   24.1250   92.9110 O.2   114  MET114     -0.2867
      5  CB        60.3520   24.1010   96.3270 C.3   114  MET114      0.0387
      6  CG        60.3100   25.6310   96.1990 C.3   114  MET114      0.0595
      7  SD        61.5520   26.4620   95.1060 S.3   114  MET114     -0.1393
      8  CE        63.0100   26.5780   96.1370 C.3   114  MET114      0.0692
      9  N         70.8120   27.0520   94.5140 N.3   164  PHE164     -0.1241
     10  CA        69.7440   26.4700   93.7370 C.3   164  PHE164      0.1605
     11  C         70.3020   26.2200   92.3720 C.2   164  PHE164      0.2264
     12  O         70.0350   26.9860   91.4610 O.2   164  PHE164     -0.2867
     13  CB        68.5770   27.4550   93.7150 C.3   164  PHE164      0.0534
     14  CG        67.9610   27.6480   95.0790 C.ar  164  PHE164     -0.0203
     15  CD1       68.4850   28.5740   95.9460 C.ar  164  PHE164     -0.0042
     16  CD2       66.9530   26.7980   95.5150 C.ar  164  PHE164     -0.0042
     17  CE1       67.9630   28.7060   97.2060 C.ar  164  PHE164     -0.0003
     18  CE2       66.4070   26.9420   96.7570 C.ar  164  PHE164     -0.0003
     19  CZ        66.9330   27.8870   97.6200 C.ar  164  PHE164     -0.0000
     20  N         67.7560   25.2970   89.3680 N.3   167  LEU167     -0.1231
     21  CA        66.8080   26.3530   89.1470 C.3   167  LEU167      0.1693
     22  C         67.5370   27.6000   88.5060 C.2   167  LEU167      0.2591
     23  O         67.0650   28.1710   87.5370 O.2   167  LEU167     -0.2718
     24  CB        66.1050   26.7110   90.4650 C.3   167  LEU167      0.0284
     25  CG        65.0380   27.8020   90.3080 C.3   167  LEU167      0.0019
     26  CD1       63.9190   27.3360   89.3810 C.3   167  LEU167      0.0001
     27  CD2       64.5070   28.1480   91.6670 C.3   167  LEU167      0.0001
     28  N         68.6790   27.9470   89.0690 N.am  168  MET168     -0.1979
     29  CA        69.4920   29.0630   88.5800 C.3   168  MET168      0.1605
     30  C         70.0120   28.8200   87.1570 C.2   168  MET168      0.2287
     31  O         70.0570   29.7410   86.3600 O.2   168  MET168     -0.2864
     32  CB        70.6520   29.4110   89.5480 C.3   168  MET168      0.0413
     33  CG        70.2780   30.1960   90.8140 C.3   168  MET168      0.0598
     34  SD        69.4840   31.7890   90.6180 S.3   168  MET168     -0.1393
     35  CE        67.7740   31.2970   90.8530 C.3   168  MET168      0.0692
     36  N         66.7990   29.5980   85.1560 N.3   171  TRP171     -0.1241
     37  CA        66.5850   31.0420   85.1650 C.3   171  TRP171      0.1605
     38  C         67.4610   31.7820   84.1460 C.2   171  TRP171      0.2264
     39  O         67.0960   32.8280   83.6590 O.2   171  TRP171     -0.2867
     40  CB        66.8950   31.6070   86.5540 C.3   171  TRP171      0.0550
     41  CG        65.7500   31.6450   87.4830 C.ar  171  TRP171      0.0003
     42  CD1       64.8750   30.6470   87.7760 C.ar  171  TRP171      0.0946
     43  CD2       65.3780   32.7660   88.3030 C.ar  171  TRP171      0.0152
     44  NE1       63.9560   31.0870   88.7280 N.ar  171  TRP171     -0.2442
     45  CE2       64.2710   32.3800   89.0660 C.ar  171  TRP171      0.0810
     46  CE3       65.8760   34.0580   88.4330 C.ar  171  TRP171      0.0012
     47  CZ2       63.6460   33.2460   89.9420 C.ar  171  TRP171      0.0191
     48  CZ3       65.3150   34.8890   89.3240 C.ar  171  TRP171      0.0001
     49  CH2       64.1670   34.5020   90.0600 C.ar  171  TRP171      0.0015
     50  N         72.9360   39.5200   89.8180 N.3   262  GLU262     -0.1301
     51  CA        72.1010   39.3410   91.1280 C.3   262  GLU262      0.1252
     52  C         72.9860   38.8650   92.4370 C.3   262  GLU262      0.2009
     53  O         73.7080   37.8020   92.6550 O.3   262  GLU262     -0.2188
     54  CB        71.0120   38.2900   90.8670 C.3   262  GLU262      0.0335
     55  CG        69.8770   38.3190   91.9600 C.3   262  GLU262      0.1156
     56  CD        70.0130   37.2030   93.0470 C.2   262  GLU262      0.3649
     57  OE1       69.7000   35.9980   92.8040 O.co2 262  GLU262     -0.2457
     58  OE2       70.5100   37.5450   94.1310 O.co2 262  GLU262     -0.2457
     59  N         60.3890   31.0980  107.9960 N.3   286  GLN286     -0.1231
     60  CA        60.7510   30.4750  106.6940 C.3   286  GLN286      0.1698
     61  C         61.6670   31.3860  105.8530 C.2   286  GLN286      0.2593
     62  O         62.6020   30.9330  105.1800 O.2   286  GLN286     -0.2718
     63  CB        59.5320   30.1500  105.8500 C.3   286  GLN286      0.0381
     64  CG        58.6210   29.0550  106.3750 C.3   286  GLN286      0.0905
     65  CD        59.2880   27.6840  106.4550 C.2   286  GLN286      0.2608
     66  OE1       60.1820   27.3320  105.6650 O.2   286  GLN286     -0.2717
     67  NE2       58.8370   26.8930  107.4100 N.am  286  GLN286     -0.0878
     68  N         61.3720   32.6770  105.9320 N.am  287  GLY287     -0.1942
     69  CA        62.0640   33.7160  105.1660 C.3   287  GLY287      0.2014
     70  C         63.5490   33.7580  105.4040 C.2   287  GLY287      0.2638
     71  O         64.2850   34.1350  104.5210 O.2   287  GLY287     -0.2714
     72  N         63.9710   33.4050  106.6190 N.am  288  VAL288     -0.1977
     73  CA        65.3600   33.3880  106.9590 C.3   288  VAL288      0.1596
     74  C         66.0110   31.9890  107.0100 C.2   288  VAL288      0.2287
     75  O         67.2140   31.8920  106.6950 O.2   288  VAL288     -0.2864
     76  CB        65.6940   34.2530  108.2270 C.3   288  VAL288      0.0276
     77  CG1       65.2350   33.6010  109.5220 C.3   288  VAL288      0.0022
     78  CG2       67.1910   34.5590  108.2760 C.3   288  VAL288      0.0022
     79  N         64.9490   28.9570  105.3930 N.3   290  TYR290     -0.1241
     80  CA        64.8540   28.0660  104.2290 C.3   290  TYR290      0.1605
     81  C         66.2030   27.6740  103.5790 C.2   290  TYR290      0.2264
     82  O         67.0750   28.5080  103.3650 O.2   290  TYR290     -0.2867
     83  CB        63.9340   28.6620  103.1890 C.3   290  TYR290      0.0534
     84  CG        63.4850   27.6590  102.1520 C.ar  290  TYR290     -0.0201
     85  CD1       62.3380   26.8770  102.3540 C.ar  290  TYR290     -0.0009
     86  CD2       64.2110   27.4970  100.9470 C.ar  290  TYR290     -0.0009
     87  CE1       61.9320   25.9530  101.4030 C.ar  290  TYR290      0.0417
     88  CE2       63.7910   26.6000   99.9890 C.ar  290  TYR290      0.0417
     89  CZ        62.6640   25.8140  100.2260 C.ar  290  TYR290      0.1957
     90  OH        62.2760   24.8930   99.2850 O.3   290  TYR290     -0.2866
     91  N         69.5440   31.3900  101.1090 N.3   295  CYS295     -0.1221
     92  CA        68.7420   32.1400  100.1420 C.3   295  CYS295      0.1808
     93  C         69.1960   33.5740  100.0620 C.2   295  CYS295      0.2601
     94  O         69.3880   34.2410  101.0840 O.2   295  CYS295     -0.2717
     95  CB        67.2950   32.1720  100.5810 C.3   295  CYS295      0.0970
     96  SG        66.4280   30.6290  100.3060 S.3   295  CYS295     -0.0800
     97  N         69.3080   34.0630   98.8440 N.am  296  CYS296     -0.1956
     98  CA        69.7000   35.4390   98.5800 C.3   296  CYS296      0.1843
     99  C         68.7560   36.4120   99.2690 C.2   296  CYS296      0.2625
    100  O         69.1930   37.4500   99.7950 O.2   296  CYS296     -0.2714
    101  CB        69.7360   35.6730   97.0600 C.3   296  CYS296      0.0997
    102  SG        68.7480   34.4940   96.1450 S.3   296  CYS296     -0.0797
    103  N         67.4930   36.0350   99.3010 N.am  297  ILE297     -0.1977
    104  CA        66.4190   36.8720   99.8690 C.3   297  ILE297      0.1596
    105  C         66.1510   36.7000  101.3710 C.2   297  ILE297      0.2287
    106  O         65.1850   37.2710  101.8900 O.2   297  ILE297     -0.2864
    107  CB        65.0580   36.6350   99.1680 C.3   297  ILE297      0.0276
    108  CG1       64.6590   35.1580   99.2460 C.3   297  ILE297      0.0022
    109  CG2       65.1130   37.0750   97.7390 C.3   297  ILE297      0.0022
    110  CD1       63.2450   34.9090   98.8180 C.3   297  ILE297      0.0001
    111  N         59.1720   35.5410  100.6140 N.3   451  SER451     -0.1217
    112  CA        59.7290   34.5200   99.7350 C.3   451  SER451      0.1889
    113  C         58.8150   34.0320   98.6290 C.2   451  SER451      0.2288
    114  O         58.9270   32.8900   98.2170 O.2   451  SER451     -0.2866
    115  CB        60.1340   33.2960  100.5400 C.3   451  SER451      0.2089
    116  OG        60.7270   33.6960  101.7460 O.3   451  SER451     -0.2183
    117  N         58.1760   33.9270   95.0570 N.3   453  VAL453     -0.1245
    118  CA        58.8880   34.1720   93.8060 C.3   453  VAL453      0.1561
    119  C         58.1430   33.4240   92.6960 C.2   453  VAL453      0.2260
    120  O         57.8940   32.2440   92.8450 O.2   453  VAL453     -0.2867
    121  CB        60.3440   33.6740   93.9030 C.3   453  VAL453      0.0252
    122  CG1       61.0820   33.8860   92.6000 C.3   453  VAL453      0.0019
    123  CG2       61.0910   34.4170   94.9990 C.3   453  VAL453      0.0019
    124  N         62.5520   40.0730   88.8930 N.3   459  PHE459     -0.1241
    125  CA        63.2890   39.8240   90.1360 C.3   459  PHE459      0.1605
    126  C         64.6940   40.3340   90.0530 C.2   459  PHE459      0.2264
    127  O         65.4260   39.9930   89.1430 O.2   459  PHE459     -0.2867
    128  CB        63.3080   38.3410   90.4220 C.3   459  PHE459      0.0534
    129  CG        64.0190   37.9840   91.6950 C.ar  459  PHE459     -0.0203
    130  CD1       65.3990   37.7420   91.6940 C.ar  459  PHE459     -0.0042
    131  CD2       63.3150   37.9010   92.8920 C.ar  459  PHE459     -0.0042
    132  CE1       66.0690   37.4100   92.8820 C.ar  459  PHE459     -0.0003
    133  CE2       63.9720   37.5680   94.0860 C.ar  459  PHE459     -0.0003
    134  CZ        65.3470   37.3330   94.0810 C.ar  459  PHE459     -0.0000
@<TRIPOS>BOND
     1    39    38    2
     2    38    37    1
     3    36    37    1
     4    37    40    1
     5    31    30    2
     6    40    41    1
     7    30    29    1
     8    41    42   ar
     9    41    43   ar
    10    23    22    2
    11    42    44   ar
    12    43    46   ar
    13    43    45   ar
    14    46    48   ar
    15    22    28   am
    16    22    21    1
    17    29    28    1
    18    29    32    1
    19    44    45   ar
    20   124   125    1
    21    45    47   ar
    22   127   126    2
    23    21    20    1
    24    21    24    1
    25    48    49   ar
    26    26    25    1
    27    32    33    1
    28    50    51    1
    29    47    49   ar
    30   126   125    1
    31   125   128    1
    32    25    24    1
    33    25    27    1
    34   128   129    1
    35    34    33    1
    36    34    35    1
    37    54    51    1
    38    54    55    1
    39    51    52    1
    40    12    11    2
    41   130   129   ar
    42   130   132   ar
    43   129   131   ar
    44    55    56    1
    45    11    10    1
    46    52    53    1
    47   122   121    1
    48   119   120    2
    49   119   118    1
    50    57    56   ar
    51   132   134   ar
    52   131   133   ar
    53     4     3    2
    54    56    58   ar
    55    13    10    1
    56    13    14    1
    57    10     9    1
    58   118   121    1
    59   118   117    1
    60   121   123    1
    61     3     2    1
    62   134   133   ar
    63    14    16   ar
    64    14    15   ar
    65     2     1    1
    66     2     5    1
    67     7     8    1
    68     7     6    1
    69    16    18   ar
    70    15    17   ar
    71   102   101    1
    72     6     5    1
    73    18    19   ar
    74   101    98    1
    75    17    19   ar
    76   109   107    1
    77   114   113    2
    78    98    97    1
    79    98    99    1
    80   113   112    1
    81   110   108    1
    82    97    93   am
    83   107   108    1
    84   107   104    1
    85    99   103   am
    86    99   100    2
    87    90    89    1
    88   103   104    1
    89   112   115    1
    90   112   111    1
    91   104   105    1
    92    88    89   ar
    93    88    86   ar
    94    93    92    1
    95    93    94    2
    96    92    95    1
    97    92    91    1
    98    89    87   ar
    99    96    95    1
   100   115   116    1
   101    86    84   ar
   102   105   106    2
   103    87    85   ar
   104    84    85   ar
   105    84    83    1
   106    83    80    1
   107    82    81    2
   108    81    80    1
   109    80    79    1
   110    71    70    2
   111    69    70    1
   112    69    68    1
   113    62    61    2
   114    70    72   am
   115    66    65    2
   116    63    64    1
   117    63    60    1
   118    61    68   am
   119    61    60    1
   120    64    65    1
   121    65    67   am
   122    72    73    1
   123    60    59    1
   124    75    74    2
   125    73    74    1
   126    73    76    1
   127    76    78    1
   128    76    77    1
