@<TRIPOS>MOLECULE
tmp/5ac5B00.pdb
 137 138 0 0 0
SMALL
GASTEIGER

@<TRIPOS>ATOM
      1  N         19.2630  -23.6310  -49.4120 N.3    93  ARG93      -0.1245
      2  CA        20.1240  -23.1320  -48.3460 C.3    93  ARG93       0.1563
      3  C         19.6910  -21.7330  -47.9130 C.2    93  ARG93       0.2260
      4  O         20.4750  -21.0090  -47.3030 O.2    93  ARG93      -0.2867
      5  CB        21.5940  -23.1650  -48.7720 C.3    93  ARG93       0.0307
      6  CG        22.3250  -24.4790  -48.4570 C.3    93  ARG93       0.0489
      7  CD        21.5570  -25.7470  -48.8180 C.3    93  ARG93       0.2205
      8  NE        22.2340  -26.9220  -48.2540 N.pl3  93  ARG93      -0.0865
      9  CZ        23.1720  -27.6200  -48.8870 C.cat  93  ARG93       0.5346
     10  NH1       23.5120  -27.2890  -50.1290 N.pl3  93  ARG93       0.1354
     11  NH2       23.7710  -28.6460  -48.2800 N.pl3  93  ARG93       0.1354
     12  N         17.9140  -27.6250  -57.0400 N.3   120  TYR120     -0.1241
     13  CA        18.0740  -28.4880  -55.8670 C.3   120  TYR120      0.1605
     14  C         17.1470  -28.0430  -54.7390 C.2   120  TYR120      0.2264
     15  O         17.3460  -26.9890  -54.1310 O.2   120  TYR120     -0.2867
     16  CB        19.5370  -28.5040  -55.3890 C.3   120  TYR120      0.0534
     17  CG        19.7500  -29.2450  -54.0690 C.ar  120  TYR120     -0.0201
     18  CD1       19.7440  -30.6430  -54.0180 C.ar  120  TYR120     -0.0009
     19  CD2       19.9980  -28.5440  -52.8880 C.ar  120  TYR120     -0.0009
     20  CE1       19.9830  -31.3250  -52.8220 C.ar  120  TYR120      0.0417
     21  CE2       20.2310  -29.2050  -51.6930 C.ar  120  TYR120      0.0417
     22  CZ        20.2070  -30.6000  -51.6660 C.ar  120  TYR120      0.1957
     23  OH        20.4360  -31.2460  -50.4740 O.3   120  TYR120     -0.2866
     24  N         19.0530  -34.9180  -45.3900 N.3   168  HIS168     -0.1241
     25  CA        19.1060  -33.5150  -45.7900 C.3   168  HIS168      0.1621
     26  C         17.7260  -32.8820  -45.9040 C.2   168  HIS168      0.2264
     27  O         17.4470  -32.1670  -46.8650 O.2   168  HIS168     -0.2867
     28  CB        19.8450  -33.3560  -47.1180 C.3   168  HIS168      0.0745
     29  CG        21.2770  -33.7750  -47.0560 C.ar  168  HIS168      0.0817
     30  ND1       22.2720  -32.9480  -46.5830 N.ar  168  HIS168     -0.2268
     31  CD2       21.8800  -34.9440  -47.3850 C.ar  168  HIS168      0.1154
     32  CE1       23.4310  -33.5840  -46.6340 C.ar  168  HIS168      0.1986
     33  NE2       23.2190  -34.7950  -47.1200 N.ar  168  HIS168     -0.2212
     34  N         22.3100  -39.8260  -50.6520 N.3   221  ASP221     -0.1239
     35  CA        23.6820  -40.0560  -50.2210 C.3   221  ASP221      0.1674
     36  C         23.6350  -40.8910  -48.9320 C.2   221  ASP221      0.2266
     37  O         22.5610  -41.0750  -48.3510 O.2   221  ASP221     -0.2867
     38  CB        24.4120  -38.7300  -50.0080 C.3   221  ASP221      0.1410
     39  CG        24.2530  -38.2040  -48.6010 C.2   221  ASP221      0.3668
     40  OD1       23.0930  -38.0950  -48.1270 O.co2 221  ASP221     -0.2456
     41  OD2       25.2930  -37.9280  -47.9640 O.co2 221  ASP221     -0.2456
     42  N         23.3160  -39.6270  -55.9840 N.3   265  TRP265     -0.1241
     43  CA        24.7580  -39.5450  -55.6920 C.3   265  TRP265      0.1605
     44  C         25.2950  -40.9610  -55.4970 C.2   265  TRP265      0.2264
     45  O         24.5640  -41.8450  -55.0590 O.2   265  TRP265     -0.2867
     46  CB        25.0240  -38.6290  -54.4690 C.3   265  TRP265      0.0550
     47  CG        24.3220  -37.3180  -54.5850 C.ar  265  TRP265      0.0003
     48  CD1       23.2330  -36.8950  -53.8600 C.ar  265  TRP265      0.0946
     49  CD2       24.5780  -36.2840  -55.5560 C.ar  265  TRP265      0.0152
     50  NE1       22.8320  -35.6500  -54.2890 N.ar  265  TRP265     -0.2442
     51  CE2       23.6350  -35.2550  -55.3300 C.ar  265  TRP265      0.0810
     52  CE3       25.5220  -36.1280  -56.5890 C.ar  265  TRP265      0.0012
     53  CZ2       23.6060  -34.0800  -56.0990 C.ar  265  TRP265      0.0191
     54  CZ3       25.5070  -34.9470  -57.3380 C.ar  265  TRP265      0.0001
     55  CH2       24.5540  -33.9460  -57.0930 C.ar  265  TRP265      0.0015
     56  N         27.4090  -42.1510  -53.4810 N.3   267  ASP267     -0.1239
     57  CA        27.9100  -42.3770  -52.1150 C.3   267  ASP267      0.1674
     58  C         27.6010  -43.7550  -51.5110 C.2   267  ASP267      0.2266
     59  O         28.4950  -44.4180  -50.9860 O.2   267  ASP267     -0.2867
     60  CB        27.3520  -41.3130  -51.1700 C.3   267  ASP267      0.1410
     61  CG        27.7970  -39.9040  -51.5290 C.2   267  ASP267      0.3668
     62  OD1       27.9850  -39.5920  -52.7340 O.co2 267  ASP267     -0.2456
     63  OD2       27.9270  -39.0970  -50.5860 O.co2 267  ASP267     -0.2456
     64  N         30.3200  -37.0020  -57.6260 N.3   291  TRP291     -0.1241
     65  CA        30.5220  -35.5580  -57.4410 C.3   291  TRP291      0.1605
     66  C         31.9120  -35.2810  -56.8800 C.2   291  TRP291      0.2264
     67  O         32.3610  -35.9530  -55.9560 O.2   291  TRP291     -0.2867
     68  CB        29.4370  -34.9600  -56.5320 C.3   291  TRP291      0.0550
     69  CG        29.3310  -35.5990  -55.1760 C.ar  291  TRP291      0.0003
     70  CD1       28.6120  -36.7250  -54.8480 C.ar  291  TRP291      0.0946
     71  CD2       29.9150  -35.1300  -53.9520 C.ar  291  TRP291      0.0152
     72  NE1       28.7390  -36.9920  -53.5110 N.ar  291  TRP291     -0.2442
     73  CE2       29.5270  -36.0320  -52.9310 C.ar  291  TRP291      0.0810
     74  CE3       30.7320  -34.0440  -53.6190 C.ar  291  TRP291      0.0012
     75  CZ2       29.9380  -35.8860  -51.5960 C.ar  291  TRP291      0.0191
     76  CZ3       31.1480  -33.8980  -52.2870 C.ar  291  TRP291      0.0001
     77  CH2       30.7410  -34.8120  -51.2930 C.ar  291  TRP291      0.0015
     78  N         34.4310  -31.6130  -56.4540 N.3   293  TYR293     -0.1227
     79  CA        34.5960  -30.1850  -56.7370 C.3   293  TYR293      0.1736
     80  C         36.0130  -29.7220  -56.4100 C.2   293  TYR293      0.2595
     81  O         36.3150  -28.5260  -56.5420 O.2   293  TYR293     -0.2718
     82  CB        33.5660  -29.3470  -55.9400 C.3   293  TYR293      0.0548
     83  CG        32.2010  -30.0050  -55.8240 C.ar  293  TYR293     -0.0200
     84  CD1       31.5350  -30.4860  -56.9580 C.ar  293  TYR293     -0.0009
     85  CD2       31.6000  -30.1890  -54.5820 C.ar  293  TYR293     -0.0009
     86  CE1       30.2910  -31.1000  -56.8570 C.ar  293  TYR293      0.0417
     87  CE2       30.3500  -30.7920  -54.4620 C.ar  293  TYR293      0.0417
     88  CZ        29.7120  -31.2670  -55.5980 C.ar  293  TYR293      0.1957
     89  OH        28.4670  -31.8620  -55.4810 O.3   293  TYR293     -0.2866
     90  N         36.8800  -30.6760  -56.0550 N.am  294  TYR294     -0.1976
     91  CA        38.0910  -30.3800  -55.2790 C.3   294  TYR294      0.1639
     92  C         39.4300  -30.7030  -55.9500 C.2   294  TYR294      0.2290
     93  O         40.4280  -30.0550  -55.6460 O.2   294  TYR294     -0.2864
     94  CB        38.0470  -31.1130  -53.9350 C.3   294  TYR294      0.0560
     95  CG        36.7210  -31.0000  -53.2400 C.ar  294  TYR294     -0.0198
     96  CD1       36.4050  -29.8720  -52.4740 C.ar  294  TYR294     -0.0009
     97  CD2       35.7760  -32.0250  -53.3390 C.ar  294  TYR294     -0.0009
     98  CE1       35.1730  -29.7730  -51.8410 C.ar  294  TYR294      0.0417
     99  CE2       34.5370  -31.9300  -52.7270 C.ar  294  TYR294      0.0417
    100  CZ        34.2350  -30.8000  -51.9810 C.ar  294  TYR294      0.1957
    101  OH        33.0120  -30.7100  -51.3510 O.3   294  TYR294     -0.2866
    102  N         29.5250  -21.4420  -52.7290 N.3   324  TRP324     -0.1241
    103  CA        29.0220  -21.8560  -51.4220 C.3   324  TRP324      0.1605
    104  C         29.9010  -21.4870  -50.2210 C.2   324  TRP324      0.2264
    105  O         29.7840  -22.0950  -49.1540 O.2   324  TRP324     -0.2867
    106  CB        28.7480  -23.3660  -51.4110 C.3   324  TRP324      0.0550
    107  CG        29.9030  -24.2510  -51.8060 C.ar  324  TRP324      0.0003
    108  CD1       30.8800  -24.7500  -50.9880 C.ar  324  TRP324      0.0946
    109  CD2       30.1350  -24.8160  -53.1040 C.ar  324  TRP324      0.0152
    110  NE1       31.7300  -25.5710  -51.7080 N.ar  324  TRP324     -0.2442
    111  CE2       31.2890  -25.6290  -53.0080 C.ar  324  TRP324      0.0810
    112  CE3       29.4900  -24.6970  -54.3440 C.ar  324  TRP324      0.0012
    113  CZ2       31.8000  -26.3270  -54.0980 C.ar  324  TRP324      0.0191
    114  CZ3       30.0020  -25.3930  -55.4330 C.ar  324  TRP324      0.0001
    115  CH2       31.1460  -26.1990  -55.2990 C.ar  324  TRP324      0.0015
    116  N         26.0390  -25.0060  -55.3320 N.3   358  TRP358     -0.1241
    117  CA        25.5720  -25.1160  -53.9270 C.3   358  TRP358      0.1605
    118  C         25.6140  -23.7570  -53.2270 C.2   358  TRP358      0.2264
    119  O         26.4000  -22.8840  -53.6160 O.2   358  TRP358     -0.2867
    120  CB        26.4390  -26.0980  -53.1410 C.3   358  TRP358      0.0550
    121  CG        26.5230  -27.4520  -53.8010 C.ar  358  TRP358      0.0003
    122  CD1       27.5850  -27.9610  -54.4920 C.ar  358  TRP358      0.0946
    123  CD2       25.4850  -28.4280  -53.8740 C.ar  358  TRP358      0.0152
    124  NE1       27.2890  -29.2300  -54.9550 N.ar  358  TRP358     -0.2442
    125  CE2       26.0080  -29.5460  -54.5790 C.ar  358  TRP358      0.0810
    126  CE3       24.1830  -28.5000  -53.3570 C.ar  358  TRP358      0.0012
    127  CZ2       25.2580  -30.7010  -54.8250 C.ar  358  TRP358      0.0191
    128  CZ3       23.4340  -29.6670  -53.5930 C.ar  358  TRP358      0.0001
    129  CH2       23.9660  -30.7360  -54.3400 C.ar  358  TRP358      0.0015
    130  N         25.8290  -23.4280  -49.5350 N.3   360  ASP360     -0.1239
    131  CA        26.0430  -23.8190  -48.1380 C.3   360  ASP360      0.1674
    132  C         25.8510  -22.7260  -47.0850 C.2   360  ASP360      0.2266
    133  O         26.4800  -21.6430  -47.1660 O.2   360  ASP360     -0.2867
    134  CB        27.4540  -24.3600  -47.9320 C.3   360  ASP360      0.1410
    135  CG        27.7210  -25.6530  -48.6700 C.2   360  ASP360      0.3668
    136  OD1       26.9670  -26.0250  -49.5950 O.co2 360  ASP360     -0.2456
    137  OD2       28.7750  -26.2560  -48.3530 O.co2 360  ASP360     -0.2456
@<TRIPOS>BOND
     1    64    65    1
     2    65    66    1
     3    65    68    1
     4    54    55   ar
     5    54    52   ar
     6    55    53   ar
     7    12    13    1
     8    84    86   ar
     9    84    83   ar
    10    66    67    2
    11    86    88   ar
    12    79    78    1
    13    79    80    1
    14    79    82    1
    15    52    49   ar
    16    81    80    2
    17    68    69    1
    18    80    90   am
    19    53    51   ar
    20    90    91    1
    21    42    43    1
    22    92    93    2
    23    92    91    1
    24    82    83    1
    25    13    16    1
    26    13    14    1
    27    83    85   ar
    28    43    44    1
    29    43    46    1
    30    88    89    1
    31    88    87   ar
    32    49    51   ar
    33    49    47   ar
    34    44    45    2
    35   114   115   ar
    36   114   112   ar
    37    16    17    1
    38   116   117    1
    39    51    50   ar
    40   115   113   ar
    41    91    94    1
    42    69    70   ar
    43    69    71   ar
    44   124   125   ar
    45   124   122   ar
    46    70    72   ar
    47   127   125   ar
    48   127   129   ar
    49    14    15    2
    50    47    46    1
    51    47    48   ar
    52    85    87   ar
    53   125   123   ar
    54   122   121   ar
    55   112   109   ar
    56   129   128   ar
    57    50    48   ar
    58   113   111   ar
    59    17    18   ar
    60    17    19   ar
    61    18    20   ar
    62    71    74   ar
    63    71    73   ar
    64    94    95    1
    65   117   118    1
    66   117   120    1
    67   123   121   ar
    68   123   126   ar
    69   121   120    1
    70    74    76   ar
    71   119   118    2
    72   128   126   ar
    73    72    73   ar
    74    56    57    1
    75    97    95   ar
    76    97    99   ar
    77    95    96   ar
    78   109   111   ar
    79   109   107   ar
    80   111   110   ar
    81    73    75   ar
    82    19    21   ar
    83    20    22   ar
    84    62    61   ar
    85   102   103    1
    86    99   100   ar
    87    96    98   ar
    88    76    77   ar
    89    57    58    1
    90    57    60    1
    91   100    98   ar
    92   100   101    1
    93   107   106    1
    94   107   108   ar
    95   110   108   ar
    96    21    22   ar
    97    22    23    1
    98    75    77   ar
    99    61    60    1
   100    61    63   ar
   101    58    59    2
   102   103   106    1
   103   103   104    1
   104    34    35    1
   105    35    38    1
   106    35    36    1
   107   104   105    2
   108    10     9    1
   109    38    39    1
   110   136   135   ar
   111   130   131    1
   112     1     2    1
   113    36    37    2
   114     9    11    1
   115     9     8    2
   116     7     6    1
   117     7     8    1
   118     5     6    1
   119     5     2    1
   120   135   137   ar
   121   135   134    1
   122    39    40   ar
   123    39    41   ar
   124     2     3    1
   125   131   134    1
   126   131   132    1
   127     3     4    2
   128    31    33   ar
   129    31    29   ar
   130   133   132    2
   131    33    32   ar
   132    28    29    1
   133    28    25    1
   134    29    30   ar
   135    27    26    2
   136    32    30   ar
   137    26    25    1
   138    25    24    1
