@<TRIPOS>MOLECULE
tmp/5acbD00.pdb
 189 180 0 0 0
SMALL
GASTEIGER

@<TRIPOS>ATOM
      1  N         -6.6910   40.2000   72.8200 N.3    16  ILE16      -0.1231
      2  CA        -6.5760   40.8100   74.1450 C.3    16  ILE16       0.1692
      3  C         -5.3710   40.1970   74.8460 C.2    16  ILE16       0.2593
      4  O         -4.4730   40.9090   75.2920 O.2    16  ILE16      -0.2718
      5  CB        -7.8460   40.5910   74.9950 C.3    16  ILE16       0.0266
      6  CG1       -9.0240   41.3700   74.3980 C.3    16  ILE16       0.0019
      7  CG2       -7.6160   41.0310   76.4390 C.3    16  ILE16       0.0020
      8  CD1      -10.3810   40.9630   74.9380 C.3    16  ILE16       0.0001
      9  N         -5.3710   38.8740   74.9490 N.am   17  GLY17      -0.1942
     10  CA        -4.2730   38.1490   75.5820 C.3    17  GLY17       0.2014
     11  C         -4.4410   36.6460   75.4880 C.2    17  GLY17       0.2639
     12  O         -5.3560   36.1600   74.8240 O.2    17  GLY17      -0.2714
     13  N         -3.5440   35.9170   76.1460 N.am   18  GLU18      -0.1963
     14  CA        -3.6250   34.4600   76.2320 C.3    18  GLU18       0.1733
     15  C         -4.3250   34.0730   77.5320 C.2    18  GLU18       0.2616
     16  O         -4.1010   34.7010   78.5750 O.2    18  GLU18      -0.2715
     17  CB        -2.2330   33.8320   76.1750 C.3    18  GLU18       0.0429
     18  CG        -1.3560   34.0790   77.3160 C.3    18  GLU18       0.1163
     19  CD         0.0960   33.4150   77.1770 C.2    18  GLU18       0.3649
     20  OE1        0.2920   32.6640   76.2700 O.co2  18  GLU18      -0.2457
     21  OE2        0.7780   33.7970   78.0200 O.co2  18  GLU18      -0.2457
     22  N         -5.1820   33.0540   77.4520 N.am   19  GLY19      -0.1955
     23  CA        -5.8900   32.5040   78.6090 C.3    19  GLY19       0.1869
     24  C         -5.4220   31.0900   78.8870 C.2    19  GLY19       0.2309
     25  O         -4.3190   30.7040   78.4950 O.2    19  GLY19      -0.2863
     26  N         -7.6030   34.9470   73.5380 N.3    24  VAL24      -0.1245
     27  CA        -8.8110   35.6890   73.8970 C.3    24  VAL24       0.1561
     28  C         -8.8470   36.9300   73.0200 C.2    24  VAL24       0.2260
     29  O         -7.8290   37.6090   72.8800 O.2    24  VAL24      -0.2867
     30  CB        -8.8200   36.0990   75.3850 C.3    24  VAL24       0.0252
     31  CG1      -10.1340   36.7830   75.7520 C.3    24  VAL24       0.0019
     32  CG2       -8.5850   34.8840   76.2740 C.3    24  VAL24       0.0019
     33  N        -15.8160   39.7130   74.7150 N.3    37  ALA37      -0.1245
     34  CA       -14.5530   38.9810   74.7060 C.3    37  ALA37       0.1562
     35  C        -14.8460   37.5500   74.2800 C.2    37  ALA37       0.2260
     36  O        -15.8530   36.9700   74.6890 O.2    37  ALA37      -0.2867
     37  CB       -13.9050   39.0030   76.0760 C.3    37  ALA37       0.0290
     38  N        -13.2990   33.8900   74.3030 N.3    39  LYS39      -0.1245
     39  CA       -12.3380   32.8700   74.7100 C.3    39  LYS39       0.1561
     40  C        -12.3790   31.7490   73.6870 C.2    39  LYS39       0.2260
     41  O        -13.3370   30.9930   73.6470 O.2    39  LYS39      -0.2867
     42  CB       -12.6510   32.3230   76.1050 C.3    39  LYS39       0.0271
     43  CG       -12.5470   33.3420   77.2300 C.3    39  LYS39       0.0035
     44  CD       -12.4340   32.6540   78.5830 C.3    39  LYS39       0.0206
     45  CE       -12.4570   33.6590   79.7240 C.3    39  LYS39       0.1093
     46  NZ       -12.3930   33.0150   81.0660 N.3    39  LYS39      -0.1314
     47  N        -19.0110   37.9820   86.0010 N.3    70  VAL70      -0.1245
     48  CA       -18.8230   37.8250   84.5620 C.3    70  VAL70       0.1561
     49  C        -19.6750   36.6390   84.1200 C.2    70  VAL70       0.2260
     50  O        -19.4990   35.5240   84.6080 O.2    70  VAL70      -0.2867
     51  CB       -17.3280   37.6100   84.1930 C.3    70  VAL70       0.0252
     52  CG1      -17.1570   37.1220   82.7580 C.3    70  VAL70       0.0019
     53  CG2      -16.5410   38.8980   84.4080 C.3    70  VAL70       0.0019
     54  N        -18.3220   36.4510   76.2090 N.3    92  PHE92      -0.1227
     55  CA       -18.4540   37.1770   77.4700 C.3    92  PHE92       0.1736
     56  C        -18.6670   38.6510   77.1870 C.2    92  PHE92       0.2595
     57  O        -18.1680   39.1540   76.1860 O.2    92  PHE92      -0.2718
     58  CB       -17.1680   37.0470   78.2750 C.3    92  PHE92       0.0547
     59  CG       -16.9220   35.6710   78.8040 C.ar   92  PHE92      -0.0202
     60  CD1      -17.5130   35.2670   79.9880 C.ar   92  PHE92      -0.0042
     61  CD2      -16.0910   34.7810   78.1320 C.ar   92  PHE92      -0.0042
     62  CE1      -17.2900   34.0050   80.4970 C.ar   92  PHE92      -0.0003
     63  CE2      -15.8630   33.5110   78.6370 C.ar   92  PHE92      -0.0003
     64  CZ       -16.4640   33.1220   79.8240 C.ar   92  PHE92      -0.0000
     65  N        -19.3710   39.3470   78.0790 N.am   93  GLU93      -0.1965
     66  CA       -19.4660   40.8070   77.9950 C.3    93  GLU93       0.1733
     67  C        -18.0620   41.3920   78.1430 C.2    93  GLU93       0.2616
     68  O        -17.3160   40.9810   79.0350 O.2    93  GLU93      -0.2715
     69  CB       -20.3860   41.3800   79.0770 C.3    93  GLU93       0.0429
     70  CG       -20.7380   42.8530   78.8630 C.3    93  GLU93       0.1163
     71  CD       -21.5570   43.4540   79.9940 C.2    93  GLU93       0.3649
     72  OE1      -22.4500   42.7650   80.5340 O.co2  93  GLU93      -0.2457
     73  OE2      -21.3190   44.6320   80.3360 O.co2  93  GLU93      -0.2457
     74  N        -17.7050   42.3230   77.2560 N.am   94  TYR94      -0.1960
     75  CA       -16.3850   42.9660   77.2810 C.3    94  TYR94       0.1771
     76  C        -16.2750   43.9000   78.4750 C.2    94  TYR94       0.2619
     77  O        -17.2340   44.6100   78.7900 O.2    94  TYR94      -0.2715
     78  CB       -16.1390   43.7690   75.9980 C.3    94  TYR94       0.0574
     79  CG       -14.7950   44.4780   75.9460 C.ar   94  TYR94      -0.0198
     80  CD1      -13.6130   43.7610   75.7430 C.ar   94  TYR94      -0.0009
     81  CD2      -14.7040   45.8670   76.0980 C.ar   94  TYR94      -0.0009
     82  CE1      -12.3810   44.4050   75.6940 C.ar   94  TYR94       0.0417
     83  CE2      -13.4780   46.5190   76.0540 C.ar   94  TYR94       0.0417
     84  CZ       -12.3220   45.7860   75.8530 C.ar   94  TYR94       0.1957
     85  OH       -11.1110   46.4290   75.8080 O.3    94  TYR94      -0.2866
     86  N        -15.1060   43.8840   79.1240 N.am   95  MET95      -0.1963
     87  CA       -14.7800   44.7870   80.2290 C.3    95  MET95       0.1736
     88  C        -13.4980   45.5460   79.9100 C.2    95  MET95       0.2616
     89  O        -12.5250   44.9740   79.4220 O.2    95  MET95      -0.2715
     90  CB       -14.6180   44.0110   81.5390 C.3    95  MET95       0.0427
     91  CG       -15.8730   43.2710   81.9870 C.3    95  MET95       0.0599
     92  SD       -17.2850   44.3480   82.3050 S.3    95  MET95      -0.1393
     93  CE       -16.8970   44.9860   83.9290 C.3    95  MET95       0.0692
     94  N        -13.5060   46.8400   80.2140 N.am   96  ASP96      -0.1957
     95  CA       -12.4420   47.7520   79.7920 C.3    96  ASP96       0.1840
     96  C        -11.1270   47.5130   80.5420 C.2    96  ASP96       0.2622
     97  O        -10.0720   47.4610   79.9190 O.2    96  ASP96      -0.2715
     98  CB       -12.9020   49.2090   79.9480 C.3    96  ASP96       0.1450
     99  CG       -14.0900   49.5500   79.0460 C.2    96  ASP96       0.3671
    100  OD1      -13.9320   49.4720   77.8090 O.co2  96  ASP96      -0.2456
    101  OD2      -15.1780   49.8970   79.5670 O.co2  96  ASP96      -0.2456
    102  N        -11.1980   47.3540   81.8660 N.am   97  HIS97      -0.1959
    103  CA       -10.0040   47.2280   82.7230 C.3    97  HIS97       0.1787
    104  C        -10.0730   46.0260   83.6470 C.2    97  HIS97       0.2620
    105  O        -11.1580   45.5200   83.9290 O.2    97  HIS97      -0.2715
    106  CB        -9.8500   48.4690   83.6100 C.3    97  HIS97       0.0785
    107  CG       -10.1270   49.7560   82.9060 C.ar   97  HIS97       0.0821
    108  ND1       -9.1700   50.4140   82.1680 N.ar   97  HIS97      -0.2267
    109  CD2      -11.2490   50.5070   82.8280 C.ar   97  HIS97       0.1154
    110  CE1       -9.6900   51.5160   81.6630 C.ar   97  HIS97       0.1986
    111  NE2      -10.9520   51.5960   82.0470 N.ar   97  HIS97      -0.2212
    112  N         -8.9050   45.5960   84.1220 N.am   98  ASP98      -0.1971
    113  CA        -8.7970   44.8000   85.3500 C.3    98  ASP98       0.1709
    114  C         -8.1490   45.6680   86.4320 C.2    98  ASP98       0.2293
    115  O         -7.4870   46.6620   86.1320 O.2    98  ASP98      -0.2864
    116  CB        -8.0430   43.4720   85.1370 C.3    98  ASP98       0.1436
    117  CG        -6.5710   43.6580   84.7910 C.2    98  ASP98       0.3671
    118  OD1       -5.7830   44.0470   85.6770 O.co2  98  ASP98      -0.2456
    119  OD2       -6.1870   43.3860   83.6360 O.co2  98  ASP98      -0.2456
    120  N         -5.6900   45.0990   88.5980 N.3   100  MET100     -0.1245
    121  CA        -4.2240   45.0910   88.6280 C.3   100  MET100      0.1570
    122  C         -3.6590   46.1460   87.6790 C.2   100  MET100      0.2261
    123  O         -2.7690   46.9040   88.0630 O.2   100  MET100     -0.2867
    124  CB        -3.6590   43.7150   88.2650 C.3   100  MET100      0.0387
    125  CG        -2.1640   43.5750   88.5250 C.3   100  MET100      0.0595
    126  SD        -1.4410   42.1260   87.7340 S.3   100  MET100     -0.1393
    127  CE        -1.9400   40.8300   88.8710 C.3   100  MET100      0.0692
    128  N         -1.3300   49.4080   88.7140 N.3   104  GLU104     -0.1245
    129  CA         0.0490   49.3110   88.2210 C.3   104  GLU104      0.1567
    130  C          0.4690   50.5230   87.3740 C.2   104  GLU104      0.2260
    131  O          1.6500   50.8700   87.3270 O.2   104  GLU104     -0.2867
    132  CB         0.2230   48.0170   87.4250 C.3   104  GLU104      0.0388
    133  CG         1.6630   47.5930   87.2070 C.3   104  GLU104      0.1160
    134  CD         1.7690   46.1940   86.6220 C.2   104  GLU104      0.3649
    135  OE1        1.2050   45.2510   87.2150 O.co2 104  GLU104     -0.2457
    136  OE2        2.4220   46.0340   85.5720 O.co2 104  GLU104     -0.2457
    137  N        -12.6300   42.6160   87.1040 N.3   145  LEU145     -0.1245
    138  CA       -12.7460   43.4530   85.9200 C.3   145  LEU145      0.1561
    139  C        -13.6590   44.6430   86.1950 C.2   145  LEU145      0.2260
    140  O        -14.5340   44.5860   87.0660 O.2   145  LEU145     -0.2867
    141  CB       -13.2730   42.6350   84.7430 C.3   145  LEU145      0.0270
    142  CG       -12.5440   41.3160   84.4620 C.3   145  LEU145      0.0019
    143  CD1      -13.1630   40.6410   83.2500 C.3   145  LEU145      0.0001
    144  CD2      -11.0520   41.5210   84.2540 C.3   145  LEU145      0.0001
    145  N        -14.4240   37.7840   87.8350 N.3   155  ALA155     -0.1231
    146  CA       -14.1780   37.0020   86.6230 C.3   155  ALA155      0.1694
    147  C        -13.3740   35.7480   86.8910 C.2   155  ALA155      0.2592
    148  O        -12.8660   35.5530   87.9920 O.2   155  ALA155     -0.2718
    149  CB       -13.4360   37.8650   85.6160 C.3   155  ALA155      0.0304
    150  N        -13.2700   34.9130   85.8580 N.am  156  ASP156     -0.1974
    151  CA       -12.3220   33.7990   85.8060 C.3   156  ASP156      0.1709
    152  C        -12.6840   32.6920   86.8050 C.2   156  ASP156      0.2293
    153  O        -11.9710   32.4610   87.7870 O.2   156  ASP156     -0.2864
    154  CB       -10.8860   34.3340   86.0250 C.3   156  ASP156      0.1436
    155  CG        -9.8250   33.4400   85.4130 C.2   156  ASP156      0.3671
    156  OD1       -9.8300   32.2180   85.6970 O.co2 156  ASP156     -0.2456
    157  OD2       -8.9790   33.9690   84.6550 O.co2 156  ASP156     -0.2456
    158  N         -7.0630   50.1310   79.3010 N.3   312  GLN312     -0.1231
    159  CA        -6.0960   49.7540   80.3330 C.3   312  GLN312      0.1698
    160  C         -4.7160   49.7260   79.7140 C.2   312  GLN312      0.2592
    161  O         -4.5440   49.0770   78.6960 O.2   312  GLN312     -0.2718
    162  CB        -6.4160   48.3810   80.9140 C.3   312  GLN312      0.0381
    163  CG        -5.1380   47.6800   81.3750 C.3   312  GLN312      0.0905
    164  CD        -5.2830   46.2190   81.7180 C.2   312  GLN312      0.2608
    165  OE1       -6.1670   45.8270   82.4600 O.2   312  GLN312     -0.2717
    166  NE2       -4.5550   45.3610   81.0260 N.am  312  GLN312     -0.0878
    167  N         -3.7620   50.4470   80.3080 N.am  313  ASP313     -0.1960
    168  CA        -2.3610   50.4250   79.8990 C.3   313  ASP313      0.1840
    169  C         -1.4860   50.3120   81.1400 C.2   313  ASP313      0.2622
    170  O         -1.5790   51.1600   82.0190 O.2   313  ASP313     -0.2715
    171  CB        -2.0490   51.7200   79.1610 C.3   313  ASP313      0.1450
    172  CG        -0.7050   51.6950   78.4250 C.2   313  ASP313      0.3671
    173  OD1        0.1040   50.7550   78.6030 O.co2 313  ASP313     -0.2456
    174  OD2       -0.4560   52.6470   77.6560 O.co2 313  ASP313     -0.2456
    175  N         -0.6430   49.2790   81.2060 N.am  314  CYS314     -0.1968
    176  CA         0.2660   49.0900   82.3530 C.3   314  CYS314      0.1712
    177  C          1.3590   50.1440   82.5060 C.2   314  CYS314      0.2296
    178  O          1.6510   50.5470   83.6260 O.2   314  CYS314     -0.2864
    179  CB         1.0010   47.7530   82.2850 C.3   314  CYS314      0.0983
    180  SG         0.0800   46.2660   82.7560 S.3   314  CYS314     -0.0798
    181  N          5.0980   49.7810   81.5050 N.3   316  GLU316     -0.1245
    182  CA         6.3140   49.1600   82.0640 C.3   316  GLU316      0.1567
    183  C          7.5180   50.0750   81.8090 C.2   316  GLU316      0.2260
    184  O          7.3720   51.1420   81.2060 O.2   316  GLU316     -0.2867
    185  CB         6.5680   47.7680   81.4560 C.3   316  GLU316      0.0388
    186  CG         5.3800   46.8120   81.5000 C.3   316  GLU316      0.1160
    187  CD         4.6920   46.6500   80.1530 C.2   316  GLU316      0.3649
    188  OE1        5.1710   45.8320   79.3380 O.co2 316  GLU316     -0.2457
    189  OE2        3.6820   47.3470   79.9030 O.co2 316  GLU316     -0.2457
@<TRIPOS>BOND
     1     1     2    1
     2    29    28    2
     3    28    27    1
     4    26    27    1
     5    41    40    2
     6    40    39    1
     7    27    30    1
     8     2     3    1
     9     2     5    1
    10    35    36    2
    11    35    34    1
    12    38    39    1
    13     6     8    1
    14     6     5    1
    15    34    33    1
    16    34    37    1
    17    39    42    1
    18    12    11    2
    19     3     9   am
    20     3     4    2
    21     9    10    1
    22     5     7    1
    23    30    31    1
    24    30    32    1
    25    11    10    1
    26    11    13   am
    27    82    80   ar
    28    82    84   ar
    29    80    79   ar
    30    85    84    1
    31    84    83   ar
    32    79    78    1
    33    79    81   ar
    34    78    75    1
    35    83    81   ar
    36    42    43    1
    37    13    14    1
    38    17    14    1
    39    17    18    1
    40    57    56    2
    41    54    55    1
    42    14    15    1
    43    20    19   ar
    44    19    18    1
    45    19    21   ar
    46    56    55    1
    47    56    65   am
    48    43    44    1
    49    74    75    1
    50    74    67   am
    51    75    76    1
    52    22    15   am
    53    22    23    1
    54    55    58    1
    55    15    16    2
    56   174   172   ar
    57   100    99   ar
    58    66    65    1
    59    66    67    1
    60    66    69    1
    61    61    63   ar
    62    61    59   ar
    63    67    68    2
    64    58    59    1
    65   172   173   ar
    66   172   171    1
    67    76    77    2
    68    76    86   am
    69    25    24    2
    70    44    45    1
    71    23    24    1
    72    63    64   ar
    73   161   160    2
    74    59    60   ar
    75    70    69    1
    76    70    71    1
    77    99   101   ar
    78    99    98    1
    79    86    87    1
    80   171   168    1
    81   158   159    1
    82   188   187   ar
    83    89    88    2
    84   160   167   am
    85   160   159    1
    86    45    46    1
    87    95    98    1
    88    95    94    1
    89    95    96    1
    90    64    62   ar
    91   168   167    1
    92   168   169    1
    93   189   187   ar
    94    88    94   am
    95    88    87    1
    96    97    96    2
    97    60    62   ar
    98    71    73   ar
    99    71    72   ar
   100   187   186    1
   101    87    90    1
   102   159   162    1
   103    96   102   am
   104   162   163    1
   105   166   164   am
   106   169   175   am
   107   169   170    2
   108   184   183    2
   109   175   176    1
   110   163   164    1
   111   185   186    1
   112   185   182    1
   113   181   182    1
   114    90    91    1
   115   110   111   ar
   116   110   108   ar
   117   164   165    2
   118   183   182    1
   119   102   103    1
   120    91    92    1
   121   111   109   ar
   122   108   107   ar
   123   179   176    1
   124   179   180    1
   125    92    93    1
   126   176   177    1
   127   177   178    2
   128   103   106    1
   129   103   104    1
   130    52    51    1
   131   109   107   ar
   132   107   106    1
   133   143   142    1
   134   119   117   ar
   135   104   105    2
   136   104   112   am
   137    49    48    1
   138    49    50    2
   139   112   113    1
   140    51    53    1
   141    51    48    1
   142   144   142    1
   143   142   141    1
   144    48    47    1
   145   157   155   ar
   146   141   138    1
   147   117   116    1
   148   117   118   ar
   149   116   113    1
   150   113   114    1
   151   155   156   ar
   152   155   154    1
   153   136   134   ar
   154   149   146    1
   155   151   150    1
   156   151   154    1
   157   151   152    1
   158   150   147   am
   159   138   139    1
   160   138   137    1
   161   115   114    2
   162   139   140    2
   163   134   133    1
   164   134   135   ar
   165   146   147    1
   166   146   145    1
   167   152   153    2
   168   147   148    2
   169   133   132    1
   170   131   130    2
   171   130   129    1
   172   132   129    1
   173   122   123    2
   174   122   121    1
   175   126   125    1
   176   126   127    1
   177   129   128    1
   178   124   125    1
   179   124   121    1
   180   120   121    1
