@<TRIPOS>MOLECULE
tmp/5accA00.pdb
 208 198 0 0 0
SMALL
GASTEIGER

@<TRIPOS>ATOM
      1  N         17.8100   15.5290   60.1350 N.3    34  MET34      -0.1245
      2  CA        17.2870   15.6140   61.5250 C.3    34  MET34       0.1570
      3  C         18.3950   15.7810   62.5640 C.2    34  MET34       0.2261
      4  O         18.2930   16.6320   63.4580 O.2    34  MET34      -0.2867
      5  CB        16.4660   14.3690   61.8660 C.3    34  MET34       0.0387
      6  CG        15.5470   14.4950   63.0790 C.3    34  MET34       0.0595
      7  SD        14.3030   15.8250   63.0720 S.3    34  MET34      -0.1393
      8  CE        13.9650   15.9480   61.3320 C.3    34  MET34       0.0692
      9  N         19.7450   19.2870   62.2470 N.3    37  LEU37      -0.1231
     10  CA        18.8180   20.2780   62.7680 C.3    37  LEU37       0.1693
     11  C         18.7020   20.1970   64.2970 C.2    37  LEU37       0.2592
     12  O         18.5790   21.2310   64.9580 O.2    37  LEU37      -0.2718
     13  CB        17.4430   20.1340   62.0790 C.3    37  LEU37       0.0284
     14  CG        17.4210   20.4340   60.5680 C.3    37  LEU37       0.0019
     15  CD1       16.0120   20.3380   60.0050 C.3    37  LEU37       0.0001
     16  CD2       18.0160   21.8080   60.2820 C.3    37  LEU37       0.0001
     17  N         18.7820   18.9850   64.8340 N.am   38  THR38      -0.1953
     18  CA        18.7680   18.7430   66.2900 C.3    38  THR38       0.1897
     19  C         20.0150   19.2820   66.9770 C.2    38  THR38       0.2313
     20  O         19.8760   20.0110   67.9580 O.2    38  THR38      -0.2863
     21  CB        18.5930   17.2450   66.5850 C.3    38  THR38       0.1794
     22  OG1       17.3830   16.7850   65.9690 O.3    38  THR38      -0.2208
     23  CG2       18.5690   16.9280   68.0830 C.3    38  THR38       0.0378
     24  N         22.1920   21.5340   65.9590 N.3    40  LEU40      -0.1231
     25  CA        22.2350   22.9830   65.8490 C.3    40  LEU40       0.1693
     26  C         21.2930   23.6360   66.8610 C.2    40  LEU40       0.2592
     27  O         21.6820   24.5980   67.5360 O.2    40  LEU40      -0.2718
     28  CB        21.8900   23.4290   64.4390 C.3    40  LEU40       0.0284
     29  CG        22.0300   24.9230   64.1310 C.3    40  LEU40       0.0019
     30  CD1       23.4530   25.4330   64.3130 C.3    40  LEU40       0.0001
     31  CD2       21.5650   25.1540   62.6980 C.3    40  LEU40       0.0001
     32  N         20.0750   23.0970   66.9470 N.am   41  ALA41      -0.1966
     33  CA        19.0640   23.5550   67.9070 C.3    41  ALA41       0.1728
     34  C         19.5850   23.4750   69.3530 C.2    41  ALA41       0.2616
     35  O         19.5120   24.4440   70.0960 O.2    41  ALA41      -0.2715
     36  CB        17.7820   22.7300   67.7580 C.3    41  ALA41       0.0334
     37  N         20.1580   22.3310   69.7090 N.am   42  ASP42      -0.1971
     38  CA        20.8190   22.1470   71.0210 C.3    42  ASP42       0.1709
     39  C         21.9050   23.1670   71.3470 C.2    42  ASP42       0.2293
     40  O         21.9440   23.6690   72.4500 O.2    42  ASP42      -0.2864
     41  CB        21.4190   20.7550   71.1130 C.3    42  ASP42       0.1436
     42  CG        20.3740   19.6790   71.1410 C.2    42  ASP42       0.3671
     43  OD1       19.1920   19.9870   71.3540 O.co2  42  ASP42      -0.2456
     44  OD2       20.7240   18.5200   70.9310 O.co2  42  ASP42      -0.2456
     45  N         22.3250   26.2010   69.8970 N.3    44  GLU44      -0.1231
     46  CA        21.7120   27.5280   69.9610 C.3    44  GLU44       0.1699
     47  C         21.0160   27.7830   71.3040 C.2    44  GLU44       0.2592
     48  O         20.9240   28.9320   71.7460 O.2    44  GLU44      -0.2718
     49  CB        20.7270   27.7470   68.8230 C.3    44  GLU44       0.0402
     50  CG        21.3890   28.0210   67.4810 C.3    44  GLU44       0.1161
     51  CD        20.5650   28.9150   66.5770 C.2    44  GLU44       0.3649
     52  OE1       19.6160   29.5400   67.0680 O.co2  44  GLU44      -0.2457
     53  OE2       20.8340   28.9720   65.3650 O.co2  44  GLU44      -0.2457
     54  N         20.5280   26.7140   71.9260 N.am   45  LEU45      -0.1980
     55  CA        19.7780   26.8250   73.1730 C.3    45  LEU45       0.1596
     56  C         20.6840   27.3200   74.2750 C.2    45  LEU45       0.2287
     57  O         20.2940   28.1850   75.0560 O.2    45  LEU45      -0.2864
     58  CB        19.1580   25.4820   73.5670 C.3    45  LEU45       0.0297
     59  CG        18.2120   25.4670   74.7720 C.3    45  LEU45       0.0022
     60  CD1       16.9550   26.2820   74.4790 C.3    45  LEU45       0.0001
     61  CD2       17.8510   24.0330   75.1000 C.3    45  LEU45       0.0001
     62  N         11.2730   28.5200   73.7690 N.3    74  TRP74      -0.1227
     63  CA        12.6080   28.3160   73.1370 C.3    74  TRP74       0.1737
     64  C         12.4830   28.0700   71.6250 C.2    74  TRP74       0.2595
     65  O         13.2390   28.6520   70.8550 O.2    74  TRP74      -0.2718
     66  CB        13.4180   27.2150   73.8200 C.3    74  TRP74       0.0564
     67  CG        12.8400   25.8920   73.6830 C.ar   74  TRP74       0.0003
     68  CD1       11.9490   25.3140   74.5040 C.ar   74  TRP74       0.0946
     69  CD2       13.0980   24.9670   72.6380 C.ar   74  TRP74       0.0152
     70  NE1       11.6100   24.0740   74.0380 N.ar   74  TRP74      -0.2442
     71  CE2       12.3040   23.8410   72.8790 C.ar   74  TRP74       0.0810
     72  CE3       13.8990   24.9980   71.4860 C.ar   74  TRP74       0.0012
     73  CZ2       12.3020   22.7350   72.0410 C.ar   74  TRP74       0.0191
     74  CZ3       13.9070   23.8920   70.6620 C.ar   74  TRP74       0.0001
     75  CH2       13.1170   22.7690   70.9480 C.ar   74  TRP74       0.0015
     76  N         11.4880   27.2860   71.2180 N.am   75  LEU75      -0.1980
     77  CA        11.3640   26.8940   69.7810 C.3    75  LEU75       0.1596
     78  C         10.8850   28.0890   68.9560 C.2    75  LEU75       0.2287
     79  O         11.4040   28.3300   67.8800 O.2    75  LEU75      -0.2864
     80  CB        10.4710   25.6600   69.5760 C.3    75  LEU75       0.0297
     81  CG        10.3500   25.1990   68.0810 C.3    75  LEU75       0.0022
     82  CD1       11.7300   24.9440   67.4560 C.3    75  LEU75       0.0001
     83  CD2        9.4860   23.9430   67.9810 C.3    75  LEU75       0.0001
     84  N         14.1480   30.1660   68.4790 N.3    78  LEU78      -0.1231
     85  CA        14.9330   29.5950   67.3950 C.3    78  LEU78       0.1693
     86  C         14.3330   29.9140   66.0330 C.2    78  LEU78       0.2591
     87  O         15.0450   30.2880   65.0990 O.2    78  LEU78      -0.2718
     88  CB        15.0090   28.0740   67.5220 C.3    78  LEU78       0.0284
     89  CG        15.7850   27.5090   68.6940 C.3    78  LEU78       0.0019
     90  CD1       15.8390   26.0090   68.5100 C.3    78  LEU78       0.0001
     91  CD2       17.1690   28.1190   68.7340 C.3    78  LEU78       0.0001
     92  N         13.0170   29.7480   65.9250 N.am   79  MET79      -0.1979
     93  CA        12.3230   29.9660   64.6450 C.3    79  MET79       0.1605
     94  C         12.3420   31.4230   64.1820 C.2    79  MET79       0.2287
     95  O         12.6060   31.6880   63.0080 O.2    79  MET79      -0.2864
     96  CB        10.9090   29.4160   64.7100 C.3    79  MET79       0.0413
     97  CG        10.8170   27.9120   64.6710 C.3    79  MET79       0.0598
     98  SD         9.0970   27.3840   64.7980 S.3    79  MET79      -0.1393
     99  CE         9.2570   25.6810   64.2880 C.3    79  MET79       0.0692
    100  N         15.7870   32.0950   62.8900 N.3    82  LEU82      -0.1245
    101  CA        15.9200   31.4610   61.5880 C.3    82  LEU82       0.1561
    102  C         15.2890   32.3020   60.5030 C.2    82  LEU82       0.2260
    103  O         15.9050   32.5640   59.4700 O.2    82  LEU82      -0.2867
    104  CB        15.2900   30.0490   61.6070 C.3    82  LEU82       0.0270
    105  CG        15.2900   29.2960   60.2810 C.3    82  LEU82       0.0019
    106  CD1       16.7220   28.9440   59.8860 C.3    82  LEU82       0.0001
    107  CD2       14.4490   28.0330   60.4080 C.3    82  LEU82       0.0001
    108  N         17.2700   35.4690   59.8130 N.3    85  ARG85      -0.1245
    109  CA        18.5040   35.1470   59.0420 C.3    85  ARG85       0.1563
    110  C         18.2120   34.8420   57.5910 C.2    85  ARG85       0.2260
    111  O         19.0210   35.1220   56.7160 O.2    85  ARG85      -0.2867
    112  CB        19.1810   33.8600   59.5430 C.3    85  ARG85       0.0307
    113  CG        19.7830   33.9070   60.8890 C.3    85  ARG85       0.0489
    114  CD        20.8140   32.8120   61.0690 C.3    85  ARG85       0.2205
    115  NE        20.3170   31.4750   61.3890 N.pl3  85  ARG85      -0.0865
    116  CZ        19.8610   31.1010   62.5870 C.cat  85  ARG85       0.5346
    117  NH1       19.7490   31.9640   63.5910 N.pl3  85  ARG85       0.1354
    118  NH2       19.5580   29.8370   62.7940 N.pl3  85  ARG85       0.1354
    119  N         19.7820   28.0120   58.1810 N.3    95  PHE95      -0.1241
    120  CA        19.9350   27.4260   59.5090 C.3    95  PHE95       0.1605
    121  C         21.3200   27.8350   60.0390 C.2    95  PHE95       0.2264
    122  O         21.4650   28.1860   61.2000 O.2    95  PHE95      -0.2867
    123  CB        19.7650   25.8960   59.4730 C.3    95  PHE95       0.0534
    124  CG        18.3320   25.4490   59.3080 C.ar   95  PHE95      -0.0203
    125  CD1       17.4840   25.3370   60.4190 C.ar   95  PHE95      -0.0042
    126  CD2       17.8280   25.1210   58.0590 C.ar   95  PHE95      -0.0042
    127  CE1       16.1410   24.9380   60.2600 C.ar   95  PHE95      -0.0003
    128  CE2       16.5050   24.7130   57.9030 C.ar   95  PHE95      -0.0003
    129  CZ        15.6600   24.6240   59.0020 C.ar   95  PHE95      -0.0000
    130  N          8.2850   17.3090   57.6350 N.3   112  MET112     -0.1245
    131  CA         9.1750   18.4590   57.7310 C.3   112  MET112      0.1570
    132  C          8.9290   19.5370   56.6680 C.2   112  MET112      0.2261
    133  O          9.1290   20.7040   56.9330 O.2   112  MET112     -0.2867
    134  CB        10.6440   18.0110   57.7380 C.3   112  MET112      0.0387
    135  CG        11.6500   19.0880   58.1600 C.3   112  MET112      0.0595
    136  SD        11.4030   19.7540   59.8260 S.3   112  MET112     -0.1393
    137  CE        12.0350   18.4420   60.8190 C.3   112  MET112      0.0692
    138  N          6.5790   22.2500   57.8010 N.3   115  ILE115     -0.1231
    139  CA         7.2140   23.1600   58.7280 C.3   115  ILE115      0.1692
    140  C          8.1490   24.1320   57.9680 C.2   115  ILE115      0.2592
    141  O          8.0760   25.3450   58.1720 O.2   115  ILE115     -0.2718
    142  CB         7.9270   22.3970   59.8600 C.3   115  ILE115      0.0266
    143  CG1        6.8710   21.6960   60.7420 C.3   115  ILE115      0.0019
    144  CG2        8.7960   23.3210   60.6950 C.3   115  ILE115      0.0020
    145  CD1        7.4430   20.7670   61.7760 C.3   115  ILE115      0.0001
    146  N          8.9910   23.5990   57.0860 N.am  116  PHE116     -0.1976
    147  CA         9.8250   24.4530   56.1850 C.3   116  PHE116      0.1639
    148  C          8.9700   25.5020   55.4270 C.2   116  PHE116      0.2290
    149  O          9.3150   26.6840   55.3610 O.2   116  PHE116     -0.2864
    150  CB        10.6060   23.5900   55.2030 C.3   116  PHE116      0.0560
    151  CG        11.9120   23.0220   55.7500 C.ar  116  PHE116     -0.0200
    152  CD1       12.1100   22.7820   57.1210 C.ar  116  PHE116     -0.0042
    153  CD2       12.9470   22.7150   54.8750 C.ar  116  PHE116     -0.0042
    154  CE1       13.3060   22.2490   57.5880 C.ar  116  PHE116     -0.0003
    155  CE2       14.1510   22.2010   55.3320 C.ar  116  PHE116     -0.0003
    156  CZ        14.3360   21.9560   56.6830 C.ar  116  PHE116     -0.0000
    157  N          7.8500   28.3440   57.7730 N.3   119  LEU119     -0.1245
    158  CA         9.0160   29.2040   58.0630 C.3   119  LEU119      0.1561
    159  C          9.3850   30.0870   56.8670 C.2   119  LEU119      0.2260
    160  O          9.6160   31.2910   57.0190 O.2   119  LEU119     -0.2867
    161  CB        10.2290   28.3530   58.4880 C.3   119  LEU119      0.0270
    162  CG        10.0580   27.6410   59.8360 C.3   119  LEU119      0.0019
    163  CD1       10.9930   26.4510   59.9830 C.3   119  LEU119      0.0001
    164  CD2       10.2390   28.6200   60.9760 C.3   119  LEU119      0.0001
    165  N          5.8190   22.3110   65.4230 N.3   209  GLY209     -0.1225
    166  CA         7.1410   21.7020   65.6230 C.3   209  GLY209      0.1811
    167  C          7.1920   20.8310   66.8590 C.2   209  GLY209      0.2280
    168  O          7.6510   19.6750   66.7940 O.2   209  GLY209     -0.2866
    169  N          5.6970   17.4960   66.3510 N.3   212  HIS212     -0.1226
    170  CA         6.6540   16.6050   65.6670 C.3   212  HIS212      0.1752
    171  C          7.6110   15.9600   66.6620 C.2   212  HIS212      0.2595
    172  O          7.8010   14.7550   66.6440 O.2   212  HIS212     -0.2718
    173  CB         7.4470   17.3950   64.6320 C.3   212  HIS212      0.0759
    174  CG         8.1810   16.5490   63.6440 C.ar  212  HIS212      0.0818
    175  ND1        7.7140   16.3340   62.3670 N.ar  212  HIS212     -0.2268
    176  CD2        9.3610   15.8940   63.7300 C.ar  212  HIS212      0.1154
    177  CE1        8.5690   15.5710   61.7130 C.ar  212  HIS212      0.1986
    178  NE2        9.5700   15.2800   62.5200 N.ar  212  HIS212     -0.2212
    179  N          8.1970   16.7670   67.5380 N.am  213  LEU213     -0.1980
    180  CA         9.1920   16.2850   68.4950 C.3   213  LEU213      0.1596
    181  C          8.6230   15.3560   69.5670 C.2   213  LEU213      0.2287
    182  O          9.2760   14.3730   69.9320 O.2   213  LEU213     -0.2864
    183  CB         9.9070   17.4650   69.1510 C.3   213  LEU213      0.0297
    184  CG        10.7510   18.3420   68.2250 C.3   213  LEU213      0.0022
    185  CD1       11.4270   19.4200   69.0600 C.3   213  LEU213      0.0001
    186  CD2       11.7890   17.5340   67.4550 C.3   213  LEU213      0.0001
    187  N          8.1690   11.8660   68.3400 N.3   216  MET216     -0.1245
    188  CA         9.3860   11.0440   68.4270 C.3   216  MET216      0.1570
    189  C          9.4150   10.2490   69.7200 C.2   216  MET216      0.2261
    190  O         10.1500    9.2700   69.8130 O.2   216  MET216     -0.2867
    191  CB        10.6580   11.8990   68.3490 C.3   216  MET216      0.0387
    192  CG        10.9040   12.5420   66.9950 C.3   216  MET216      0.0595
    193  SD        12.3810   13.5950   66.9700 S.3   216  MET216     -0.1393
    194  CE        13.6990   12.3870   67.1650 C.3   216  MET216      0.0692
    195  N         14.0510   17.1730   73.2890 N.3   217  VAL217     -0.1231
    196  CA        13.3860   18.3790   73.7970 C.3   217  VAL217      0.1678
    197  C         14.0020   18.7170   75.1550 C.2   217  VAL217      0.2434
    198  O         14.0980   17.8270   76.0000 O.2   217  VAL217     -0.2733
    199  CB        11.8600   18.1420   73.9690 C.3   217  VAL217      0.0265
    200  CG1       11.1500   19.3550   74.5920 C.3   217  VAL217      0.0020
    201  CG2       11.2310   17.7870   72.6260 C.3   217  VAL217      0.0020
    202  N         14.4030   19.9910   75.3830 N.am  218  PRO218     -0.2729
    203  CA        14.9950   20.3020   76.6860 C.3   218  PRO218      0.1401
    204  C         14.0040   20.1090   77.8310 C.2   218  PRO218      0.2269
    205  O         12.9070   20.6700   77.8030 O.2   218  PRO218     -0.2865
    206  CB        15.3980   21.7820   76.5530 C.3   218  PRO218      0.0296
    207  CG        14.5360   22.3230   75.4640 C.3   218  PRO218      0.0237
    208  CD        14.3790   21.1770   74.5070 C.3   218  PRO218      0.0939
@<TRIPOS>BOND
     1   153   155   ar
     2   153   151   ar
     3   150   151    1
     4   150   147    1
     5   155   156   ar
     6   149   148    2
     7   148   147    1
     8   151   152   ar
     9   147   146    1
    10   132   133    2
    11   132   131    1
    12   156   154   ar
    13   111   110    2
    14   159   160    2
    15   159   158    1
    16   146   140   am
    17   152   154   ar
    18   110   109    1
    19   130   131    1
    20   131   134    1
    21   134   135    1
    22   157   158    1
    23   138   139    1
    24   128   126   ar
    25   128   129   ar
    26   140   141    2
    27   140   139    1
    28   126   124   ar
    29   158   161    1
    30   135   136    1
    31   119   120    1
    32   161   162    1
    33   139   142    1
    34   129   127   ar
    35   109   112    1
    36   109   108    1
    37   124   123    1
    38   124   125   ar
    39   103   102    2
    40   123   120    1
    41   120   121    1
    42   112   113    1
    43   136   137    1
    44   162   163    1
    45   162   164    1
    46   142   144    1
    47   142   143    1
    48   106   105    1
    49    15    14    1
    50   121   122    2
    51     1     2    1
    52   127   125   ar
    53   105   107    1
    54   105   104    1
    55    16    14    1
    56   102   101    1
    57    14    13    1
    58   143   145    1
    59   113   114    1
    60   114   115    1
    61     8     7    1
    62   115   116    2
    63     2     5    1
    64     2     3    1
    65   101   104    1
    66   101   100    1
    67   177   175   ar
    68   177   178   ar
    69     5     6    1
    70    13    10    1
    71     9    10    1
    72   175   174   ar
    73   178   176   ar
    74     3     4    2
    75   116   118    1
    76   116   117    1
    77    31    29    1
    78    10    11    1
    79    95    94    2
    80     7     6    1
    81   174   176   ar
    82   174   173    1
    83    29    30    1
    84    29    28    1
    85    94    93    1
    86    99    98    1
    87    11    17   am
    88    11    12    2
    89    28    25    1
    90   173   170    1
    91    93    96    1
    92    93    92    1
    93    97    96    1
    94    97    98    1
    95    17    18    1
    96    87    86    2
    97    53    51   ar
    98   165   166    1
    99   166   167    1
   100   170   169    1
   101   170   171    1
   102    25    24    1
   103    25    26    1
   104    92    86   am
   105    22    21    1
   106    86    85    1
   107    18    21    1
   108    18    19    1
   109    51    52   ar
   110    51    50    1
   111    21    23    1
   112   172   171    2
   113   171   179   am
   114   168   167    2
   115    26    32   am
   116    26    27    2
   117    32    33    1
   118   193   192    1
   119   193   194    1
   120    19    20    2
   121   192   191    1
   122    85    88    1
   123    85    84    1
   124   186   184    1
   125    82    81    1
   126    50    49    1
   127    88    89    1
   128   179   180    1
   129    36    33    1
   130    79    78    2
   131    33    34    1
   132    83    81    1
   133    81    80    1
   134   184   185    1
   135   184   183    1
   136   187   188    1
   137   191   188    1
   138   188   189    1
   139   180   183    1
   140   180   181    1
   141    90    89    1
   142    89    91    1
   143    49    46    1
   144    78    77    1
   145    34    37   am
   146    34    35    2
   147   181   182    2
   148    80    77    1
   149    37    38    1
   150   189   190    2
   151    77    76    1
   152    45    46    1
   153    46    47    1
   154    74    75   ar
   155    74    72   ar
   156    65    64    2
   157    44    42   ar
   158    75    73   ar
   159    38    41    1
   160    38    39    1
   161    41    42    1
   162    42    43   ar
   163    76    64   am
   164    47    48    2
   165    47    54   am
   166    39    40    2
   167    72    69   ar
   168    64    63    1
   169    54    55    1
   170    73    71   ar
   171   201   199    1
   172    69    71   ar
   173    69    67   ar
   174    71    70   ar
   175    63    62    1
   176    63    66    1
   177    55    58    1
   178    55    56    1
   179   195   196    1
   180    58    59    1
   181    67    66    1
   182    67    68   ar
   183   196   199    1
   184   196   197    1
   185   199   200    1
   186    70    68   ar
   187    56    57    2
   188    60    59    1
   189   208   202    1
   190   208   207    1
   191    59    61    1
   192   197   202   am
   193   197   198    2
   194   202   203    1
   195   207   206    1
   196   206   203    1
   197   203   204    1
   198   205   204    2
