@<TRIPOS>MOLECULE
tmp/5acfA01.pdb
 82 80 0 0 0
SMALL
GASTEIGER

@<TRIPOS>ATOM
      1  N         -7.2650   -2.5910    7.2140 N.3    26  ASN26      -0.1225
      2  CA        -6.5610   -2.1960    8.4460 C.3    26  ASN26       0.1785
      3  C         -6.8400   -3.1630    9.5450 C.2    26  ASN26       0.2597
      4  O         -7.6330   -4.0660    9.3660 O.2    26  ASN26      -0.2718
      5  CB        -6.9280   -0.7730    8.8500 C.3    26  ASN26       0.1169
      6  CG        -8.4400   -0.5640    9.0300 C.2    26  ASN26       0.2627
      7  OD1       -9.0290    0.3660    8.4710 O.2    26  ASN26      -0.2716
      8  ND2       -9.0620   -1.4410    9.6860 N.am   26  ASN26      -0.0877
      9  N         -6.2140   -2.9370   10.6890 N.am   27  ASN27      -0.1960
     10  CA        -6.2470   -3.8520   11.8360 C.3    27  ASN27       0.1819
     11  C         -7.4300   -3.6350   12.7740 C.2    27  ASN27       0.2621
     12  O         -7.4100   -4.0980   13.9030 O.2    27  ASN27      -0.2715
     13  CB        -4.8990   -3.8390   12.5640 C.3    27  ASN27       0.1195
     14  CG        -4.4290   -2.4560   13.0330 C.2    27  ASN27       0.2630
     15  OD1       -5.3230   -1.5280   13.1180 O.2    27  ASN27      -0.2716
     16  ND2       -3.1880   -2.2490   13.3440 N.am   27  ASN27      -0.0877
     17  N         -8.4690   -2.9050   12.3390 N.am   28  ASN28      -0.1972
     18  CA        -9.6320   -2.6630   13.1790 C.3    28  ASN28       0.1688
     19  C        -10.3550   -3.9700   13.5030 C.2    28  ASN28       0.2292
     20  O        -10.3980   -4.8490   12.6630 O.2    28  ASN28      -0.2864
     21  CB       -10.6390   -1.7980   12.4800 C.3    28  ASN28       0.1181
     22  CG       -10.2140   -0.3280   12.3360 C.2    28  ASN28       0.2629
     23  OD1       -9.2010    0.1740   12.8890 O.2    28  ASN28      -0.2716
     24  ND2      -11.0150    0.3610   11.5860 N.am   28  ASN28      -0.0877
     25  N          1.3620   -5.9120   14.2450 N.3    65  HIS65      -0.1226
     26  CA         0.4920   -4.7830   14.5910 C.3    65  HIS65       0.1752
     27  C          0.5080   -3.7400   13.5010 C.2    65  HIS65       0.2596
     28  O         -0.4770   -3.5420   12.7930 O.2    65  HIS65      -0.2718
     29  CB         0.9180   -4.3230   15.9880 C.3    65  HIS65       0.0759
     30  CG         0.2220   -3.0900   16.4830 C.ar   65  HIS65       0.0818
     31  ND1        0.7120   -2.3480   17.5360 N.ar   65  HIS65      -0.2268
     32  CD2       -0.9320   -2.4930   16.0970 C.ar   65  HIS65       0.1154
     33  CE1       -0.1040   -1.3270   17.7590 C.ar   65  HIS65       0.1986
     34  NE2       -1.1300   -1.4210   16.9250 N.ar   65  HIS65      -0.2212
     35  N          1.6360   -3.0640   13.3630 N.am   66  ASN66      -0.1974
     36  CA         1.8750   -2.0340   12.3380 C.3    66  ASN66       0.1688
     37  C          2.9260   -2.4900   11.3670 C.2    66  ASN66       0.2292
     38  O          2.7610   -2.3250   10.2150 O.2    66  ASN66      -0.2864
     39  CB         2.3840   -0.7680   12.9860 C.3    66  ASN66       0.1181
     40  CG         1.3110   -0.0790   13.8060 C.2    66  ASN66       0.2629
     41  OD1        0.2640    0.3700   13.2780 O.2    66  ASN66      -0.2716
     42  ND2        1.5580    0.0260   15.0880 N.am   66  ASN66      -0.0877
     43  N         -1.5380   -5.2020   21.0900 N.3    74  ALA74      -0.1245
     44  CA        -1.4060   -4.5330   22.3840 C.3    74  ALA74       0.1562
     45  C         -1.6230   -5.5200   23.4950 C.2    74  ALA74       0.2260
     46  O         -2.5470   -6.3130   23.4630 O.2    74  ALA74      -0.2867
     47  CB        -2.4170   -3.4380   22.5020 C.3    74  ALA74       0.0290
     48  N         -2.8550   -5.2310   26.2410 N.3    76  SER76      -0.1202
     49  CA        -4.1950   -5.1400   26.8160 C.3    76  SER76       0.2020
     50  C         -5.2070   -6.1600   26.3220 C.2    76  SER76       0.2618
     51  O         -6.1960   -6.4340   27.0130 O.2    76  SER76      -0.2717
     52  CB        -4.7810   -3.7850   26.5550 C.3    76  SER76       0.2103
     53  OG        -4.9190   -3.5750   25.1700 O.3    76  SER76      -0.2182
     54  N         -4.9230   -6.7670   25.1700 N.am   77  HIS77      -0.1975
     55  CA        -5.9210   -7.4680   24.3790 C.3    77  HIS77       0.1656
     56  C         -6.0290   -8.9370   24.7730 C.2    77  HIS77       0.2291
     57  O         -6.0860   -9.7750   23.9170 O.2    77  HIS77      -0.2864
     58  CB        -5.5730   -7.3530   22.8860 C.3    77  HIS77       0.0771
     59  CG        -5.9320   -6.0480   22.2450 C.ar   77  HIS77       0.0820
     60  ND1       -5.8220   -4.8320   22.8800 N.ar   77  HIS77      -0.2267
     61  CD2       -6.3530   -5.7710   20.9830 C.ar   77  HIS77       0.1154
     62  CE1       -6.1870   -3.8670   22.0470 C.ar   77  HIS77       0.1986
     63  NE2       -6.5120   -4.4090   20.8930 N.ar   77  HIS77      -0.2212
     64  N        -10.8970   -7.1760   26.3830 N.3   146  HIS146     -0.1226
     65  CA       -10.6420   -6.0730   27.2950 C.3   146  HIS146      0.1752
     66  C        -11.8570   -5.1240   27.4130 C.2   146  HIS146      0.2595
     67  O        -11.8960   -4.3340   28.2950 O.2   146  HIS146     -0.2718
     68  CB        -9.3730   -5.3200   26.9100 C.3   146  HIS146      0.0759
     69  CG        -9.3710   -4.8030   25.5230 C.ar  146  HIS146      0.0818
     70  ND1       -9.1500   -5.6140   24.4320 N.ar  146  HIS146     -0.2268
     71  CD2       -9.4920   -3.5450   25.0400 C.ar  146  HIS146      0.1154
     72  CE1       -9.1800   -4.8890   23.3320 C.ar  146  HIS146      0.1986
     73  NE2       -9.3800   -3.6240   23.6780 N.ar  146  HIS146     -0.2212
     74  N        -12.8310   -5.2470   26.5280 N.am  147  GLU147     -0.1979
     75  CA       -14.0600   -4.5440   26.5950 C.3   147  GLU147      0.1602
     76  C        -15.2400   -5.4820   26.5220 C.2   147  GLU147      0.2287
     77  O        -16.3610   -5.0500   26.2430 O.2   147  GLU147     -0.2864
     78  CB       -14.1550   -3.5700   25.4370 C.3   147  GLU147      0.0415
     79  CG       -13.3200   -2.3690   25.7420 C.3   147  GLU147      0.1163
     80  CD       -13.2680   -1.3110   24.6820 C.2   147  GLU147      0.3649
     81  OE1      -14.1320   -1.2690   23.7650 O.co2 147  GLU147     -0.2457
     82  OE2      -12.3320   -0.4860   24.7910 O.co2 147  GLU147     -0.2457
@<TRIPOS>BOND
     1     1     2    1
     2     2     5    1
     3     2     3    1
     4     7     6    2
     5     5     6    1
     6     6     8   am
     7     4     3    2
     8     3     9   am
     9    38    37    2
    10     9    10    1
    11    37    36    1
    12    24    22   am
    13    10    13    1
    14    10    11    1
    15    22    21    1
    16    22    23    2
    17    36    39    1
    18    36    35    1
    19    17    11   am
    20    17    18    1
    21    21    18    1
    22    13    14    1
    23    20    19    2
    24    11    12    2
    25    28    27    2
    26    39    40    1
    27    14    15    2
    28    14    16   am
    29    18    19    1
    30    41    40    2
    31    35    27   am
    32    27    26    1
    33    40    42   am
    34    25    26    1
    35    26    29    1
    36    29    30    1
    37    32    30   ar
    38    32    34   ar
    39    30    31   ar
    40    34    33   ar
    41    31    33   ar
    42    63    61   ar
    43    63    62   ar
    44    61    59   ar
    45    43    44    1
    46    62    60   ar
    47    59    60   ar
    48    59    58    1
    49    44    47    1
    50    44    45    1
    51    58    55    1
    52    72    73   ar
    53    72    70   ar
    54    46    45    2
    55    73    71   ar
    56    81    80   ar
    57    57    56    2
    58    55    56    1
    59    55    54    1
    60    70    69   ar
    61    80    82   ar
    62    80    79    1
    63    71    69   ar
    64    53    52    1
    65    54    50   am
    66    78    79    1
    67    78    75    1
    68    69    68    1
    69    48    49    1
    70    77    76    2
    71    50    49    1
    72    50    51    2
    73    64    65    1
    74    76    75    1
    75    74    75    1
    76    74    66   am
    77    52    49    1
    78    68    65    1
    79    65    66    1
    80    66    67    2
