@<TRIPOS>MOLECULE
tmp/5aciA01.pdb
 112 108 0 0 0
SMALL
GASTEIGER

@<TRIPOS>ATOM
      1  N         -6.1860   -2.9700   10.7260 N.3    27  ASN27      -0.1225
      2  CA        -6.2200   -3.8230   11.8870 C.3    27  ASN27       0.1785
      3  C         -7.3710   -3.5930   12.8680 C.2    27  ASN27       0.2597
      4  O         -7.3150   -4.0870   13.9860 O.2    27  ASN27      -0.2718
      5  CB        -4.8690   -3.8260   12.5780 C.3    27  ASN27       0.1169
      6  CG        -4.4250   -2.4730   13.1200 C.2    27  ASN27       0.2627
      7  OD1       -5.3260   -1.5660   13.2360 O.2    27  ASN27      -0.2716
      8  ND2       -3.2270   -2.2780   13.4520 N.am   27  ASN27      -0.0877
      9  N         -8.4060   -2.8560   12.4550 N.am   28  ASN28      -0.1974
     10  CA        -9.5960   -2.6590   13.2840 C.3    28  ASN28       0.1688
     11  C        -10.3020   -3.9630   13.5770 C.2    28  ASN28       0.2292
     12  O        -10.4140   -4.8420   12.7210 O.2    28  ASN28      -0.2864
     13  CB       -10.6220   -1.7080   12.6770 C.3    28  ASN28       0.1181
     14  CG       -10.1150   -0.2770   12.5430 C.2    28  ASN28       0.2629
     15  OD1       -9.1290    0.1240   13.1670 O.2    28  ASN28      -0.2716
     16  ND2      -10.8070    0.4890   11.7380 N.am   28  ASN28      -0.0877
     17  N          1.2470   -5.9590   14.3680 N.3    65  HIS65      -0.1226
     18  CA         0.4010   -4.8300   14.7890 C.3    65  HIS65       0.1752
     19  C          0.5010   -3.7550   13.7250 C.2    65  HIS65       0.2596
     20  O         -0.4680   -3.5050   13.0250 O.2    65  HIS65      -0.2718
     21  CB         0.8540   -4.3420   16.1800 C.3    65  HIS65       0.0759
     22  CG         0.1440   -3.1180   16.6940 C.ar   65  HIS65       0.0818
     23  ND1        0.6100   -2.4040   17.7840 N.ar   65  HIS65      -0.2268
     24  CD2       -1.0060   -2.5130   16.3140 C.ar   65  HIS65       0.1154
     25  CE1       -0.2100   -1.3900   18.0240 C.ar   65  HIS65       0.1986
     26  NE2       -1.1900   -1.4300   17.1360 N.ar   65  HIS65      -0.2212
     27  N          1.6710   -3.1270   13.6030 N.am   66  ASN66      -0.1974
     28  CA         1.9350   -2.0780   12.5960 C.3    66  ASN66       0.1688
     29  C          2.9560   -2.4970   11.5760 C.2    66  ASN66       0.2292
     30  O          2.7840   -2.2550   10.4080 O.2    66  ASN66      -0.2864
     31  CB         2.4650   -0.8140   13.2740 C.3    66  ASN66       0.1181
     32  CG         1.4120   -0.1180   14.0850 C.2    66  ASN66       0.2629
     33  OD1        0.3770    0.2660   13.5500 O.2    66  ASN66      -0.2716
     34  ND2        1.6440    0.0290   15.3560 N.am   66  ASN66      -0.0877
     35  N         -1.6580   -5.3090   21.2900 N.3    74  ALA74      -0.1245
     36  CA        -1.5370   -4.6470   22.5800 C.3    74  ALA74       0.1562
     37  C         -1.7520   -5.6210   23.7040 C.2    74  ALA74       0.2260
     38  O         -2.6530   -6.4430   23.6270 O.2    74  ALA74      -0.2867
     39  CB        -2.5480   -3.5400   22.6660 C.3    74  ALA74       0.0290
     40  N         -3.0580   -5.3880   26.5200 N.3    76  SER76      -0.1202
     41  CA        -4.3950   -5.3130   27.1000 C.3    76  SER76       0.2020
     42  C         -5.3880   -6.3170   26.5090 C.2    76  SER76       0.2618
     43  O         -6.3680   -6.7120   27.1820 O.2    76  SER76      -0.2717
     44  CB        -4.9680   -3.9220   26.8820 C.3    76  SER76       0.2103
     45  OG        -5.0840   -3.6810   25.4990 O.3    76  SER76      -0.2182
     46  N         -5.1390   -6.7480   25.2670 N.am   77  HIS77      -0.1975
     47  CA        -6.1170   -7.5600   24.5300 C.3    77  HIS77       0.1656
     48  C         -6.1400   -9.0360   24.9300 C.2    77  HIS77       0.2291
     49  O         -6.2350   -9.9080   24.0660 O.2    77  HIS77      -0.2864
     50  CB        -5.8320   -7.4600   23.0290 C.3    77  HIS77       0.0771
     51  CG        -6.1380   -6.1240   22.4200 C.ar   77  HIS77       0.0820
     52  ND1       -6.0110   -4.9330   23.0950 N.ar   77  HIS77      -0.2267
     53  CD2       -6.5670   -5.8020   21.1730 C.ar   77  HIS77       0.1154
     54  CE1       -6.3330   -3.9370   22.2920 C.ar   77  HIS77       0.1986
     55  NE2       -6.6590   -4.4380   21.1110 N.ar   77  HIS77      -0.2212
     56  N        -10.9160   -7.2710   26.4950 N.3   146  HIS146     -0.1226
     57  CA       -10.7050   -6.1020   27.3680 C.3   146  HIS146      0.1752
     58  C        -11.9580   -5.2260   27.5500 C.2   146  HIS146      0.2595
     59  O        -12.0420   -4.4890   28.5430 O.2   146  HIS146     -0.2718
     60  CB        -9.4970   -5.2470   26.9560 C.3   146  HIS146      0.0759
     61  CG        -9.5020   -4.8080   25.5230 C.ar  146  HIS146      0.0818
     62  ND1       -9.3230   -5.6820   24.4720 N.ar  146  HIS146     -0.2268
     63  CD2       -9.6310   -3.5790   24.9680 C.ar  146  HIS146      0.1154
     64  CE1       -9.4260   -5.0260   23.3280 C.ar  146  HIS146      0.1986
     65  NE2       -9.6040   -3.7440   23.6000 N.ar  146  HIS146     -0.2212
     66  N        -12.9070   -5.3220   26.6280 N.am  147  GLU147     -0.1979
     67  CA       -14.2020   -4.6400   26.7690 C.3   147  GLU147      0.1602
     68  C        -15.3770   -5.5730   26.6670 C.2   147  GLU147      0.2287
     69  O        -16.4970   -5.1260   26.3930 O.2   147  GLU147     -0.2864
     70  CB       -14.2950   -3.5400   25.7190 C.3   147  GLU147      0.0415
     71  CG       -13.2700   -2.4580   25.9890 C.3   147  GLU147      0.1163
     72  CD       -13.2670   -1.3150   24.9850 C.2   147  GLU147      0.3649
     73  OE1      -13.9410   -1.3890   23.9370 O.co2 147  GLU147     -0.2457
     74  OE2      -12.5700   -0.3230   25.2670 O.co2 147  GLU147     -0.2457
     75  N        -18.4690   -0.8590   23.1030 N.3   158  ARG158     -0.1245
     76  CA       -17.7440   -1.8630   23.8330 C.3   158  ARG158      0.1563
     77  C        -17.9810   -3.2060   23.1330 C.2   158  ARG158      0.2260
     78  O        -18.3870   -3.2300   21.9510 O.2   158  ARG158     -0.2867
     79  CB       -18.1650   -1.8450   25.3350 C.3   158  ARG158      0.0307
     80  CG       -17.7200   -0.5550   26.0400 C.3   158  ARG158      0.0489
     81  CD       -18.0520   -0.5360   27.5170 C.3   158  ARG158      0.2205
     82  NE       -17.2250   -1.4970   28.2380 N.pl3 158  ARG158     -0.0865
     83  CZ       -15.9520   -1.3120   28.5440 C.cat 158  ARG158      0.5346
     84  NH1      -15.3420   -0.1810   28.2330 N.pl3 158  ARG158      0.1354
     85  NH2      -15.2900   -2.2680   29.1760 N.pl3 158  ARG158      0.1354
     86  N        -16.0660  -10.8660   32.1090 N.3   200  ASN200     -0.1240
     87  CA       -15.2870   -9.8310   32.7300 C.3   200  ASN200      0.1653
     88  C        -13.9790  -10.3770   33.1920 C.2   200  ASN200      0.2266
     89  O        -13.9280  -11.0830   34.2210 O.2   200  ASN200     -0.2867
     90  CB       -16.0810   -9.2280   33.9170 C.3   200  ASN200      0.1155
     91  CG       -15.4220   -7.9920   34.5000 C.2   200  ASN200      0.2627
     92  OD1      -14.1990   -7.8510   34.5180 O.2   200  ASN200     -0.2716
     93  ND2      -16.2460   -7.0870   34.9960 N.am  200  ASN200     -0.0877
     94  N        -11.5490   -8.8840   34.4170 N.3   202  TYR202     -0.1227
     95  CA       -10.9870   -8.1670   35.5450 C.3   202  TYR202      0.1736
     96  C        -11.4620   -8.7040   36.9020 C.2   202  TYR202      0.2596
     97  O        -10.7110   -8.6540   37.8700 O.2   202  TYR202     -0.2718
     98  CB       -11.2700   -6.6710   35.4050 C.3   202  TYR202      0.0548
     99  CG       -10.8600   -6.1370   34.0490 C.ar  202  TYR202     -0.0200
    100  CD1       -9.5160   -5.9550   33.7330 C.ar  202  TYR202     -0.0009
    101  CD2      -11.8150   -5.8420   33.0660 C.ar  202  TYR202     -0.0009
    102  CE1       -9.1180   -5.4970   32.4860 C.ar  202  TYR202      0.0417
    103  CE2      -11.4320   -5.3700   31.8270 C.ar  202  TYR202      0.0417
    104  CZ       -10.0870   -5.2140   31.5350 C.ar  202  TYR202      0.1957
    105  OH        -9.6910   -4.7600   30.3060 O.3   202  TYR202     -0.2866
    106  N        -12.6780   -9.2350   36.9660 N.am  203  THR203     -0.1953
    107  CA       -13.2530   -9.6870   38.2400 C.3   203  THR203      0.1897
    108  C        -13.6210  -11.1690   38.2680 C.2   203  THR203      0.2313
    109  O        -13.9480  -11.7060   39.3270 O.2   203  THR203     -0.2863
    110  CB       -14.4810   -8.8240   38.5980 C.3   203  THR203      0.1794
    111  OG1      -15.4980   -8.9800   37.6000 O.3   203  THR203     -0.2208
    112  CG2      -14.0830   -7.3470   38.6670 C.3   203  THR203      0.0378
@<TRIPOS>BOND
     1    30    29    2
     2     1     2    1
     3    29    28    1
     4    16    14   am
     5     2     5    1
     6     2     3    1
     7     9     3   am
     8     9    10    1
     9    14    13    1
    10    14    15    2
    11     5     6    1
    12    28    31    1
    13    28    27    1
    14    13    10    1
    15    12    11    2
    16     3     4    2
    17    20    19    2
    18     6     7    2
    19     6     8   am
    20    31    32    1
    21    10    11    1
    22    33    32    2
    23    27    19   am
    24    19    18    1
    25    32    34   am
    26    17    18    1
    27    18    21    1
    28    21    22    1
    29    24    22   ar
    30    24    26   ar
    31    22    23   ar
    32    26    25   ar
    33    23    25   ar
    34    55    53   ar
    35    55    54   ar
    36    53    51   ar
    37    35    36    1
    38    78    77    2
    39    54    52   ar
    40    51    50    1
    41    51    52   ar
    42    36    39    1
    43    36    37    1
    44    50    47    1
    45    75    76    1
    46    77    76    1
    47    64    65   ar
    48    64    62   ar
    49    65    63   ar
    50    38    37    2
    51    76    79    1
    52    73    72   ar
    53    49    48    2
    54    62    61   ar
    55    47    48    1
    56    47    46    1
    57    63    61   ar
    58    72    74   ar
    59    72    71    1
    60    46    42   am
    61    79    80    1
    62    45    44    1
    63    61    60    1
    64    70    71    1
    65    70    67    1
    66    80    81    1
    67    69    68    2
    68    56    57    1
    69    42    41    1
    70    42    43    2
    71    40    41    1
    72    66    67    1
    73    66    58   am
    74    68    67    1
    75    44    41    1
    76    60    57    1
    77    57    58    1
    78    81    82    1
    79    58    59    2
    80    84    83    1
    81    82    83    2
    82    83    85    1
    83   105   104    1
    84   104   103   ar
    85   104   102   ar
    86   103   101   ar
    87    86    87    1
    88   102   100   ar
    89    87    88    1
    90    87    90    1
    91   101    99   ar
    92    88    89    2
    93   100    99   ar
    94    90    91    1
    95    99    98    1
    96    94    95    1
    97    91    92    2
    98    91    93   am
    99    98    95    1
   100    95    96    1
   101    96   106   am
   102    96    97    2
   103   106   107    1
   104   111   110    1
   105   107   108    1
   106   107   110    1
   107   108   109    2
   108   110   112    1
