@<TRIPOS>MOLECULE
tmp/5ackA01.pdb
 115 111 0 0 0
SMALL
GASTEIGER

@<TRIPOS>ATOM
      1  N         53.0280   13.0830    5.8600 N.3    43  LYS43      -0.1245
      2  CA        52.6850   14.3560    6.4720 C.3    43  LYS43       0.1561
      3  C         51.3500   14.9340    5.9500 C.2    43  LYS43       0.2260
      4  O         50.5510   15.4440    6.7240 O.2    43  LYS43      -0.2867
      5  CB        53.8060   15.3580    6.1930 C.3    43  LYS43       0.0271
      6  CG        55.0990   15.0570    6.9280 C.3    43  LYS43       0.0035
      7  CD        56.2050   16.0130    6.4710 C.3    43  LYS43       0.0206
      8  CE        57.3820   15.9720    7.4460 C.3    43  LYS43       0.1093
      9  NZ        58.4680   16.8810    6.9980 N.3    43  LYS43      -0.1314
     10  N         48.5830   13.2380    7.8070 N.3    46  ILE46      -0.1231
     11  CA        48.5410   13.6560    9.1890 C.3    46  ILE46       0.1692
     12  C         47.9040   15.0210    9.3050 C.2    46  ILE46       0.2591
     13  O         47.1380   15.2830   10.2290 O.2    46  ILE46      -0.2718
     14  CB        49.9670   13.6690    9.7570 C.3    46  ILE46       0.0266
     15  CG1       50.5160   12.2460    9.7610 C.3    46  ILE46       0.0019
     16  CG2       50.0030   14.3290   11.1330 C.3    46  ILE46       0.0020
     17  CD1       49.6530   11.2440   10.4810 C.3    46  ILE46       0.0001
     18  N         48.2730   15.9060    8.4090 N.am   47  ILE47      -0.1980
     19  CA        47.6260   17.2080    8.4200 C.3    47  ILE47       0.1595
     20  C         46.1380   17.0930    8.1230 C.2    47  ILE47       0.2287
     21  O         45.3050   17.6450    8.8640 O.2    47  ILE47      -0.2864
     22  CB        48.3380   18.1530    7.4550 C.3    47  ILE47       0.0276
     23  CG1       49.6970   18.5400    8.0470 C.3    47  ILE47       0.0022
     24  CG2       47.5310   19.3750    7.2690 C.3    47  ILE47       0.0022
     25  CD1       50.7110   19.0020    7.0350 C.3    47  ILE47       0.0001
     26  N         48.5190   15.9450   13.8310 N.3    52  VAL52      -0.1245
     27  CA        49.8180   16.4620   14.2580 C.3    52  VAL52       0.1561
     28  C         50.0370   16.2890   15.7710 C.2    52  VAL52       0.2260
     29  O         51.1220   15.8310   16.2020 O.2    52  VAL52      -0.2867
     30  CB        50.0620   17.8950   13.7580 C.3    52  VAL52       0.0252
     31  CG1       51.4200   18.4040   14.2420 C.3    52  VAL52       0.0019
     32  CG2       50.0090   17.9130   12.2280 C.3    52  VAL52       0.0019
     33  N         51.1300   12.5790   16.5620 N.3    55  VAL55      -0.1231
     34  CA        52.5010   12.2580   16.2110 C.3    55  VAL55       0.1692
     35  C         53.4920   12.8630   17.2060 C.2    55  VAL55       0.2592
     36  O         54.4730   12.2360   17.6460 O.2    55  VAL55      -0.2718
     37  CB        52.8250   12.7980   14.8060 C.3    55  VAL55       0.0266
     38  CG1       54.2330   12.4610   14.4430 C.3    55  VAL55       0.0020
     39  CG2       51.8670   12.2260   13.7760 C.3    55  VAL55       0.0020
     40  N         53.2370   14.1250   17.5460 N.am   56  THR56      -0.1953
     41  CA        54.0690   14.7900   18.5450 C.3    56  THR56       0.1897
     42  C         54.0300   14.0680   19.8900 C.2    56  THR56       0.2313
     43  O         55.0450   13.8780   20.5440 O.2    56  THR56      -0.2863
     44  CB        53.6110   16.2650   18.7200 C.3    56  THR56       0.1794
     45  OG1       53.6800   16.8990   17.4670 O.3    56  THR56      -0.2208
     46  CG2       54.5060   16.9710   19.6240 C.3    56  THR56       0.0378
     47  N         56.0140   10.7430   19.9170 N.3    59  ARG59      -0.1245
     48  CA        57.4520   10.9850   20.1080 C.3    59  ARG59       0.1563
     49  C         57.8010   11.4000   21.5300 C.2    59  ARG59       0.2260
     50  O         58.7460   10.8570   22.1360 O.2    59  ARG59      -0.2867
     51  CB        57.9580   12.0160   19.0870 C.3    59  ARG59       0.0307
     52  CG        59.4720   12.2170   19.1520 C.3    59  ARG59       0.0489
     53  CD        59.9720   13.1560   18.0650 C.3    59  ARG59       0.2205
     54  NE        59.3730   14.4800   18.1740 N.pl3  59  ARG59      -0.0865
     55  CZ        58.4590   14.9710   17.3430 C.cat  59  ARG59       0.5346
     56  NH1       58.0230   14.2510   16.3150 N.pl3  59  ARG59       0.1354
     57  NH2       57.9700   16.1850   17.5560 N.pl3  59  ARG59       0.1354
     58  N         64.2660    9.2280   15.4060 N.3    76  THR76      -0.1203
     59  CA        63.2520    9.7730   14.5070 C.3    76  THR76       0.1994
     60  C         63.9640   10.5510   13.4350 C.2    76  THR76       0.2618
     61  O         65.0870   11.0260   13.6300 O.2    76  THR76      -0.2717
     62  CB        62.2140   10.6690   15.2240 C.3    76  THR76       0.1784
     63  OG1       62.8860   11.7060   15.9370 O.3    76  THR76      -0.2211
     64  CG2       61.4030    9.8780   16.2000 C.3    76  THR76       0.0376
     65  N         63.3030   10.6620   12.2870 N.am   77  PHE77      -0.1961
     66  CA        63.7680   11.5790   11.2380 C.3    77  PHE77       0.1771
     67  C         62.6180   11.8760   10.2840 C.2    77  PHE77       0.2619
     68  O         61.5330   11.3550   10.4380 O.2    77  PHE77      -0.2715
     69  CB        65.0180   11.0110   10.5280 C.3    77  PHE77       0.0574
     70  CG        64.8510    9.6420    9.8800 C.ar   77  PHE77      -0.0200
     71  CD1       64.4090    9.5130    8.5770 C.ar   77  PHE77      -0.0042
     72  CD2       65.2220    8.4990   10.5530 C.ar   77  PHE77      -0.0042
     73  CE1       64.3030    8.2810    8.0070 C.ar   77  PHE77      -0.0003
     74  CE2       65.1120    7.2600    9.9770 C.ar   77  PHE77      -0.0003
     75  CZ        64.6550    7.1460    8.7120 C.ar   77  PHE77      -0.0000
     76  N         62.8350   12.7830    9.3500 N.am   78  GLN78      -0.1977
     77  CA        61.7940   13.1820    8.4180 C.3    78  GLN78       0.1601
     78  C         62.4000   13.5320    7.0760 C.2    78  GLN78       0.2287
     79  O         63.6010   13.7640    6.9540 O.2    78  GLN78      -0.2864
     80  CB        61.0400   14.3940    8.9830 C.3    78  GLN78       0.0394
     81  CG        61.9110   15.6120    9.1340 C.3    78  GLN78       0.0908
     82  CD        61.1790   16.7860    9.6890 C.2    78  GLN78       0.2608
     83  OE1       60.1240   17.1870    9.1770 O.2    78  GLN78      -0.2717
     84  NE2       61.7460   17.3740   10.7280 N.am   78  GLN78      -0.0878
     85  N         57.3080   11.3430    8.0050 N.3    83  LEU83      -0.1231
     86  CA        57.9010   11.2270    9.3310 C.3    83  LEU83       0.1693
     87  C         58.2340    9.7740    9.5640 C.2    83  LEU83       0.2592
     88  O         57.4870    8.8710    9.1770 O.2    83  LEU83      -0.2718
     89  CB        56.8880   11.6230   10.3780 C.3    83  LEU83       0.0284
     90  CG        56.2880   13.0050   10.1730 C.3    83  LEU83       0.0019
     91  CD1       54.9900   13.1860   10.9290 C.3    83  LEU83       0.0001
     92  CD2       57.2780   14.0480   10.5730 C.3    83  LEU83       0.0001
     93  N         59.3840    9.5370   10.2160 N.am   84  TYR84      -0.1962
     94  CA        59.8770    8.1830   10.4670 C.3    84  TYR84       0.1771
     95  C         60.2310    7.9700   11.9300 C.2    84  TYR84       0.2619
     96  O         60.9810    8.7800   12.4900 O.2    84  TYR84      -0.2715
     97  CB        61.1390    7.8790    9.6570 C.3    84  TYR84       0.0574
     98  CG        61.0400    8.0560    8.1580 C.ar   84  TYR84      -0.0198
     99  CD1       61.0790    9.3250    7.5700 C.ar   84  TYR84      -0.0009
    100  CD2       60.9820    6.9610    7.3000 C.ar   84  TYR84      -0.0009
    101  CE1       61.0600    9.4940    6.1920 C.ar   84  TYR84       0.0417
    102  CE2       60.9560    7.1290    5.9380 C.ar   84  TYR84       0.0417
    103  CZ        60.9990    8.3950    5.3820 C.ar   84  TYR84       0.1957
    104  OH        60.9830    8.5860    3.9970 O.3    84  TYR84      -0.2866
    105  N         59.7110    6.8940   12.5270 N.am   85  PHE85      -0.1974
    106  CA        60.0360    6.4900   13.8850 C.3    85  PHE85       0.1639
    107  C         60.7430    5.1510   13.8180 C.2    85  PHE85       0.2290
    108  O         60.1680    4.1710   13.3580 O.2    85  PHE85      -0.2864
    109  CB        58.7610    6.2710   14.7280 C.3    85  PHE85       0.0560
    110  CG        57.9480    7.5030   15.0520 C.ar   85  PHE85      -0.0200
    111  CD1       57.1540    8.1460   14.1030 C.ar   85  PHE85      -0.0042
    112  CD2       57.8670    7.9390   16.3670 C.ar   85  PHE85      -0.0042
    113  CE1       56.3750    9.2400   14.4530 C.ar   85  PHE85      -0.0003
    114  CE2       57.0780    8.9960   16.7240 C.ar   85  PHE85      -0.0003
    115  CZ        56.3360    9.6530   15.7850 C.ar   85  PHE85      -0.0000
@<TRIPOS>BOND
     1   104   103    1
     2   103   102   ar
     3   103   101   ar
     4     1     2    1
     5   102   100   ar
     6     3     2    1
     7     3     4    2
     8   101    99   ar
     9     5     2    1
    10     5     6    1
    11     7     6    1
    12     7     8    1
    13    79    78    2
    14     9     8    1
    15    25    23    1
    16    78    77    1
    17    24    22    1
    18   100    98   ar
    19    22    23    1
    20    22    19    1
    21    99    98   ar
    22    10    11    1
    23    85    86    1
    24    73    71   ar
    25    73    75   ar
    26    20    19    1
    27    20    21    2
    28    98    97    1
    29    18    19    1
    30    18    12   am
    31    77    80    1
    32    77    76    1
    33    71    70   ar
    34    75    74   ar
    35    80    81    1
    36    81    82    1
    37    88    87    2
    38    83    82    2
    39    11    12    1
    40    11    14    1
    41    12    13    2
    42    86    87    1
    43    86    89    1
    44    76    67   am
    45    87    93   am
    46    97    94    1
    47    82    84   am
    48    14    15    1
    49    14    16    1
    50    15    17    1
    51    70    69    1
    52    70    72   ar
    53    74    72   ar
    54    90    89    1
    55    90    92    1
    56    90    91    1
    57    93    94    1
    58    67    68    2
    59    67    66    1
    60    94    95    1
    61    69    66    1
    62    66    65    1
    63    95    96    2
    64    95   105   am
    65    32    30    1
    66    65    60   am
    67   105   106    1
    68   108   107    2
    69    60    61    2
    70    60    59    1
    71    30    31    1
    72    30    27    1
    73    39    37    1
    74   107   106    1
    75    26    27    1
    76   106   109    1
    77   111   113   ar
    78   111   110   ar
    79    27    28    1
    80    38    37    1
    81   113   115   ar
    82    59    62    1
    83    59    58    1
    84   109   110    1
    85    37    34    1
    86   110   112   ar
    87    62    63    1
    88    62    64    1
    89    28    29    2
    90   115   114   ar
    91    34    33    1
    92    34    35    1
    93    56    55    1
    94   112   114   ar
    95    35    40   am
    96    35    36    2
    97    55    57    1
    98    55    54    2
    99    45    44    1
   100    40    41    1
   101    53    54    1
   102    53    52    1
   103    41    44    1
   104    41    42    1
   105    44    46    1
   106    51    52    1
   107    51    48    1
   108    42    43    2
   109    47    48    1
   110    48    49    1
   111    49    50    2
