@<TRIPOS>MOLECULE
tmp/5aclA00.pdb
 100 97 0 0 0
SMALL
GASTEIGER

@<TRIPOS>ATOM
      1  N          0.3300   10.0710   -5.7720 N.3    33  TYR33      -0.1241
      2  CA         0.3110    8.7340   -6.3950 C.3    33  TYR33       0.1605
      3  C         -0.8750    8.6620   -7.3220 C.2    33  TYR33       0.2264
      4  O         -1.7370    7.7990   -7.2410 O.2    33  TYR33      -0.2867
      5  CB         0.3510    7.5790   -5.3800 C.3    33  TYR33       0.0534
      6  CG         1.7440    7.4170   -4.7870 C.ar   33  TYR33      -0.0201
      7  CD1        2.1160    8.1640   -3.6920 C.ar   33  TYR33      -0.0009
      8  CD2        2.7100    6.5890   -5.3960 C.ar   33  TYR33      -0.0009
      9  CE1        3.4010    8.0690   -3.1550 C.ar   33  TYR33       0.0417
     10  CE2        4.0190    6.5020   -4.8850 C.ar   33  TYR33       0.0417
     11  CZ         4.3530    7.2340   -3.7540 C.ar   33  TYR33       0.1957
     12  OH         5.6490    7.1180   -3.2210 O.3    33  TYR33      -0.2866
     13  N         -1.9150    8.1130  -11.2500 N.3    35  SER35      -0.1217
     14  CA        -1.5090    7.5110  -12.5110 C.3    35  SER35       0.1889
     15  C         -2.5450    7.7810  -13.5950 C.2    35  SER35       0.2288
     16  O         -3.7200    7.9970  -13.2930 O.2    35  SER35      -0.2866
     17  CB        -1.3050    6.0250  -12.3670 C.3    35  SER35       0.2089
     18  OG        -0.2140    5.7370  -11.5220 O.3    35  SER35      -0.2183
     19  N         -3.7270    6.3120  -17.5440 N.3    37  TYR37      -0.1241
     20  CA        -3.7360    5.2260  -18.5510 C.3    37  TYR37       0.1605
     21  C         -4.4390    5.6590  -19.8200 C.2    37  TYR37       0.2264
     22  O         -5.4700    6.3480  -19.7340 O.2    37  TYR37      -0.2867
     23  CB        -4.4020    3.9680  -17.9710 C.3    37  TYR37       0.0534
     24  CG        -3.8070    3.5770  -16.6590 C.ar   37  TYR37      -0.0201
     25  CD1       -2.7220    2.7850  -16.6070 C.ar   37  TYR37      -0.0009
     26  CD2       -4.3420    4.0660  -15.4700 C.ar   37  TYR37      -0.0009
     27  CE1       -2.1420    2.4500  -15.3860 C.ar   37  TYR37       0.0417
     28  CE2       -3.7490    3.7710  -14.2290 C.ar   37  TYR37       0.0417
     29  CZ        -2.6550    2.9630  -14.2480 C.ar   37  TYR37       0.1957
     30  OH        -2.0500    2.6700  -12.9990 O.3    37  TYR37      -0.2866
     31  N          0.3350    2.6250  -19.7330 N.3    47  VAL47      -0.1245
     32  CA         0.6880    3.4810  -18.6100 C.3    47  VAL47       0.1561
     33  C          1.3810    4.7090  -19.2130 C.2    47  VAL47       0.2260
     34  O          2.4420    4.6280  -19.8200 O.2    47  VAL47      -0.2867
     35  CB         1.7010    2.8200  -17.5950 C.3    47  VAL47       0.0252
     36  CG1        1.8920    3.7110  -16.3670 C.3    47  VAL47       0.0019
     37  CG2        1.2490    1.4560  -17.2640 C.3    47  VAL47       0.0019
     38  N          2.7350    8.1560  -13.9770 N.3    50  TYR50      -0.1227
     39  CA         2.6180    7.6980  -12.6030 C.3    50  TYR50       0.1736
     40  C          3.2090    8.7740  -11.6780 C.2    50  TYR50       0.2595
     41  O          3.9490    9.6850  -12.0910 O.2    50  TYR50      -0.2718
     42  CB         3.2670    6.3010  -12.4120 C.3    50  TYR50       0.0548
     43  CG         4.7780    6.3000  -12.5790 C.ar   50  TYR50      -0.0200
     44  CD1        5.3490    6.1960  -13.8430 C.ar   50  TYR50      -0.0009
     45  CD2        5.6430    6.4060  -11.4640 C.ar   50  TYR50      -0.0009
     46  CE1        6.7190    6.1870  -14.0020 C.ar   50  TYR50       0.0417
     47  CE2        7.0430    6.4000  -11.6410 C.ar   50  TYR50       0.0417
     48  CZ         7.5310    6.2770  -12.8780 C.ar   50  TYR50       0.1957
     49  OH         8.9210    6.3100  -13.0680 O.3    50  TYR50      -0.2866
     50  N          2.7960    8.7190  -10.4060 N.am   51  GLU51      -0.1979
     51  CA         3.2610    9.6620   -9.3710 C.3    51  GLU51       0.1602
     52  C          3.0970   11.0870   -9.8760 C.2    51  GLU51       0.2287
     53  O          4.0280   11.9170   -9.7460 O.2    51  GLU51      -0.2864
     54  CB         4.7370    9.3130   -8.9940 C.3    51  GLU51       0.0415
     55  CG         4.7860    8.0910   -8.0970 C.3    51  GLU51       0.1163
     56  CD         6.2390    7.7360   -7.7980 C.2    51  GLU51       0.3649
     57  OE1        6.9220    8.6150   -7.2540 O.co2  51  GLU51      -0.2457
     58  OE2        6.6910    6.6340   -8.0990 O.co2  51  GLU51      -0.2457
     59  N          6.7790    6.7620  -17.8020 N.3    56  PRO56      -0.2102
     60  CA         7.5300    5.6230  -18.3220 C.3    56  PRO56       0.1504
     61  C          8.2660    5.9570  -19.5570 C.2    56  PRO56       0.2573
     62  O          7.9070    6.9020  -20.2860 O.2    56  PRO56      -0.2718
     63  CB         6.3930    4.5950  -18.6040 C.3    56  PRO56       0.0282
     64  CG         5.2450    5.0050  -17.8360 C.3    56  PRO56       0.0208
     65  CD         5.3060    6.5070  -17.8070 C.3    56  PRO56       0.0893
     66  N          9.3040    5.1490  -19.8610 N.am   57  SER57      -0.2006
     67  CA         9.9330    5.2430  -21.1640 C.3    57  SER57       0.1610
     68  C          8.9460    5.0100  -22.2780 C.3    57  SER57       0.2063
     69  O          7.9370    4.2130  -22.0990 O.3    57  SER57      -0.2184
     70  CB        11.1530    4.2860  -21.2450 C.3    57  SER57       0.2063
     71  OG        10.6820    2.9380  -21.1790 O.3    57  SER57      -0.2184
     72  N         -6.0040    7.0900  -11.8240 N.3    90  SER90      -0.1217
     73  CA        -6.1620    6.3330  -10.5930 C.3    90  SER90       0.1889
     74  C         -5.4040    7.0360   -9.4960 C.2    90  SER90       0.2288
     75  O         -4.4560    7.8040   -9.7780 O.2    90  SER90      -0.2866
     76  CB        -5.6240    4.8710  -10.7420 C.3    90  SER90       0.2089
     77  OG        -4.2540    4.8840  -10.9420 O.3    90  SER90      -0.2183
     78  N         -3.7330    6.1310   -5.4060 N.3    92  TYR92      -0.1241
     79  CA        -3.7720    5.6460   -3.9350 C.3    92  TYR92       0.1605
     80  C         -4.8670    6.2690   -3.0330 C.2    92  TYR92       0.2264
     81  O         -5.1830    7.4850   -3.0640 O.2    92  TYR92      -0.2867
     82  CB        -2.4640    5.9170   -3.2570 C.3    92  TYR92       0.0534
     83  CG        -2.2010    5.0870   -2.0500 C.ar   92  TYR92      -0.0201
     84  CD1       -2.2810    3.7050   -2.0970 C.ar   92  TYR92      -0.0009
     85  CD2       -1.8160    5.7160   -0.8330 C.ar   92  TYR92      -0.0009
     86  CE1       -2.0710    2.9560   -0.9550 C.ar   92  TYR92       0.0417
     87  CE2       -1.5830    4.9760    0.3070 C.ar   92  TYR92       0.0417
     88  CZ        -1.6700    3.6020    0.2200 C.ar   92  TYR92       0.1957
     89  OH        -1.4060    2.8920    1.3680 O.3    92  TYR92      -0.2866
     90  N         -6.3580    1.3290   -4.0380 N.3    98  PHE98      -0.1241
     91  CA        -6.4450    2.3110   -5.1850 C.3    98  PHE98       0.1605
     92  C         -7.8440    2.4750   -5.7570 C.2    98  PHE98       0.2264
     93  O         -8.6460    1.5430   -5.8390 O.2    98  PHE98      -0.2867
     94  CB        -5.5450    1.9000   -6.3020 C.3    98  PHE98       0.0534
     95  CG        -4.0390    1.9810   -5.9280 C.ar   98  PHE98      -0.0203
     96  CD1       -3.4440    1.0310   -5.0560 C.ar   98  PHE98      -0.0042
     97  CD2       -3.2460    3.0540   -6.3560 C.ar   98  PHE98      -0.0042
     98  CE1       -2.0810    1.1590   -4.6510 C.ar   98  PHE98      -0.0003
     99  CE2       -1.8890    3.1630   -5.9670 C.ar   98  PHE98      -0.0003
    100  CZ        -1.3140    2.2080   -5.1190 C.ar   98  PHE98      -0.0000
@<TRIPOS>BOND
     1    68    69    1
     2    68    67    1
     3    70    71    1
     4    70    67    1
     5    67    66    1
     6    62    61    2
     7    66    61   am
     8    21    22    2
     9    21    20    1
    10    34    33    2
    11    31    32    1
    12    61    60    1
    13    33    32    1
    14    32    35    1
    15    63    60    1
    16    63    64    1
    17    20    23    1
    18    20    19    1
    19    60    59    1
    20    23    24    1
    21    64    65    1
    22    65    59    1
    23    35    37    1
    24    35    36    1
    25    24    25   ar
    26    24    26   ar
    27    25    27   ar
    28    26    28   ar
    29    27    29   ar
    30    29    28   ar
    31    29    30    1
    32    46    44   ar
    33    46    48   ar
    34    38    39    1
    35    44    43   ar
    36    15    16    2
    37    15    14    1
    38    49    48    1
    39    48    47   ar
    40    39    42    1
    41    39    40    1
    42    43    42    1
    43    43    45   ar
    44    14    17    1
    45    14    13    1
    46    17    18    1
    47    41    40    2
    48    72    73    1
    49    40    50   am
    50    47    45   ar
    51    77    76    1
    52    76    73    1
    53    73    74    1
    54    50    51    1
    55    52    53    2
    56    52    51    1
    57    75    74    2
    58    51    54    1
    59    54    55    1
    60    58    56   ar
    61    55    56    1
    62    56    57   ar
    63     3     4    2
    64     3     2    1
    65     2     1    1
    66     2     5    1
    67    97    99   ar
    68    97    95   ar
    69    94    95    1
    70    94    91    1
    71    99   100   ar
    72    95    96   ar
    73    93    92    2
    74    92    91    1
    75    78    79    1
    76     8    10   ar
    77     8     6   ar
    78     5     6    1
    79    91    90    1
    80   100    98   ar
    81    96    98   ar
    82    10    11   ar
    83     6     7   ar
    84    79    82    1
    85    79    80    1
    86    11    12    1
    87    11     9   ar
    88     7     9   ar
    89    82    83    1
    90    81    80    2
    91    84    83   ar
    92    84    86   ar
    93    83    85   ar
    94    86    88   ar
    95    85    87   ar
    96    88    87   ar
    97    88    89    1
