@<TRIPOS>MOLECULE
tmp/5acoD07.pdb
 100 99 0 0 0
SMALL
GASTEIGER

@<TRIPOS>ATOM
      1  N        162.2110  136.0070  181.1730 N.3    55  TRP55      -0.1241
      2  CA       161.2350  136.1550  180.0990 C.3    55  TRP55       0.1605
      3  C        160.3950  137.4110  180.2710 C.2    55  TRP55       0.2264
      4  O        159.6210  137.7830  179.3900 O.2    55  TRP55      -0.2867
      5  CB       160.3400  134.9170  180.0270 C.3    55  TRP55       0.0550
      6  CG       161.1300  133.6490  179.9730 C.ar   55  TRP55       0.0003
      7  CD1      161.2650  132.7240  180.9650 C.ar   55  TRP55       0.0946
      8  CD2      161.9230  133.1830  178.8760 C.ar   55  TRP55       0.0152
      9  NE1      162.0860  131.7010  180.5490 N.ar   55  TRP55      -0.2442
     10  CE2      162.5000  131.9610  179.2710 C.ar   55  TRP55       0.0810
     11  CE3      162.1980  133.6790  177.5970 C.ar   55  TRP55       0.0012
     12  CZ2      163.3370  131.2280  178.4330 C.ar   55  TRP55       0.0191
     13  CZ3      163.0250  132.9490  176.7670 C.ar   55  TRP55       0.0001
     14  CH2      163.5850  131.7350  177.1860 C.ar   55  TRP55       0.0015
     15  N        166.6630  127.3350  185.1690 N.3   183  ASN183     -0.1240
     16  CA       165.6990  126.8190  184.2110 C.3   183  ASN183      0.1653
     17  C        165.1960  127.9300  183.2970 C.2   183  ASN183      0.2266
     18  O        164.3840  127.6960  182.4010 O.2   183  ASN183     -0.2867
     19  CB       164.6620  125.9540  184.9040 C.3   183  ASN183      0.1155
     20  CG       163.4690  126.7430  185.3690 C.2   183  ASN183      0.2627
     21  OD1      163.5830  127.9270  185.7030 O.2   183  ASN183     -0.2716
     22  ND2      162.3250  126.1080  185.3970 N.am  183  ASN183     -0.0877
     23  N        163.7950  130.5360  184.9920 N.3   185  THR185     -0.1203
     24  CA       163.0050  131.2370  185.9990 C.3   185  THR185      0.1994
     25  C        162.8180  130.4030  187.2650 C.2   185  THR185      0.2618
     26  O        162.7830  129.1760  187.2130 O.2   185  THR185     -0.2717
     27  CB       161.6270  131.6290  185.4360 C.3   185  THR185      0.1784
     28  OG1      160.8950  132.3660  186.4240 O.3   185  THR185     -0.2211
     29  CG2      160.8370  130.3900  185.0450 C.3   185  THR185      0.0376
     30  N        162.6930  131.0850  188.4000 N.am  186  GLY186     -0.1942
     31  CA       162.5340  130.4130  189.6780 C.3   186  GLY186      0.1998
     32  C        163.5500  130.8620  190.7100 C.2   186  GLY186      0.2480
     33  O        164.3860  131.7190  190.4280 O.2   186  GLY186     -0.2729
     34  N        163.4840  130.2850  191.9180 N.am  187  PRO187     -0.2726
     35  CA       164.3320  130.6880  193.0430 C.3   187  PRO187      0.1402
     36  C        165.7920  130.2780  192.8460 C.2   187  PRO187      0.2269
     37  O        166.0580  129.1900  192.3430 O.2   187  PRO187     -0.2865
     38  CB       163.7140  129.9450  194.2290 C.3   187  PRO187      0.0296
     39  CG       162.9980  128.7980  193.6100 C.3   187  PRO187      0.0237
     40  CD       162.4670  129.3060  192.3030 C.3   187  PRO187      0.0939
     41  N        169.6540  124.3920  178.5610 N.3   221  ILE221     -0.1231
     42  CA       168.4580  124.5010  177.7460 C.3   221  ILE221      0.1692
     43  C        167.4590  125.4280  178.4120 C.2   221  ILE221      0.2592
     44  O        166.9630  125.1310  179.4970 O.2   221  ILE221     -0.2718
     45  CB       167.8140  123.1230  177.5100 C.3   221  ILE221      0.0266
     46  CG1      168.8350  122.1520  176.9100 C.3   221  ILE221      0.0019
     47  CG2      166.6000  123.2500  176.6030 C.3   221  ILE221      0.0020
     48  CD1      169.4090  122.6100  175.5890 C.3   221  ILE221      0.0001
     49  N        167.1570  126.5500  177.7710 N.am  222  ARG222     -0.1966
     50  CA       166.1950  127.4840  178.3460 C.3   222  ARG222      0.1729
     51  C        165.1040  127.8320  177.3360 C.2   222  ARG222      0.2617
     52  O        165.4020  128.1400  176.1860 O.2   222  ARG222     -0.2715
     53  CB       166.8890  128.7620  178.7990 C.3   222  ARG222      0.0348
     54  CG       167.9510  128.5660  179.8700 C.3   222  ARG222      0.0492
     55  CD       168.5090  129.8620  180.3350 C.3   222  ARG222      0.2205
     56  NE       169.5420  129.6780  181.3400 N.pl3 222  ARG222     -0.0865
     57  CZ       170.8590  129.5740  181.0730 C.cat 222  ARG222      0.5346
     58  NH1      171.2880  129.6370  179.8320 N.pl3 222  ARG222      0.1354
     59  NH2      171.7220  129.4090  182.0620 N.pl3 222  ARG222      0.1354
     60  N        163.8470  127.7810  177.7690 N.am  223  SER223     -0.1936
     61  CA       162.7190  128.1200  176.9010 C.3   223  SER223      0.2055
     62  C        161.5280  128.6270  177.7080 C.2   223  SER223      0.2643
     63  O        161.2870  128.1620  178.8170 O.2   223  SER223     -0.2714
     64  CB       162.3050  126.9100  176.0860 C.3   223  SER223      0.2130
     65  OG       161.1930  127.2010  175.2850 O.3   223  SER223     -0.2179
     66  N        160.7820  129.5760  177.1480 N.am  224  GLU224     -0.1963
     67  CA       159.6060  130.0990  177.8380 C.3   224  GLU224      0.1733
     68  C        158.6040  128.9800  178.1000 C.2   224  GLU224      0.2616
     69  O        157.8810  128.9930  179.1000 O.2   224  GLU224     -0.2715
     70  CB       158.9490  131.2100  177.0170 C.3   224  GLU224      0.0429
     71  CG       157.8380  131.9560  177.7440 C.3   224  GLU224      0.1163
     72  CD       157.2430  133.0640  176.9200 C.2   224  GLU224      0.3649
     73  OE1      157.6180  133.2010  175.7810 O.co2 224  GLU224     -0.2457
     74  OE2      156.4100  133.7750  177.4320 O.co2 224  GLU224     -0.2457
     75  N        158.5720  128.0070  177.1950 N.am  225  ASN225     -0.1958
     76  CA       157.6600  126.8750  177.2960 C.3   225  ASN225      0.1819
     77  C        158.1260  125.7450  176.3900 C.2   225  ASN225      0.2621
     78  O        157.8320  125.7380  175.1930 O.2   225  ASN225     -0.2715
     79  CB       156.2410  127.2920  176.9550 C.3   225  ASN225      0.1195
     80  CG       155.2500  126.1780  177.1480 C.2   225  ASN225      0.2630
     81  OD1      155.6030  124.9960  177.0760 O.2   225  ASN225     -0.2716
     82  ND2      154.0140  126.5310  177.3940 N.am  225  ASN225     -0.0877
     83  N        158.8580  124.7980  176.9600 N.am  226  ILE226     -0.1977
     84  CA       159.4770  123.7270  176.1880 C.3   226  ILE226      0.1596
     85  C        158.4410  122.9560  175.3700 C.2   226  ILE226      0.2287
     86  O        158.6940  122.5750  174.2260 O.2   226  ILE226     -0.2864
     87  CB       160.2310  122.7530  177.1120 C.3   226  ILE226      0.0276
     88  CG1      161.4600  123.4350  177.7180 C.3   226  ILE226      0.0022
     89  CG2      160.6330  121.5000  176.3490 C.3   226  ILE226      0.0022
     90  CD1      162.1130  122.6410  178.8260 C.3   226  ILE226      0.0001
     91  N        164.4060  116.2020  178.5970 N.3   300  HIS300     -0.1241
     92  CA       163.1580  116.9510  178.5680 C.3   300  HIS300      0.1621
     93  C        162.1610  116.3870  177.5560 C.2   300  HIS300      0.2264
     94  O        161.1510  117.0230  177.2520 O.2   300  HIS300     -0.2867
     95  CB       163.4330  118.4240  178.2500 C.3   300  HIS300      0.0745
     96  CG       164.2710  119.1160  179.2790 C.ar  300  HIS300      0.0817
     97  ND1      163.8120  119.3900  180.5500 N.ar  300  HIS300     -0.2268
     98  CD2      165.5380  119.5890  179.2250 C.ar  300  HIS300      0.1154
     99  CE1      164.7620  120.0030  181.2350 C.ar  300  HIS300      0.1986
    100  NE2      165.8180  120.1360  180.4530 N.ar  300  HIS300     -0.2212
@<TRIPOS>BOND
     1    86    85    2
     2    78    77    2
     3    65    64    1
     4    85    84    1
     5    48    46    1
     6    73    72   ar
     7    64    61    1
     8    52    51    2
     9    84    83    1
    10    84    87    1
    11    89    87    1
    12    77    83   am
    13    77    76    1
    14    47    45    1
    15    13    14   ar
    16    13    11   ar
    17    61    62    1
    18    61    60    1
    19    46    45    1
    20    72    74   ar
    21    72    71    1
    22    79    80    1
    23    79    76    1
    24    70    71    1
    25    70    67    1
    26    81    80    2
    27    87    88    1
    28    80    82   am
    29    66    62   am
    30    66    67    1
    31    14    12   ar
    32    75    76    1
    33    75    68   am
    34    94    93    2
    35    51    60   am
    36    51    50    1
    37    45    42    1
    38    93    92    1
    39    11     8   ar
    40    62    63    2
    41    88    90    1
    42    42    43    1
    43    42    41    1
    44    49    50    1
    45    49    43   am
    46    67    68    1
    47    68    69    2
    48    95    92    1
    49    95    96    1
    50    50    53    1
    51    43    44    2
    52    12    10   ar
    53    92    91    1
    54    53    54    1
    55     8    10   ar
    56     8     6   ar
    57    98    96   ar
    58    98   100   ar
    59    10     9   ar
    60    96    97   ar
    61     4     3    2
    62    58    57    1
    63    54    55    1
    64     6     5    1
    65     6     7   ar
    66     5     2    1
    67     2     3    1
    68     2     1    1
    69    55    56    1
    70   100    99   ar
    71     9     7   ar
    72    97    99   ar
    73    57    56    2
    74    57    59    1
    75    18    17    2
    76    17    16    1
    77    16    19    1
    78    16    15    1
    79    19    20    1
    80    23    24    1
    81    29    27    1
    82    20    22   am
    83    20    21    2
    84    27    24    1
    85    27    28    1
    86    24    25    1
    87    26    25    2
    88    25    30   am
    89    30    31    1
    90    31    32    1
    91    33    32    2
    92    32    34   am
    93    34    40    1
    94    34    35    1
    95    40    39    1
    96    37    36    2
    97    36    35    1
    98    35    38    1
    99    39    38    1
