@<TRIPOS>MOLECULE
tmp/5acoD08.pdb
 131 125 0 0 0
SMALL
GASTEIGER

@<TRIPOS>ATOM
      1  N        183.3200  152.2060  162.6230 N.3   158  SER158     -0.1217
      2  CA       183.3910  150.7570  162.5120 C.3   158  SER158      0.1889
      3  C        182.1330  150.1070  163.0760 C.2   158  SER158      0.2288
      4  O        181.1830  150.7960  163.4450 O.2   158  SER158     -0.2866
      5  CB       184.6150  150.2350  163.2390 C.3   158  SER158      0.2089
      6  OG       184.6800  148.8360  163.1750 O.3   158  SER158     -0.2183
      7  N        182.7230  147.0650  165.0490 N.3   160  GLU160     -0.1231
      8  CA       183.2730  146.1710  166.0660 C.3   160  GLU160      0.1684
      9  C        182.4790  146.2710  167.3610 C.2   160  GLU160      0.2434
     10  O        182.4170  147.3330  167.9770 O.2   160  GLU160     -0.2733
     11  CB       184.7450  146.4980  166.3290 C.3   160  GLU160      0.0402
     12  CG       185.3730  145.7020  167.4650 C.3   160  GLU160      0.1161
     13  CD       186.6070  146.3520  168.0220 C.2   160  GLU160      0.3649
     14  OE1      186.9750  147.3980  167.5400 O.co2 160  GLU160     -0.2457
     15  OE2      187.1830  145.8050  168.9330 O.co2 160  GLU160     -0.2457
     16  N        181.8640  145.1540  167.7790 N.am  161  PRO161     -0.2729
     17  CA       181.2020  145.0420  169.0820 C.3   161  PRO161      0.1401
     18  C        182.1410  145.3520  170.2470 C.2   161  PRO161      0.2269
     19  O        183.2110  144.7500  170.3530 O.2   161  PRO161     -0.2865
     20  CB       180.7520  143.5780  169.1060 C.3   161  PRO161      0.0296
     21  CG       180.6630  143.2010  167.6650 C.3   161  PRO161      0.0237
     22  CD       181.8240  143.9080  167.0210 C.3   161  PRO161      0.0939
     23  N        179.1640  142.3830  174.7760 N.3   201  LYS201     -0.1245
     24  CA       179.3260  142.8580  173.4080 C.3   201  LYS201      0.1561
     25  C        178.0090  142.7810  172.6430 C.2   201  LYS201      0.2260
     26  O        177.3390  141.7500  172.6530 O.2   201  LYS201     -0.2867
     27  CB       180.4060  142.0500  172.6850 C.3   201  LYS201      0.0271
     28  CG       181.8080  142.2240  173.2530 C.3   201  LYS201      0.0035
     29  CD       182.8170  141.3610  172.5100 C.3   201  LYS201      0.0206
     30  CE       184.2070  141.4860  173.1170 C.3   201  LYS201      0.1093
     31  NZ       185.1940  140.6070  172.4330 N.3   201  LYS201     -0.1314
     32  N        176.7140  141.9270  169.8890 N.3   203  VAL203     -0.1245
     33  CA       176.9130  141.1580  168.6680 C.3   203  VAL203      0.1561
     34  C        175.5830  140.8220  168.0050 C.2   203  VAL203      0.2260
     35  O        174.7380  140.1490  168.5970 O.2   203  VAL203     -0.2867
     36  CB       177.6740  139.8550  168.9760 C.3   203  VAL203      0.0252
     37  CG1      177.8350  139.0210  167.7130 C.3   203  VAL203      0.0019
     38  CG2      179.0300  140.1780  169.5850 C.3   203  VAL203      0.0019
     39  N        177.4130  134.3840  168.7190 N.3   210  LEU210     -0.1231
     40  CA       178.8630  134.5500  168.6210 C.3   210  LEU210      0.1693
     41  C        179.4520  135.3920  169.7510 C.2   210  LEU210      0.2592
     42  O        178.8530  136.3760  170.1840 O.2   210  LEU210     -0.2718
     43  CB       179.2170  135.1960  167.2750 C.3   210  LEU210      0.0284
     44  CG       178.7570  134.4300  166.0290 C.3   210  LEU210      0.0019
     45  CD1      179.0600  135.2540  164.7850 C.3   210  LEU210      0.0001
     46  CD2      179.4560  133.0800  165.9740 C.3   210  LEU210      0.0001
     47  N        180.6360  134.9860  170.2100 N.am  211  ASN211     -0.1974
     48  CA       181.3990  135.7180  171.2200 C.3   211  ASN211      0.1688
     49  C        180.5990  136.0660  172.4720 C.2   211  ASN211      0.2292
     50  O        180.7520  137.1500  173.0300 O.2   211  ASN211     -0.2864
     51  CB       181.9790  136.9800  170.6100 C.3   211  ASN211      0.1181
     52  CG       183.0080  136.6920  169.5510 C.2   211  ASN211      0.2629
     53  OD1      183.1780  135.5420  169.1320 O.2   211  ASN211     -0.2716
     54  ND2      183.6960  137.7150  169.1110 N.am  211  ASN211     -0.0877
     55  N        175.7600  137.6610  159.8440 N.3   324  PHE324     -0.1227
     56  CA       176.6370  138.2640  160.8440 C.3   324  PHE324      0.1736
     57  C        177.5780  139.2800  160.2070 C.2   324  PHE324      0.2595
     58  O        177.7990  139.2640  158.9960 O.2   324  PHE324     -0.2718
     59  CB       177.4510  137.1870  161.5630 C.3   324  PHE324      0.0547
     60  CG       178.4670  136.5110  160.6870 C.ar  324  PHE324     -0.0202
     61  CD1      179.7560  137.0110  160.5820 C.ar  324  PHE324     -0.0042
     62  CD2      178.1350  135.3730  159.9660 C.ar  324  PHE324     -0.0042
     63  CE1      180.6920  136.3880  159.7760 C.ar  324  PHE324     -0.0003
     64  CE2      179.0680  134.7480  159.1610 C.ar  324  PHE324     -0.0003
     65  CZ       180.3480  135.2570  159.0670 C.ar  324  PHE324     -0.0000
     66  N        178.1320  140.1630  161.0330 N.am  325  ASN325     -0.1960
     67  CA       179.0530  141.1870  160.5580 C.3   325  ASN325      0.1819
     68  C        180.4960  140.8420  160.9050 C.2   325  ASN325      0.2621
     69  O        180.8070  140.5080  162.0480 O.2   325  ASN325     -0.2715
     70  CB       178.6780  142.5430  161.1240 C.3   325  ASN325      0.1195
     71  CG       179.5810  143.6420  160.6360 C.2   325  ASN325      0.2630
     72  OD1      180.8070  143.4880  160.6070 O.2   325  ASN325     -0.2716
     73  ND2      178.9980  144.7500  160.2530 N.am  325  ASN325     -0.0877
     74  N        181.3770  140.9260  159.9130 N.am  326  CYS326     -0.1954
     75  CA       182.8110  140.8240  160.1530 C.3   326  CYS326      0.1843
     76  C        183.5630  141.9590  159.4680 C.2   326  CYS326      0.2626
     77  O        183.7200  141.9630  158.2460 O.2   326  CYS326     -0.2714
     78  CB       183.3440  139.4730  159.6670 C.3   326  CYS326      0.0997
     79  SG       185.1320  139.2770  159.8420 S.3   326  CYS326     -0.0797
     80  N        184.0210  142.9210  160.2610 N.am  327  GLY327     -0.1954
     81  CA       184.8460  144.0040  159.7550 C.3   327  GLY327      0.1869
     82  C        184.0780  145.0060  158.9160 C.2   327  GLY327      0.2309
     83  O        184.6670  145.7660  158.1490 O.2   327  GLY327     -0.2863
     84  N        184.9770  146.8900  151.8650 N.3   375  ILE375     -0.1231
     85  CA       186.2070  146.9600  152.6430 C.3   375  ILE375      0.1692
     86  C        187.3980  146.4840  151.8210 C.2   375  ILE375      0.2592
     87  O        187.4110  145.3550  151.3280 O.2   375  ILE375     -0.2718
     88  CB       186.0960  146.1190  153.9270 C.3   375  ILE375      0.0266
     89  CG1      184.8520  146.5220  154.7240 C.3   375  ILE375      0.0019
     90  CG2      187.3490  146.2760  154.7760 C.3   375  ILE375      0.0020
     91  CD1      184.8240  147.9810  155.1170 C.3   375  ILE375      0.0001
     92  N        188.4010  147.3460  151.6780 N.am  376  GLN376     -0.1966
     93  CA       189.5150  147.0780  150.7760 C.3   376  GLN376      0.1733
     94  C        190.3930  145.9460  151.3100 C.2   376  GLN376      0.2616
     95  O        190.6760  145.8780  152.5040 O.2   376  GLN376     -0.2715
     96  CB       190.3530  148.3420  150.5720 C.3   376  GLN376      0.0408
     97  CG       191.3890  148.2290  149.4660 C.3   376  GLN376      0.0908
     98  CD       191.9960  149.5720  149.1030 C.2   376  GLN376      0.2608
     99  OE1      191.4390  150.6270  149.4220 O.2   376  GLN376     -0.2717
    100  NE2      193.1420  149.5400  148.4310 N.am  376  GLN376     -0.0878
    101  N        190.8210  145.0630  150.4140 N.am  377  GLY377     -0.1955
    102  CA       191.7060  143.9740  150.7830 C.3   377  GLY377      0.1869
    103  C        191.0020  142.7070  151.2160 C.2   377  GLY377      0.2309
    104  O        189.7750  142.6620  151.3100 O.2   377  GLY377     -0.2863
    105  N        189.5140  139.9480  153.5100 N.3   379  ILE379     -0.1245
    106  CA       188.8910  139.9710  154.8300 C.3   379  ILE379      0.1561
    107  C        188.7210  138.5690  155.4000 C.2   379  ILE379      0.2260
    108  O        188.0610  137.7240  154.7960 O.2   379  ILE379     -0.2867
    109  CB       187.5190  140.6690  154.7720 C.3   379  ILE379      0.0252
    110  CG1      187.6540  142.0650  154.1590 C.3   379  ILE379      0.0019
    111  CG2      186.9050  140.7510  156.1620 C.3   379  ILE379      0.0019
    112  CD1      188.5920  142.9770  154.9190 C.3   379  ILE379      0.0001
    113  N        188.3750  136.4620  159.4490 N.3   381  CYS381     -0.1221
    114  CA       188.2750  136.5870  160.8990 C.3   381  CYS381      0.1808
    115  C        187.8120  135.2820  161.5410 C.2   381  CYS381      0.2601
    116  O        187.4120  134.3430  160.8500 O.2   381  CYS381     -0.2717
    117  CB       187.3040  137.7070  161.2720 C.3   381  CYS381      0.0970
    118  SG       185.6020  137.4210  160.7280 S.3   381  CYS381     -0.0800
    119  N        187.8760  135.2340  162.8660 N.am  382  VAL382     -0.1965
    120  CA       187.5580  134.0250  163.6120 C.3   382  VAL382      0.1727
    121  C        186.8130  134.3940  164.8890 C.2   382  VAL382      0.2616
    122  O        187.1020  135.4150  165.5110 O.2   382  VAL382     -0.2715
    123  CB       188.8400  133.2480  163.9630 C.3   382  VAL382      0.0290
    124  CG1      189.7370  134.0800  164.8680 C.3   382  VAL382      0.0023
    125  CG2      188.4800  131.9270  164.6270 C.3   382  VAL382      0.0023
    126  N        185.8480  133.5650  165.2760 N.am  383  SER383     -0.1950
    127  CA       185.0640  133.8340  166.4730 C.3   383  SER383      0.1924
    128  C        184.6260  132.5640  167.1940 C.2   383  SER383      0.2314
    129  O        184.8270  131.4510  166.7050 O.2   383  SER383     -0.2863
    130  CB       183.8430  134.6540  166.1080 C.3   383  SER383      0.2116
    131  OG       182.9600  133.9140  165.3110 O.3   383  SER383     -0.2180
@<TRIPOS>BOND
     1   100    98   am
     2    98    99    2
     3    98    97    1
     4    97    96    1
     5   101   102    1
     6   101    94   am
     7    96    93    1
     8    93    94    1
     9    93    92    1
    10   102   103    1
    11   103   104    2
    12    94    95    2
    13    87    86    2
    14    92    86   am
    15    86    85    1
    16    84    85    1
    17    85    88    1
    18   105   106    1
    19    88    89    1
    20    88    90    1
    21   110   109    1
    22   110   112    1
    23    89    91    1
    24   109   106    1
    25   109   111    1
    26   108   107    2
    27   106   107    1
    28    83    82    2
    29    77    76    2
    30    82    81    1
    31    58    57    2
    32    65    64   ar
    33    65    63   ar
    34    64    62   ar
    35   113   114    1
    36    76    75    1
    37    76    80   am
    38    78    79    1
    39    78    75    1
    40    81    80    1
    41    63    61   ar
    42    79   118    1
    43    55    56    1
    44    74    75    1
    45    74    68   am
    46    62    60   ar
    47    57    56    1
    48    57    66   am
    49    73    71   am
    50    67    68    1
    51    67    66    1
    52    67    70    1
    53    61    60   ar
    54    72    71    2
    55    71    70    1
    56    60    59    1
    57   118   117    1
    58    56    59    1
    59   116   115    2
    60   114   117    1
    61   114   115    1
    62    68    69    2
    63   115   119   am
    64     2     1    1
    65     2     3    1
    66     2     5    1
    67   119   120    1
    68     3     4    2
    69     6     5    1
    70   120   123    1
    71   120   121    1
    72   123   125    1
    73   123   124    1
    74    45    44    1
    75   121   126   am
    76   121   122    2
    77     7     8    1
    78   126   127    1
    79   131   130    1
    80    46    44    1
    81    44    43    1
    82     8    11    1
    83     8     9    1
    84   130   127    1
    85    11    12    1
    86   127   128    1
    87   129   128    2
    88    22    21    1
    89    22    16    1
    90    43    40    1
    91     9    16   am
    92     9    10    2
    93    12    13    1
    94    14    13   ar
    95    21    20    1
    96    37    36    1
    97    16    17    1
    98    34    35    2
    99    34    33    1
   100    13    15   ar
   101    40    39    1
   102    40    41    1
   103    33    36    1
   104    33    32    1
   105    36    38    1
   106    17    20    1
   107    17    18    1
   108    54    52   am
   109    53    52    2
   110    52    51    1
   111    41    42    2
   112    41    47   am
   113    47    48    1
   114    18    19    2
   115    51    48    1
   116    48    49    1
   117    31    30    1
   118    49    50    2
   119    29    30    1
   120    29    28    1
   121    25    26    2
   122    25    24    1
   123    27    28    1
   124    27    24    1
   125    24    23    1
