@<TRIPOS>MOLECULE
tmp/5acwA00.pdb
 123 122 0 0 0
SMALL
GASTEIGER

@<TRIPOS>ATOM
      1  N        -35.7520    6.0970   16.5770 N.3    32  PHE32      -0.1241
      2  CA       -37.0230    6.3220   15.9070 C.3    32  PHE32       0.1605
      3  C        -38.0200    5.2390   16.2880 C.2    32  PHE32       0.2264
      4  O        -37.8070    4.0590   16.0090 O.2    32  PHE32      -0.2867
      5  CB       -36.8560    6.3680   14.3900 C.3    32  PHE32       0.0534
      6  CG       -38.1590    6.2730   13.6460 C.ar   32  PHE32      -0.0203
      7  CD1      -39.1010    7.2860   13.7330 C.ar   32  PHE32      -0.0042
      8  CD2      -38.4600    5.1480   12.8960 C.ar   32  PHE32      -0.0042
      9  CE1      -40.3190    7.1870   13.0620 C.ar   32  PHE32      -0.0003
     10  CE2      -39.6650    5.0450   12.2200 C.ar   32  PHE32      -0.0003
     11  CZ       -40.5960    6.0650   12.3060 C.ar   32  PHE32      -0.0000
     12  N        -31.1820    3.4420   15.0400 N.3    37  TYR37      -0.1241
     13  CA       -30.6530    3.2850   13.6880 C.3    37  TYR37       0.1605
     14  C        -29.2750    3.9050   13.6010 C.2    37  TYR37       0.2264
     15  O        -29.0570    4.9930   14.1280 O.2    37  TYR37      -0.2867
     16  CB       -31.5690    3.9440   12.6360 C.3    37  TYR37       0.0534
     17  CG       -32.9490    3.3670   12.5800 C.ar   37  TYR37      -0.0201
     18  CD1      -33.9170    3.7280   13.5100 C.ar   37  TYR37      -0.0009
     19  CD2      -33.2910    2.4330   11.6050 C.ar   37  TYR37      -0.0009
     20  CE1      -35.1800    3.1830   13.4690 C.ar   37  TYR37       0.0417
     21  CE2      -34.5530    1.8860   11.5570 C.ar   37  TYR37       0.0417
     22  CZ       -35.4950    2.2660   12.4910 C.ar   37  TYR37       0.1957
     23  OH       -36.7580    1.7190   12.4550 O.3    37  TYR37      -0.2866
     24  N        -27.3260   13.6510   11.3590 N.3    57  TRP57      -0.1241
     25  CA       -28.7190   13.4020   11.7000 C.3    57  TRP57       0.1605
     26  C        -29.0920   14.1000   13.0070 C.2    57  TRP57       0.2264
     27  O        -29.4420   13.4570   13.9990 O.2    57  TRP57      -0.2867
     28  CB       -28.9800   11.8940   11.7810 C.3    57  TRP57       0.0550
     29  CG       -30.4120   11.5060   11.8120 C.ar   57  TRP57       0.0003
     30  CD1      -31.5050   12.3340   11.9390 C.ar   57  TRP57       0.0946
     31  CD2      -30.9260   10.1780   11.7040 C.ar   57  TRP57       0.0152
     32  NE1      -32.6500   11.6000   11.9090 N.ar   57  TRP57      -0.2442
     33  CE2      -32.3300   10.2710   11.7750 C.ar   57  TRP57       0.0810
     34  CE3      -30.3360    8.9180   11.5550 C.ar   57  TRP57       0.0012
     35  CZ2      -33.1530    9.1570   11.6900 C.ar   57  TRP57       0.0191
     36  CZ3      -31.1680    7.7930   11.4830 C.ar   57  TRP57       0.0001
     37  CH2      -32.5520    7.9270   11.5460 C.ar   57  TRP57       0.0015
     38  N        -29.6490   14.4820    0.1820 N.3    84  HIS84      -0.1241
     39  CA       -31.0470   14.7180   -0.1490 C.3    84  HIS84       0.1621
     40  C        -31.6930   15.4830    1.0010 C.2    84  HIS84       0.2264
     41  O        -31.0160   15.8380    1.9680 O.2    84  HIS84      -0.2867
     42  CB       -31.8240   13.3990   -0.5240 C.3    84  HIS84       0.0745
     43  CG       -32.1740   12.4990    0.6160 C.ar   84  HIS84       0.0817
     44  ND1      -31.3050   11.5460    1.0950 N.ar   84  HIS84      -0.2268
     45  CD2      -33.3240   12.3490    1.3190 C.ar   84  HIS84       0.1154
     46  CE1      -31.8910   10.8680    2.0650 C.ar   84  HIS84       0.1986
     47  NE2      -33.1140   11.3340    2.2220 N.ar   84  HIS84      -0.2212
     48  N        -34.0400   15.1390    3.3100 N.3    86  HIS86      -0.1226
     49  CA       -34.6260   14.6530    4.5490 C.3    86  HIS86       0.1752
     50  C        -33.7790   15.0670    5.7430 C.2    86  HIS86       0.2596
     51  O        -32.5840   15.3410    5.6300 O.2    86  HIS86      -0.2718
     52  CB       -34.7800   13.1450    4.5360 C.3    86  HIS86       0.0759
     53  CG       -35.8940   12.6470    3.6620 C.ar   86  HIS86       0.0818
     54  ND1      -35.9250   11.3600    3.1850 N.ar   86  HIS86      -0.2268
     55  CD2      -37.0230   13.2460    3.2080 C.ar   86  HIS86       0.1154
     56  CE1      -37.0150   11.1820    2.4590 C.ar   86  HIS86       0.1986
     57  NE2      -37.7050   12.3080    2.4620 N.ar   86  HIS86      -0.2212
     58  N        -34.4340   15.0580    6.8940 N.am   87  ASP87      -0.1960
     59  CA       -33.8710   15.5980    8.1290 C.3    87  ASP87       0.1840
     60  C        -32.5760   14.9080    8.5720 C.2    87  ASP87       0.2622
     61  O        -31.7340   15.5140    9.2230 O.2    87  ASP87      -0.2715
     62  CB       -34.9290   15.5070    9.2380 C.3    87  ASP87       0.1450
     63  CG       -34.6150   16.3960   10.4130 C.2    87  ASP87       0.3671
     64  OD1      -34.3770   17.6030   10.1880 O.co2  87  ASP87      -0.2456
     65  OD2      -34.6160   15.8860   11.5570 O.co2  87  ASP87      -0.2456
     66  N        -32.3890   13.6510    8.2180 N.am   88  ASP88      -0.1957
     67  CA       -31.1810   12.9560    8.6040 C.3    88  ASP88       0.1840
     68  C        -29.9790   13.3650    7.7670 C.2    88  ASP88       0.2621
     69  O        -28.8550   13.0560    8.1310 O.2    88  ASP88      -0.2715
     70  CB       -31.3800   11.4250    8.5410 C.3    88  ASP88       0.1450
     71  CG       -31.6120   10.8870    7.1280 C.2    88  ASP88       0.3671
     72  OD1      -32.3520   11.4980    6.3330 O.co2  88  ASP88      -0.2456
     73  OD2      -31.0760    9.7980    6.8440 O.co2  88  ASP88      -0.2456
     74  N        -30.2150   14.0500    6.6480 N.am   89  ARG89      -0.1977
     75  CA       -29.1550   14.5620    5.7890 C.3    89  ARG89       0.1597
     76  C        -28.9310   16.1000    5.8580 C.2    89  ARG89       0.2287
     77  O        -27.8250   16.5670    5.5640 O.2    89  ARG89      -0.2864
     78  CB       -29.4500   14.1790    4.3190 C.3    89  ARG89       0.0334
     79  CG       -29.6660   12.6800    4.1120 C.3    89  ARG89       0.0492
     80  CD       -28.4520   11.9160    4.5830 C.3    89  ARG89       0.2205
     81  NE       -28.6640   10.5260    4.9160 N.pl3  89  ARG89      -0.0865
     82  CZ       -27.7030    9.7500    5.3970 C.cat  89  ARG89       0.5346
     83  NH1      -26.5140   10.2570    5.6310 N.pl3  89  ARG89       0.1354
     84  NH2      -27.9190    8.4720    5.6510 N.pl3  89  ARG89       0.1354
     85  N        -34.5700    6.7000   -3.6810 N.3   149  HIS149     -0.1241
     86  CA       -35.0550    6.9090   -2.3100 C.3   149  HIS149      0.1621
     87  C        -35.8620    8.2140   -2.2200 C.2   149  HIS149      0.2264
     88  O        -36.8780    8.2860   -1.5040 O.2   149  HIS149     -0.2867
     89  CB       -33.8750    6.9370   -1.3330 C.3   149  HIS149      0.0745
     90  CG       -34.2310    7.4310    0.0400 C.ar  149  HIS149      0.0817
     91  ND1      -34.8940    6.6510    0.9600 N.ar  149  HIS149     -0.2268
     92  CD2      -34.0400    8.6330    0.6330 C.ar  149  HIS149      0.1154
     93  CE1      -35.0870    7.3460    2.0700 C.ar  149  HIS149      0.1986
     94  NE2      -34.5890    8.5560    1.8960 N.ar  149  HIS149     -0.2212
     95  N        -30.2630   -5.0910    5.4660 N.3   174  ARG174     -0.1245
     96  CA       -31.6170   -4.5850    5.2380 C.3   174  ARG174      0.1563
     97  C        -32.3150   -5.3900    4.1620 C.2   174  ARG174      0.2260
     98  O        -31.9400   -5.3360    2.9870 O.2   174  ARG174     -0.2867
     99  CB       -31.5790   -3.1210    4.8560 C.3   174  ARG174      0.0307
    100  CG       -32.9500   -2.5210    4.5990 C.3   174  ARG174      0.0489
    101  CD       -32.8560   -1.0040    4.4040 C.3   174  ARG174      0.2205
    102  NE       -33.1090   -0.2480    5.6310 N.pl3 174  ARG174     -0.0865
    103  CZ       -32.6790    0.9990    5.8460 C.cat 174  ARG174      0.5346
    104  NH1      -31.9570    1.6290    4.9260 N.pl3 174  ARG174      0.1354
    105  NH2      -32.9580    1.6240    6.9880 N.pl3 174  ARG174      0.1354
    106  N        -37.8360    3.5480    4.6070 N.3   179  ASN179     -0.1240
    107  CA       -38.8630    4.5610    4.4300 C.3   179  ASN179      0.1653
    108  C        -38.8400    4.9880    2.9890 C.2   179  ASN179      0.2266
    109  O        -37.8100    5.4180    2.4640 O.2   179  ASN179     -0.2867
    110  CB       -38.6770    5.7690    5.3410 C.3   179  ASN179      0.1155
    111  CG       -39.8720    6.7220    5.2760 C.2   179  ASN179      0.2627
    112  OD1      -40.8370    6.5820    6.0320 O.2   179  ASN179     -0.2716
    113  ND2      -39.8160    7.6830    4.3560 N.am  179  ASN179     -0.0877
    114  N        -27.1280    3.8680    5.5600 N.3   209  HIS209     -0.1241
    115  CA       -27.1880    3.2830    6.8860 C.3   209  HIS209      0.1621
    116  C        -26.5400    1.9120    6.8820 C.2   209  HIS209      0.2264
    117  O        -26.8380    1.0630    6.0360 O.2   209  HIS209     -0.2867
    118  CB       -28.6390    3.2170    7.3690 C.3   209  HIS209      0.0745
    119  CG       -29.3590    4.5260    7.2420 C.ar  209  HIS209      0.0817
    120  ND1      -29.3540    5.4800    8.2350 N.ar  209  HIS209     -0.2268
    121  CD2      -30.0730    5.0540    6.2210 C.ar  209  HIS209      0.1154
    122  CE1      -30.0570    6.5290    7.8440 C.ar  209  HIS209      0.1986
    123  NE2      -30.5060    6.2960    6.6250 N.ar  209  HIS209     -0.2212
@<TRIPOS>BOND
     1    85    86    1
     2    86    87    1
     3    86    89    1
     4    87    88    2
     5    89    90    1
     6    42    39    1
     7    42    43    1
     8    39    38    1
     9    39    40    1
    10    90    92   ar
    11    90    91   ar
    12    43    44   ar
    13    43    45   ar
    14    92    94   ar
    15    91    93   ar
    16    40    41    2
    17    44    46   ar
    18    45    47   ar
    19    94    93   ar
    20    46    47   ar
    21    56    57   ar
    22    56    54   ar
    23    57    55   ar
    24   109   108    2
    25    98    97    2
    26   108   107    1
    27    54    53   ar
    28    55    53   ar
    29    48    49    1
    30    53    52    1
    31    79    78    1
    32    79    80    1
    33    97    96    1
    34    78    75    1
    35   113   111   am
    36   101   100    1
    37   101   102    1
    38   107   106    1
    39   107   110    1
    40    52    49    1
    41    49    50    1
    42    80    81    1
    43   100    99    1
    44    99    96    1
    45    81    82    2
    46   104   103    1
    47    96    95    1
    48   111   110    1
    49   111   112    2
    50    82    83    1
    51    82    84    1
    52   114   115    1
    53    77    76    2
    54    51    50    2
    55   102   103    2
    56    50    58   am
    57    75    76    1
    58    75    74    1
    59   103   105    1
    60   117   116    2
    61   121   123   ar
    62   121   119   ar
    63    72    71   ar
    64   123   122   ar
    65    74    68   am
    66    73    71   ar
    67   116   115    1
    68   115   118    1
    69    58    59    1
    70    71    70    1
    71   119   118    1
    72   119   120   ar
    73    68    69    2
    74    68    67    1
    75   122   120   ar
    76    59    60    1
    77    59    62    1
    78    66    60   am
    79    66    67    1
    80    70    67    1
    81    60    61    2
    82    62    63    1
    83    64    63   ar
    84    63    65   ar
    85    24    25    1
    86    36    37   ar
    87    36    34   ar
    88    37    35   ar
    89    34    31   ar
    90    21    19   ar
    91    21    22   ar
    92    19    17   ar
    93    35    33   ar
    94    25    28    1
    95    25    26    1
    96    31    33   ar
    97    31    29   ar
    98    33    32   ar
    99    28    29    1
   100    29    30   ar
   101    32    30   ar
   102    10    11   ar
   103    10     8   ar
   104    11     9   ar
   105    23    22    1
   106    22    20   ar
   107    17    16    1
   108    17    18   ar
   109    16    13    1
   110     8     6   ar
   111    26    27    2
   112     9     7   ar
   113    20    18   ar
   114    14    13    1
   115    14    15    2
   116     6     7   ar
   117     6     5    1
   118    13    12    1
   119     5     2    1
   120     2     3    1
   121     2     1    1
   122     4     3    2
