@<TRIPOS>MOLECULE
tmp/5acxA00.pdb
 136 134 0 0 0
SMALL
GASTEIGER

@<TRIPOS>ATOM
      1  N        -35.6940    6.7910   16.2390 N.3    32  PHE32      -0.1241
      2  CA       -36.7950    6.8790   15.2930 C.3    32  PHE32       0.1605
      3  C        -37.8800    5.8870   15.6930 C.2    32  PHE32       0.2264
      4  O        -37.7920    4.6930   15.4030 O.2    32  PHE32      -0.2867
      5  CB       -36.3020    6.6100   13.8650 C.3    32  PHE32       0.0534
      6  CG       -36.6780    7.6750   12.8680 C.ar   32  PHE32      -0.0203
      7  CD1      -36.5380    9.0200   13.1700 C.ar   32  PHE32      -0.0042
      8  CD2      -37.1450    7.3230   11.6130 C.ar   32  PHE32      -0.0042
      9  CE1      -36.8780    9.9910   12.2480 C.ar   32  PHE32      -0.0003
     10  CE2      -37.4830    8.2890   10.6860 C.ar   32  PHE32      -0.0003
     11  CZ       -37.3490    9.6250   11.0030 C.ar   32  PHE32      -0.0000
     12  N        -31.3770    4.1280   15.0320 N.3    37  TYR37      -0.1241
     13  CA       -30.8110    3.8830   13.7140 C.3    37  TYR37       0.1605
     14  C        -29.4270    4.4970   13.6050 C.2    37  TYR37       0.2264
     15  O        -29.2090    5.6100   14.0790 O.2    37  TYR37      -0.2867
     16  CB       -31.7160    4.4600   12.6240 C.3    37  TYR37       0.0534
     17  CG       -33.0510    3.7750   12.5270 C.ar   37  TYR37      -0.0201
     18  CD1      -34.1080    4.1610   13.3350 C.ar   37  TYR37      -0.0009
     19  CD2      -33.2560    2.7340   11.6320 C.ar   37  TYR37      -0.0009
     20  CE1      -35.3320    3.5330   13.2540 C.ar   37  TYR37       0.0417
     21  CE2      -34.4790    2.1000   11.5440 C.ar   37  TYR37       0.0417
     22  CZ       -35.5140    2.5050   12.3580 C.ar   37  TYR37       0.1957
     23  OH       -36.7360    1.8800   12.2800 O.3    37  TYR37      -0.2866
     24  N        -27.1860   14.2080   11.4070 N.3    57  TRP57      -0.1241
     25  CA       -28.5900   14.0070   11.7490 C.3    57  TRP57       0.1605
     26  C        -28.9560   14.7170   13.0530 C.2    57  TRP57       0.2264
     27  O        -29.2580   14.0780   14.0610 O.2    57  TRP57      -0.2867
     28  CB       -28.8860   12.5050   11.8420 C.3    57  TRP57       0.0550
     29  CG       -30.3300   12.1370   11.8450 C.ar   57  TRP57       0.0003
     30  CD1      -31.4040   12.9770   11.9500 C.ar   57  TRP57       0.0946
     31  CD2      -30.8650   10.8150   11.7380 C.ar   57  TRP57       0.0152
     32  NE1      -32.5710   12.2560   11.9150 N.ar   57  TRP57      -0.2442
     33  CE2      -32.2680   10.9260   11.7840 C.ar   57  TRP57       0.0810
     34  CE3      -30.2900    9.5470   11.6040 C.ar   57  TRP57       0.0012
     35  CZ2      -33.1070    9.8170   11.7020 C.ar   57  TRP57       0.0191
     36  CZ3      -31.1270    8.4440   11.5260 C.ar   57  TRP57       0.0001
     37  CH2      -32.5180    8.5880   11.5740 C.ar   57  TRP57       0.0015
     38  N        -29.4620   14.7910    0.1650 N.3    84  HIS84      -0.1241
     39  CA       -30.8640   15.0910   -0.1440 C.3    84  HIS84       0.1621
     40  C        -31.4940   15.8420    1.0250 C.2    84  HIS84       0.2264
     41  O        -30.7970   16.2160    1.9590 O.2    84  HIS84      -0.2867
     42  CB       -31.6700   13.8260   -0.5180 C.3    84  HIS84       0.0745
     43  CG       -31.9170   12.8690    0.6050 C.ar   84  HIS84       0.0817
     44  ND1      -31.0110   11.8940    0.9630 N.ar   84  HIS84      -0.2268
     45  CD2      -32.9950   12.6930    1.4060 C.ar   84  HIS84       0.1154
     46  CE1      -31.5120   11.1740    1.9490 C.ar   84  HIS84       0.1986
     47  NE2      -32.7130   11.6390    2.2400 N.ar   84  HIS84      -0.2212
     48  N        -33.7700   15.3780    3.4670 N.3    86  HIS86      -0.1226
     49  CA       -34.2230   14.8370    4.7520 C.3    86  HIS86       0.1752
     50  C        -33.3430   15.2760    5.9260 C.2    86  HIS86       0.2596
     51  O        -32.1880   15.6550    5.7410 O.2    86  HIS86      -0.2718
     52  CB       -34.2790   13.3110    4.6870 C.3    86  HIS86       0.0759
     53  CG       -35.4110   12.7860    3.8610 C.ar   86  HIS86       0.0818
     54  ND1      -35.4730   11.4790    3.4260 N.ar   86  HIS86      -0.2268
     55  CD2      -36.5290   13.3900    3.3950 C.ar   86  HIS86       0.1154
     56  CE1      -36.5800   11.3020    2.7270 C.ar   86  HIS86       0.1986
     57  NE2      -37.2400   12.4450    2.6950 N.ar   86  HIS86      -0.2212
     58  N        -33.8980   15.1860    7.1360 N.am   87  ASP87      -0.1960
     59  CA       -33.2530   15.7110    8.3390 C.3    87  ASP87       0.1840
     60  C        -31.9170   15.0370    8.6560 C.2    87  ASP87       0.2622
     61  O        -31.0390   15.6440    9.2670 O.2    87  ASP87      -0.2715
     62  CB       -34.2040   15.5600    9.5330 C.3    87  ASP87       0.1450
     63  CG       -33.9560   16.5910   10.6230 C.2    87  ASP87       0.3671
     64  OD1      -33.6960   17.7690   10.2990 O.co2  87  ASP87      -0.2456
     65  OD2      -34.0420   16.2200   11.8120 O.co2  87  ASP87      -0.2456
     66  N        -31.7570   13.7830    8.2520 N.am   88  ASP88      -0.1971
     67  CA       -30.5020   13.0880    8.5220 C.3    88  ASP88       0.1709
     68  C        -29.4010   13.5330    7.5570 C.2    88  ASP88       0.2293
     69  O        -28.2650   13.0510    7.6330 O.2    88  ASP88      -0.2864
     70  CB       -30.6980   11.5710    8.4590 C.3    88  ASP88       0.1436
     71  CG       -31.1900   11.0900    7.1100 C.2    88  ASP88       0.3671
     72  OD1      -31.9900   11.7990    6.4590 O.co2  88  ASP88      -0.2456
     73  OD2      -30.7760    9.9810    6.7130 O.co2  88  ASP88      -0.2456
     74  N        -37.2800   22.1330    6.8460 N.3   118  ASN118     -0.1240
     75  CA       -35.9550   21.7390    7.3160 C.3   118  ASN118      0.1653
     76  C        -34.9290   22.8530    7.1360 C.2   118  ASN118      0.2266
     77  O        -35.2130   23.8860    6.5250 O.2   118  ASN118     -0.2867
     78  CB       -35.4680   20.4910    6.5780 C.3   118  ASN118      0.1155
     79  CG       -36.3070   19.2640    6.8770 C.2   118  ASN118      0.2627
     80  OD1      -37.1210   19.2520    7.8050 O.2   118  ASN118     -0.2716
     81  ND2      -36.1000   18.2120    6.0950 N.am  118  ASN118     -0.0877
     82  N        -34.5250    7.0100   -3.6350 N.3   149  HIS149     -0.1241
     83  CA       -34.9860    7.1980   -2.2660 C.3   149  HIS149      0.1621
     84  C        -35.7270    8.5280   -2.1280 C.2   149  HIS149      0.2264
     85  O        -36.6990    8.6440   -1.3730 O.2   149  HIS149     -0.2867
     86  CB       -33.7970    7.1430   -1.3050 C.3   149  HIS149      0.0745
     87  CG       -34.1010    7.6700    0.0610 C.ar  149  HIS149      0.0817
     88  ND1      -34.7820    6.9360    1.0080 N.ar  149  HIS149     -0.2268
     89  CD2      -33.8160    8.8600    0.6390 C.ar  149  HIS149      0.1154
     90  CE1      -34.9030    7.6510    2.1120 C.ar  149  HIS149      0.1986
     91  NE2      -34.3250    8.8230    1.9140 N.ar  149  HIS149     -0.2212
     92  N        -29.0830    0.7430    0.0140 N.3   170  TYR170     -0.1241
     93  CA       -29.3070    0.0210    1.2650 C.3   170  TYR170      0.1605
     94  C        -28.1190   -0.8520    1.6410 C.2   170  TYR170      0.2264
     95  O        -27.4260   -1.3860    0.7700 O.2   170  TYR170     -0.2867
     96  CB       -30.5450   -0.8730    1.1600 C.3   170  TYR170      0.0534
     97  CG       -31.8820   -0.1700    1.2200 C.ar  170  TYR170     -0.0201
     98  CD1      -31.9780    1.2120    1.2210 C.ar  170  TYR170     -0.0009
     99  CD2      -33.0570   -0.9060    1.2980 C.ar  170  TYR170     -0.0009
    100  CE1      -33.2120    1.8430    1.2810 C.ar  170  TYR170      0.0417
    101  CE2      -34.2880   -0.2880    1.3610 C.ar  170  TYR170      0.0417
    102  CZ       -34.3620    1.0850    1.3540 C.ar  170  TYR170      0.1957
    103  OH       -35.5950    1.6980    1.4180 O.3   170  TYR170     -0.2866
    104  N        -30.4270   -4.9510    5.4690 N.3   174  ARG174     -0.1245
    105  CA       -31.7430   -4.3650    5.2540 C.3   174  ARG174      0.1563
    106  C        -32.4450   -5.0520    4.0840 C.2   174  ARG174      0.2260
    107  O        -32.0870   -4.8270    2.9290 O.2   174  ARG174     -0.2867
    108  CB       -31.5940   -2.8710    4.9900 C.3   174  ARG174      0.0307
    109  CG       -32.8450   -2.0410    5.1660 C.3   174  ARG174      0.0489
    110  CD       -32.5020   -0.5990    4.8530 C.3   174  ARG174      0.2205
    111  NE       -33.5250    0.3530    5.2580 N.pl3 174  ARG174     -0.0865
    112  CZ       -33.4540    1.6570    5.0080 C.cat 174  ARG174      0.5346
    113  NH1      -32.4180    2.1590    4.3430 N.pl3 174  ARG174      0.1354
    114  NH2      -34.4200    2.4620    5.4150 N.pl3 174  ARG174      0.1354
    115  N        -37.4780    0.8370    3.6250 N.3   178  GLY178     -0.1210
    116  CA       -37.5900    1.6920    4.7920 C.3   178  GLY178      0.1956
    117  C        -38.6080    2.7850    4.5750 C.2   178  GLY178      0.2611
    118  O        -39.7480    2.5180    4.1950 O.2   178  GLY178     -0.2717
    119  N        -38.2160    4.0250    4.8570 N.am  179  ASN179     -0.1974
    120  CA       -39.0720    5.1610    4.5490 C.3   179  ASN179      0.1688
    121  C        -38.9650    5.4880    3.0770 C.2   179  ASN179      0.2292
    122  O        -37.9300    5.9590    2.6050 O.2   179  ASN179     -0.2864
    123  CB       -38.7170    6.3970    5.3720 C.3   179  ASN179      0.1181
    124  CG       -39.3940    7.6560    4.8420 C.2   179  ASN179      0.2629
    125  OD1      -40.6180    7.7110    4.7240 O.2   179  ASN179     -0.2716
    126  ND2      -38.5980    8.6660    4.5090 N.am  179  ASN179     -0.0877
    127  N        -27.2350    4.2720    5.6020 N.3   209  HIS209     -0.1241
    128  CA       -27.3130    3.6910    6.9390 C.3   209  HIS209      0.1621
    129  C        -26.7370    2.2870    6.9450 C.2   209  HIS209      0.2264
    130  O        -27.0820    1.4600    6.0990 O.2   209  HIS209     -0.2867
    131  CB       -28.7570    3.6530    7.4410 C.3   209  HIS209      0.0745
    132  CG       -29.4930    4.9430    7.2640 C.ar  209  HIS209      0.0817
    133  ND1      -29.4760    5.9520    8.2030 N.ar  209  HIS209     -0.2268
    134  CD2      -30.2860    5.3800    6.2590 C.ar  209  HIS209      0.1154
    135  CE1      -30.2180    6.9590    7.7790 C.ar  209  HIS209      0.1986
    136  NE2      -30.7180    6.6390    6.6000 N.ar  209  HIS209     -0.2212
@<TRIPOS>BOND
     1    82    83    1
     2    83    84    1
     3    83    86    1
     4    84    85    2
     5    86    87    1
     6    42    39    1
     7    42    43    1
     8    39    38    1
     9    39    40    1
    10    92    93    1
    11    87    89   ar
    12    87    88   ar
    13    43    44   ar
    14    43    45   ar
    15    89    91   ar
    16    95    94    2
    17    44    46   ar
    18    88    90   ar
    19    40    41    2
    20    96    97    1
    21    96    93    1
    22    97    98   ar
    23    97    99   ar
    24    98   100   ar
    25    93    94    1
    26   100   102   ar
    27    99   101   ar
    28   102   101   ar
    29   102   103    1
    30    45    47   ar
    31    91    90   ar
    32    46    47   ar
    33   122   121    2
    34    57    56   ar
    35    57    55   ar
    36    56    54   ar
    37   107   106    2
    38   121   120    1
    39    55    53   ar
    40    54    53   ar
    41    48    49    1
    42   115   116    1
    43    53    52    1
    44   106   105    1
    45   118   117    2
    46   113   112    1
    47   126   124   am
    48   120   119    1
    49   120   123    1
    50   117   116    1
    51   117   119   am
    52    52    49    1
    53   125   124    2
    54    49    50    1
    55   124   123    1
    56   110   109    1
    57   110   111    1
    58   108   109    1
    59   108   105    1
    60   112   111    2
    61   112   114    1
    62   105   104    1
    63   127   128    1
    64    51    50    2
    65    50    58   am
    66    81    79   am
    67   130   129    2
    68   134   136   ar
    69   134   132   ar
    70    72    71   ar
    71    77    76    2
    72    78    79    1
    73    78    75    1
    74   136   135   ar
    75    73    71   ar
    76    74    75    1
    77    79    80    2
    78   128   129    1
    79   128   131    1
    80    71    70    1
    81    76    75    1
    82    58    59    1
    83   132   131    1
    84   132   133   ar
    85    68    69    2
    86    68    67    1
    87   135   133   ar
    88    66    67    1
    89    66    60   am
    90    59    60    1
    91    59    62    1
    92    70    67    1
    93    60    61    2
    94    62    63    1
    95    64    63   ar
    96    63    65   ar
    97    10    11   ar
    98    10     8   ar
    99    11     9   ar
   100    24    25    1
   101    36    37   ar
   102    36    34   ar
   103    21    19   ar
   104    21    22   ar
   105    37    35   ar
   106    34    31   ar
   107     8     6   ar
   108    19    17   ar
   109    35    33   ar
   110    31    33   ar
   111    31    29   ar
   112    25    28    1
   113    25    26    1
   114    33    32   ar
   115    28    29    1
   116    29    30   ar
   117    32    30   ar
   118     9     7   ar
   119    23    22    1
   120    22    20   ar
   121    17    16    1
   122    17    18   ar
   123    16    13    1
   124     6     7   ar
   125     6     5    1
   126    26    27    2
   127    20    18   ar
   128    14    13    1
   129    14    15    2
   130    13    12    1
   131     5     2    1
   132     2     3    1
   133     2     1    1
   134     4     3    2
