@<TRIPOS>MOLECULE
tmp/5acyB00.pdb
 141 139 0 0 0
SMALL
GASTEIGER

@<TRIPOS>ATOM
      1  N         -5.3630   28.3740   23.1270 N.3    40  TRP40      -0.1228
      2  CA        -3.9500   28.7430   22.9410 C.3    40  TRP40       0.1722
      3  C         -3.1730   27.8900   21.9310 C.2    40  TRP40       0.2437
      4  O         -2.4320   28.4500   21.1140 O.2    40  TRP40      -0.2733
      5  CB        -3.2020   28.8520   24.2890 C.3    40  TRP40       0.0563
      6  CG        -3.2490   27.6330   25.1510 C.ar   40  TRP40       0.0003
      7  CD1       -4.2060   27.3110   26.0640 C.ar   40  TRP40       0.0946
      8  CD2       -2.2970   26.5670   25.1740 C.ar   40  TRP40       0.0152
      9  NE1       -3.9180   26.1050   26.6510 N.ar   40  TRP40      -0.2442
     10  CE2       -2.7470   25.6280   26.1240 C.ar   40  TRP40       0.0810
     11  CE3       -1.1040   26.3170   24.4860 C.ar   40  TRP40       0.0012
     12  CZ2       -2.0470   24.4600   26.4110 C.ar   40  TRP40       0.0191
     13  CZ3       -0.4040   25.1540   24.7730 C.ar   40  TRP40       0.0001
     14  CH2       -0.8790   24.2410   25.7290 C.ar   40  TRP40       0.0015
     15  N         -3.3520   26.5450   21.9570 N.am   41  PRO41      -0.2718
     16  CA        -2.5890   25.7190   21.0160 C.3    41  PRO41       0.1535
     17  C         -3.0150   25.8650   19.5550 C.2    41  PRO41       0.2598
     18  O         -2.2470   25.5520   18.6570 O.2    41  PRO41      -0.2715
     19  CB        -2.8410   24.2700   21.5030 C.3    41  PRO41       0.0310
     20  CG        -3.7230   24.3570   22.7080 C.3    41  PRO41       0.0237
     21  CD        -4.3340   25.7380   22.7060 C.3    41  PRO41       0.0939
     22  N         -4.2310   26.3360   19.3360 N.am   42  PHE42      -0.1974
     23  CA        -4.7840   26.5150   18.0080 C.3    42  PHE42       0.1639
     24  C         -4.6120   27.9440   17.4620 C.2    42  PHE42       0.2290
     25  O         -5.0360   28.2230   16.3370 O.2    42  PHE42      -0.2864
     26  CB        -6.2740   26.1670   18.0660 C.3    42  PHE42       0.0560
     27  CG        -6.5460   24.7860   18.6060 C.ar   42  PHE42      -0.0200
     28  CD1       -6.4190   23.6860   17.7880 C.ar   42  PHE42      -0.0042
     29  CD2       -6.9050   24.5920   19.9360 C.ar   42  PHE42      -0.0042
     30  CE1       -6.6550   22.4080   18.2800 C.ar   42  PHE42      -0.0003
     31  CE2       -7.1370   23.3230   20.4310 C.ar   42  PHE42      -0.0003
     32  CZ        -7.0210   22.2290   19.6010 C.ar   42  PHE42      -0.0000
     33  N         -1.8890   29.6430   16.5210 N.3    44  GLN44      -0.1231
     34  CA        -0.9210   29.8020   15.4230 C.3    44  GLN44       0.1683
     35  C         -0.6120   28.4410   14.8270 C.2    44  GLN44       0.2434
     36  O         -1.0160   27.4460   15.3820 O.2    44  GLN44      -0.2733
     37  CB         0.3620   30.5170   15.8750 C.3    44  GLN44       0.0380
     38  CG         0.6040   30.5940   17.3640 C.3    44  GLN44       0.0905
     39  CD         1.8230   31.4390   17.7000 C.2    44  GLN44       0.2608
     40  OE1        1.7650   32.6740   17.6900 O.2    44  GLN44      -0.2717
     41  NE2        2.9340   30.7800   18.0010 N.am   44  GLN44      -0.0878
     42  N          0.0760   28.4060   13.6700 N.am   45  PRO45      -0.2718
     43  CA         0.4460   27.1220   13.1000 C.3    45  PRO45       0.1535
     44  C          1.2340   26.2700   14.0820 C.2    45  PRO45       0.2598
     45  O          1.9590   26.7870   14.9350 O.2    45  PRO45      -0.2715
     46  CB         1.3230   27.5000   11.9010 C.3    45  PRO45       0.0310
     47  CG         0.8350   28.8520   11.4990 C.3    45  PRO45       0.0237
     48  CD         0.4010   29.5280   12.7690 C.3    45  PRO45       0.0939
     49  N          1.0820   24.9660   13.9460 N.am   46  VAL46      -0.1964
     50  CA         1.8320   24.0360   14.7560 C.3    46  VAL46       0.1727
     51  C          3.3140   24.2210   14.4120 C.2    46  VAL46       0.2616
     52  O          3.7180   24.1050   13.2560 O.2    46  VAL46      -0.2715
     53  CB         1.3600   22.5920   14.4860 C.3    46  VAL46       0.0290
     54  CG1        2.2490   21.5790   15.2040 C.3    46  VAL46       0.0023
     55  CG2       -0.0990   22.4240   14.9100 C.3    46  VAL46       0.0023
     56  N          4.1190   24.5600   15.4070 N.am   47  ASP47      -0.1971
     57  CA         5.5520   24.6840   15.1770 C.3    47  ASP47       0.1709
     58  C          6.1660   23.3360   15.5170 C.2    47  ASP47       0.2293
     59  O          6.5160   23.0780   16.6710 O.2    47  ASP47      -0.2864
     60  CB         6.1480   25.8080   16.0140 C.3    47  ASP47       0.1436
     61  CG         7.5760   26.1210   15.6270 C.2    47  ASP47       0.3671
     62  OD1        8.3250   25.1680   15.3710 O.co2  47  ASP47      -0.2456
     63  OD2        7.9500   27.3150   15.5810 O.co2  47  ASP47      -0.2456
     64  N          8.2190   22.0440   18.8690 N.3    51  LEU51      -0.1245
     65  CA         7.5690   20.9470   19.5970 C.3    51  LEU51       0.1561
     66  C          8.2930   19.6130   19.4260 C.2    51  LEU51       0.2260
     67  O          7.9850   18.6480   20.1280 O.2    51  LEU51      -0.2867
     68  CB         6.1080   20.7870   19.1580 C.3    51  LEU51       0.0270
     69  CG         5.1330   21.8700   19.6090 C.3    51  LEU51       0.0019
     70  CD1        3.7680   21.6620   18.9830 C.3    51  LEU51       0.0001
     71  CD2        5.0070   21.8860   21.1170 C.3    51  LEU51       0.0001
     72  N          8.2530   17.5200   16.7850 N.3    53  LEU53      -0.1245
     73  CA         7.3420   16.5570   16.2040 C.3    53  LEU53       0.1561
     74  C          7.6530   16.4740   14.7180 C.2    53  LEU53       0.2260
     75  O          6.8800   16.9750   13.9020 O.2    53  LEU53      -0.2867
     76  CB         5.9030   17.0240   16.4270 C.3    53  LEU53       0.0270
     77  CG         5.4580   17.1200   17.8890 C.3    53  LEU53       0.0019
     78  CD1        4.1150   17.8170   17.9800 C.3    53  LEU53       0.0001
     79  CD2        5.3860   15.7390   18.5260 C.3    53  LEU53       0.0001
     80  N          4.8370   15.6020   12.2520 N.3    56  TYR56      -0.1241
     81  CA         3.5630   16.3320   12.1900 C.3    56  TYR56       0.1605
     82  C          3.1530   16.6230   10.7490 C.2    56  TYR56       0.2264
     83  O          2.0200   16.3520   10.3410 O.2    56  TYR56      -0.2867
     84  CB         3.5800   17.6430   12.9930 C.3    56  TYR56       0.0534
     85  CG         2.2010   18.2650   13.0130 C.ar   56  TYR56      -0.0201
     86  CD1        1.2620   17.9000   13.9790 C.ar   56  TYR56      -0.0009
     87  CD2        1.8060   19.1560   12.0260 C.ar   56  TYR56      -0.0009
     88  CE1       -0.0250   18.4240   13.9690 C.ar   56  TYR56       0.0417
     89  CE2        0.5260   19.6960   12.0210 C.ar   56  TYR56       0.0417
     90  CZ        -0.3840   19.3330   12.9860 C.ar   56  TYR56       0.1957
     91  OH        -1.6560   19.8680   12.9580 O.3    56  TYR56      -0.2866
     92  N         -6.2270   17.9180   14.2920 N.3    95  CYS95      -0.1235
     93  CA        -6.0030   17.6050   15.6910 C.3    95  CYS95       0.1677
     94  C         -6.4140   16.1460   15.9520 C.2    95  CYS95       0.2270
     95  O         -5.6190   15.3750   16.4860 O.2    95  CYS95      -0.2867
     96  CB        -6.7550   18.5980   16.5680 C.3    95  CYS95       0.0956
     97  SG        -6.4010   18.4950   18.3320 S.3    95  CYS95      -0.0801
     98  N         -3.9710   13.5210   14.2160 N.3    98  TYR98      -0.1227
     99  CA        -2.6030   13.4650   14.6850 C.3    98  TYR98       0.1736
    100  C         -2.4630   13.0570   16.1450 C.2    98  TYR98       0.2595
    101  O         -1.4610   12.4710   16.5140 O.2    98  TYR98      -0.2718
    102  CB        -1.8910   14.8120   14.4740 C.3    98  TYR98       0.0548
    103  CG        -0.4530   14.7170   14.9030 C.ar   98  TYR98      -0.0200
    104  CD1        0.5010   14.1370   14.0620 C.ar   98  TYR98      -0.0009
    105  CD2       -0.0510   15.1340   16.1760 C.ar   98  TYR98      -0.0009
    106  CE1        1.8140   14.0110   14.4570 C.ar   98  TYR98       0.0417
    107  CE2        1.2620   15.0030   16.5850 C.ar   98  TYR98       0.0417
    108  CZ         2.1890   14.4390   15.7190 C.ar   98  TYR98       0.1957
    109  OH         3.4970   14.3130   16.0960 O.3    98  TYR98      -0.2866
    110  N         -3.4360   13.3900   16.9780 N.am   99  ASN99      -0.1974
    111  CA        -3.3130   13.1580   18.4230 C.3    99  ASN99       0.1688
    112  C         -4.1830   11.9820   18.8580 C.2    99  ASN99       0.2292
    113  O         -5.2790   11.7930   18.3290 O.2    99  ASN99      -0.2864
    114  CB        -3.7030   14.4140   19.1980 C.3    99  ASN99       0.1181
    115  CG        -2.8860   15.6340   18.7940 C.2    99  ASN99       0.2629
    116  OD1       -1.7360   15.7860   19.2010 O.2    99  ASN99      -0.2716
    117  ND2       -3.4830   16.5190   18.0020 N.am   99  ASN99      -0.0877
    118  N         -5.1650   15.1780   26.2640 N.3   104  ASP104     -0.1225
    119  CA        -5.7110   16.4720   26.6910 C.3   104  ASP104      0.1805
    120  C         -6.0220   17.3260   25.4650 C.2   104  ASP104      0.2597
    121  O         -7.1290   17.8390   25.3280 O.2   104  ASP104     -0.2718
    122  CB        -4.7480   17.1800   27.6400 C.3   104  ASP104      0.1424
    123  CG        -4.6680   16.5020   29.0070 C.2   104  ASP104      0.3668
    124  OD1       -5.6820   15.9320   29.4610 O.co2 104  ASP104     -0.2456
    125  OD2       -3.5860   16.5420   29.6280 O.co2 104  ASP104     -0.2456
    126  N         -5.0630   17.4270   24.5500 N.am  105  ILE105     -0.1980
    127  CA        -5.2530   18.2180   23.3270 C.3   105  ILE105      0.1595
    128  C         -6.5600   17.8980   22.5820 C.2   105  ILE105      0.2287
    129  O         -7.2160   18.8020   22.0760 O.2   105  ILE105     -0.2864
    130  CB        -4.0370   18.1200   22.3680 C.3   105  ILE105      0.0276
    131  CG1       -4.1620   19.1180   21.2100 C.3   105  ILE105      0.0022
    132  CG2       -3.8770   16.7070   21.8260 C.3   105  ILE105      0.0022
    133  CD1       -4.4090   20.5550   21.6210 C.3   105  ILE105      0.0001
    134  N         -9.5730   19.3100   24.3910 N.3   108  MET108     -0.1245
    135  CA        -9.5880   20.7420   24.1520 C.3   108  MET108      0.1570
    136  C        -10.2290   21.0190   22.7850 C.2   108  MET108      0.2261
    137  O        -11.0750   21.9090   22.6610 O.2   108  MET108     -0.2867
    138  CB        -8.1700   21.2960   24.2490 C.3   108  MET108      0.0387
    139  CG        -7.6090   21.2770   25.6680 C.3   108  MET108      0.0595
    140  SD        -5.8430   21.6220   25.7180 S.3   108  MET108     -0.1393
    141  CE        -5.8190   23.4140   25.6360 C.3   108  MET108      0.0692
@<TRIPOS>BOND
     1    83    82    2
     2    82    81    1
     3    47    46    1
     4    47    48    1
     5    46    43    1
     6    89    87   ar
     7    89    90   ar
     8    87    85   ar
     9    81    80    1
    10    81    84    1
    11    48    42    1
    12    91    90    1
    13    90    88   ar
    14    84    85    1
    15    85    86   ar
    16    43    42    1
    17    43    44    1
    18    52    51    2
    19    42    35   am
    20    75    74    2
    21    49    44   am
    22    49    50    1
    23    88    86   ar
    24   104   106   ar
    25   104   103   ar
    26    44    45    2
    27    98    99    1
    28    92    93    1
    29    51    50    1
    30    51    56   am
    31   106   108   ar
    32   102    99    1
    33   102   103    1
    34    53    50    1
    35    53    55    1
    36    53    54    1
    37    99   100    1
    38    74    73    1
    39    35    36    2
    40    35    34    1
    41   103   105   ar
    42    57    56    1
    43    57    58    1
    44    57    60    1
    45    62    61   ar
    46    34    37    1
    47    34    33    1
    48    58    59    2
    49    63    61   ar
    50    61    60    1
    51    93    94    1
    52    93    96    1
    53   108   109    1
    54   108   107   ar
    55    37    38    1
    56    94    95    2
    57   100   101    2
    58   100   110   am
    59   105   107   ar
    60    73    76    1
    61    73    72    1
    62    25    24    2
    63    76    77    1
    64    96    97    1
    65   110   111    1
    66    38    39    1
    67    24    23    1
    68    40    39    2
    69    39    41   am
    70    28    30   ar
    71    28    27   ar
    72    77    78    1
    73    77    79    1
    74   117   115   am
    75    23    26    1
    76    23    22    1
    77    26    27    1
    78    30    32   ar
    79   113   112    2
    80   111   112    1
    81   111   114    1
    82    27    29   ar
    83    18    17    2
    84   115   114    1
    85   115   116    2
    86    64    65    1
    87    70    69    1
    88    68    65    1
    89    68    69    1
    90    22    17   am
    91    66    65    1
    92    66    67    2
    93    17    16    1
    94    32    31   ar
    95    69    71    1
    96    29    31   ar
    97    16    19    1
    98    16    15    1
    99     4     3    2
   100   131   133    1
   101   131   130    1
   102    19    20    1
   103   132   130    1
   104     3    15   am
   105     3     2    1
   106    15    21    1
   107   129   128    2
   108   130   127    1
   109   128   127    1
   110   137   136    2
   111    21    20    1
   112   136   135    1
   113     2     1    1
   114     2     5    1
   115   127   126    1
   116   135   138    1
   117   135   134    1
   118   138   139    1
   119     5     6    1
   120    11    13   ar
   121    11     8   ar
   122   126   120   am
   123    13    14   ar
   124     6     8   ar
   125     6     7   ar
   126     8    10   ar
   127   121   120    2
   128   120   119    1
   129   141   140    1
   130   139   140    1
   131    14    12   ar
   132     7     9   ar
   133    10    12   ar
   134    10     9   ar
   135   118   119    1
   136   119   122    1
   137   122   123    1
   138   123   124   ar
   139   123   125   ar
