@<TRIPOS>MOLECULE
tmp/5aczA00.pdb
 72 68 0 0 0
SMALL
GASTEIGER

@<TRIPOS>ATOM
      1  N        -28.7570   14.7250  -19.7660 N.3    75  ASN75      -0.1240
      2  CA       -28.5370   14.8700  -18.3200 C.3    75  ASN75       0.1653
      3  C        -27.4870   15.9200  -17.9610 C.2    75  ASN75       0.2266
      4  O        -27.6310   16.6260  -16.9590 O.2    75  ASN75      -0.2867
      5  CB       -28.1650   13.5260  -17.6860 C.3    75  ASN75       0.1155
      6  CG       -29.3690   12.6330  -17.4340 C.2    75  ASN75       0.2627
      7  OD1      -30.5190   13.0760  -17.4660 O.2    75  ASN75      -0.2716
      8  ND2      -29.1020   11.3600  -17.1650 N.am   75  ASN75      -0.0877
      9  N        -28.7970   19.0490  -15.6710 N.3    79  LEU79      -0.1245
     10  CA       -28.2190   19.2990  -14.3430 C.3    79  LEU79       0.1561
     11  C        -27.3430   20.5500  -14.2500 C.2    79  LEU79       0.2260
     12  O        -27.1780   21.1050  -13.1600 O.2    79  LEU79      -0.2867
     13  CB       -27.4870   18.0570  -13.8050 C.3    79  LEU79       0.0270
     14  CG       -28.2720   16.7440  -13.6200 C.3    79  LEU79       0.0019
     15  CD1      -27.3940   15.6950  -12.9580 C.3    79  LEU79       0.0001
     16  CD2      -29.5700   16.9100  -12.8360 C.3    79  LEU79       0.0001
     17  N        -21.6270   13.2710  -15.1730 N.3    92  VAL92      -0.1245
     18  CA       -22.7240   12.4340  -14.6980 C.3    92  VAL92       0.1561
     19  C        -22.1610   11.0170  -14.5900 C.2    92  VAL92       0.2260
     20  O        -21.5410   10.5160  -15.5350 O.2    92  VAL92      -0.2867
     21  CB       -23.9590   12.5000  -15.6400 C.3    92  VAL92       0.0252
     22  CG1      -24.9000   11.3150  -15.4370 C.3    92  VAL92       0.0019
     23  CG2      -24.7120   13.8100  -15.4470 C.3    92  VAL92       0.0019
     24  N        -23.1640    6.9290  -13.3370 N.3    94  TRP94      -0.1241
     25  CA       -24.1550    5.9210  -12.9500 C.3    94  TRP94       0.1605
     26  C        -23.4800    4.6270  -12.5030 C.2    94  TRP94       0.2264
     27  O        -22.4860    4.1980  -13.0960 O.2    94  TRP94      -0.2867
     28  CB       -25.1260    5.6310  -14.0970 C.3    94  TRP94       0.0550
     29  CG       -26.3080    6.5550  -14.1690 C.ar   94  TRP94       0.0003
     30  CD1      -26.5200    7.5450  -15.0850 C.ar   94  TRP94       0.0946
     31  CD2      -27.4470    6.5660  -13.2970 C.ar   94  TRP94       0.0152
     32  NE1      -27.7160    8.1750  -14.8380 N.ar   94  TRP94      -0.2442
     33  CE2      -28.3070    7.5960  -13.7470 C.ar   94  TRP94       0.0810
     34  CE3      -27.8250    5.8070  -12.1780 C.ar   94  TRP94       0.0012
     35  CZ2      -29.5260    7.8910  -13.1140 C.ar   94  TRP94       0.0191
     36  CZ3      -29.0360    6.1050  -11.5430 C.ar   94  TRP94       0.0001
     37  CH2      -29.8740    7.1350  -12.0200 C.ar   94  TRP94       0.0015
     38  N        -26.7310    7.3540   -8.9040 N.3   112  ALA112     -0.1231
     39  CA       -26.0630    8.3690   -9.7220 C.3   112  ALA112      0.1694
     40  C        -25.2910    9.4130   -8.9180 C.2   112  ALA112      0.2591
     41  O        -25.5510    9.6220   -7.7300 O.2   112  ALA112     -0.2718
     42  CB       -27.0670    9.0580  -10.6370 C.3   112  ALA112      0.0304
     43  N        -24.3450   10.0670   -9.5930 N.am  113  ALA113     -0.1980
     44  CA       -23.5860   11.1770   -9.0260 C.3   113  ALA113      0.1597
     45  C        -23.3850   12.3000  -10.0370 C.2   113  ALA113      0.2287
     46  O        -23.1370   12.0500  -11.2210 O.2   113  ALA113     -0.2864
     47  CB       -22.2440   10.6940   -8.5080 C.3   113  ALA113      0.0319
     48  N        -25.9600   11.9970   -5.8900 N.3   119  PHE119     -0.1227
     49  CA       -27.1060   12.7620   -6.3590 C.3   119  PHE119      0.1736
     50  C        -28.4000   12.0160   -6.0380 C.2   119  PHE119      0.2595
     51  O        -29.2060   12.4970   -5.2350 O.2   119  PHE119     -0.2718
     52  CB       -26.9660   13.0540   -7.8600 C.3   119  PHE119      0.0547
     53  CG       -27.8900   14.1250   -8.3670 C.ar  119  PHE119     -0.0202
     54  CD1      -27.6820   15.4670   -8.0320 C.ar  119  PHE119     -0.0042
     55  CD2      -28.9560   13.8000   -9.2080 C.ar  119  PHE119     -0.0042
     56  CE1      -28.5320   16.4580   -8.5080 C.ar  119  PHE119     -0.0003
     57  CE2      -29.8090   14.7890   -9.6900 C.ar  119  PHE119     -0.0003
     58  CZ       -29.5930   16.1190   -9.3420 C.ar  119  PHE119     -0.0000
     59  N        -28.5850   10.8440   -6.6510 N.am  120  VAL120     -0.1980
     60  CA       -29.7440    9.9780   -6.3810 C.3   120  VAL120      0.1595
     61  C        -29.3550    8.5060   -6.2030 C.2   120  VAL120      0.2287
     62  O        -28.3380    8.0550   -6.7350 O.2   120  VAL120     -0.2864
     63  CB       -30.8730   10.0980   -7.4510 C.3   120  VAL120      0.0276
     64  CG1      -31.5710   11.4520   -7.3870 C.3   120  VAL120      0.0022
     65  CG2      -30.3670    9.7890   -8.8580 C.3   120  VAL120      0.0022
     66  N        -35.5350   15.6220   -9.8280 N.3   139  THR139     -0.1218
     67  CA       -35.2220   14.3240  -10.4360 C.3   139  THR139      0.1862
     68  C        -36.1370   13.2240   -9.8740 C.2   139  THR139      0.2287
     69  O        -36.6850   12.4210  -10.6370 O.2   139  THR139     -0.2866
     70  CB       -33.7290   13.9600  -10.2480 C.3   139  THR139      0.1770
     71  OG1      -32.9140   14.9540  -10.8800 O.3   139  THR139     -0.2211
     72  CG2      -33.3960   12.5840  -10.8400 C.3   139  THR139      0.0375
@<TRIPOS>BOND
     1     1     2    1
     2     2     3    1
     3     2     5    1
     4     3     4    2
     5     5     6    1
     6     7     6    2
     7     6     8   am
     8     9    10    1
     9    21    23    1
    10    21    22    1
    11    21    18    1
    12    20    19    2
    13    17    18    1
    14    30    32   ar
    15    30    29   ar
    16    32    33   ar
    17    18    19    1
    18    10    11    1
    19    10    13    1
    20    11    12    2
    21    29    28    1
    22    29    31   ar
    23    28    25    1
    24    13    14    1
    25    33    31   ar
    26    33    35   ar
    27    14    15    1
    28    14    16    1
    29    24    25    1
    30    31    34   ar
    31    35    37   ar
    32    27    26    2
    33    25    26    1
    34    34    36   ar
    35    37    36   ar
    36    46    45    2
    37    71    70    1
    38    72    70    1
    39    42    39    1
    40    69    68    2
    41    67    70    1
    42    67    68    1
    43    67    66    1
    44    45    44    1
    45    39    40    1
    46    39    38    1
    47    57    58   ar
    48    57    55   ar
    49    43    44    1
    50    43    40   am
    51    58    56   ar
    52    55    53   ar
    53    44    47    1
    54    40    41    2
    55    65    63    1
    56    56    54   ar
    57    53    54   ar
    58    53    52    1
    59    52    49    1
    60    63    64    1
    61    63    60    1
    62    62    61    2
    63    59    60    1
    64    59    50   am
    65    60    61    1
    66    49    50    1
    67    49    48    1
    68    50    51    2
