@<TRIPOS>MOLECULE
tmp/5ad1A00.pdb
 123 116 0 0 0
SMALL
GASTEIGER

@<TRIPOS>ATOM
      1  N         -8.4430   13.7030  -22.4620 N.3    60  ASN60      -0.1240
      2  CA        -9.3340   12.9800  -21.5850 C.3    60  ASN60       0.1653
      3  C         -8.7510   11.6330  -21.1880 C.2    60  ASN60       0.2266
      4  O         -9.5010   10.7040  -21.0050 O.2    60  ASN60      -0.2867
      5  CB       -10.7230   12.8240  -22.1760 C.3    60  ASN60       0.1155
      6  CG       -11.3590   14.1220  -22.5320 C.2    60  ASN60       0.2627
      7  OD1      -11.5200   14.4570  -23.7040 O.2    60  ASN60      -0.2716
      8  ND2      -11.7520   14.8480  -21.5740 N.am   60  ASN60      -0.0877
      9  N        -12.1640   13.5370  -26.4020 N.3    77  VAL77      -0.1231
     10  CA       -13.3270   12.8130  -26.8920 C.3    77  VAL77       0.1692
     11  C        -14.3960   13.6750  -27.5610 C.2    77  VAL77       0.2591
     12  O        -15.1210   13.2060  -28.4340 O.2    77  VAL77      -0.2718
     13  CB       -13.9410   11.8650  -25.8380 C.3    77  VAL77       0.0266
     14  CG1      -12.9030   10.7550  -25.5110 C.3    77  VAL77       0.0020
     15  CG2      -14.4630   12.5800  -24.6010 C.3    77  VAL77       0.0020
     16  N        -14.4440   14.9360  -27.0950 N.am   78  GLN78      -0.1979
     17  CA       -15.3080   15.9880  -27.6900 C.3    78  GLN78       0.1601
     18  C        -14.5750   17.0490  -28.5100 C.2    78  GLN78       0.2287
     19  O        -15.1710   18.0750  -28.9030 O.2    78  GLN78      -0.2864
     20  CB       -15.9730   16.7540  -26.5850 C.3    78  GLN78       0.0394
     21  CG       -16.8770   15.9020  -25.8760 C.3    78  GLN78       0.0908
     22  CD       -18.2200   15.6600  -26.5290 C.2    78  GLN78       0.2608
     23  OE1      -18.4950   16.2110  -27.5590 O.2    78  GLN78      -0.2717
     24  NE2      -19.0310   14.8540  -25.9350 N.am   78  GLN78      -0.0878
     25  N        -20.1060    6.5530  -29.1790 N.3    97  GLY97      -0.1210
     26  CA       -21.1890    7.4510  -29.4630 C.3    97  GLY97       0.1956
     27  C        -20.8420    8.9190  -29.5870 C.2    97  GLY97       0.2611
     28  O        -21.5320    9.6630  -30.3110 O.2    97  GLY97      -0.2717
     29  N        -19.8270    9.3830  -28.8570 N.am   98  ARG98      -0.1979
     30  CA       -19.4690   10.7920  -28.9670 C.3    98  ARG98       0.1597
     31  C        -18.9830   11.2090  -30.3500 C.2    98  ARG98       0.2287
     32  O        -19.0150   12.4110  -30.6950 O.2    98  ARG98      -0.2864
     33  CB       -18.3940   11.1760  -27.9270 C.3    98  ARG98       0.0334
     34  CG       -18.8900   11.2230  -26.5100 C.3    98  ARG98       0.0492
     35  CD       -17.7180   11.4930  -25.6010 C.3    98  ARG98       0.2205
     36  NE       -18.1040   11.6440  -24.1960 N.pl3  98  ARG98      -0.0865
     37  CZ       -18.0710   10.6650  -23.2940 C.cat  98  ARG98       0.5346
     38  NH1      -17.6470    9.4180  -23.6130 N.pl3  98  ARG98       0.1354
     39  NH2      -18.5110   10.9680  -22.0970 N.pl3  98  ARG98       0.1354
     40  N        -21.1640   11.4130  -34.8920 N.3   101  LYS101     -0.1245
     41  CA       -21.5210   12.5630  -35.6930 C.3   101  LYS101      0.1561
     42  C        -20.4070   12.9390  -36.6880 C.2   101  LYS101      0.2260
     43  O        -20.7010   13.7270  -37.6040 O.2   101  LYS101     -0.2867
     44  CB       -21.8660   13.7630  -34.7970 C.3   101  LYS101      0.0271
     45  CG       -20.7040   14.3550  -34.0210 C.3   101  LYS101      0.0035
     46  CD       -21.1030   15.4980  -33.0640 C.3   101  LYS101      0.0206
     47  CE       -21.9280   15.0580  -31.8760 C.3   101  LYS101      0.1093
     48  NZ       -21.2020   14.2230  -30.8880 N.3   101  LYS101     -0.1314
     49  N        -27.1780    5.3980  -19.5090 N.3   185  ARG185     -0.1245
     50  CA       -25.7330    5.2680  -19.6460 C.3   185  ARG185      0.1563
     51  C        -25.0230    4.7720  -18.3890 C.2   185  ARG185      0.2260
     52  O        -23.8630    4.3720  -18.4600 O.2   185  ARG185     -0.2867
     53  CB       -25.1270    6.5720  -20.0930 C.3   185  ARG185      0.0307
     54  CG       -25.2070    7.6820  -19.0460 C.3   185  ARG185      0.0489
     55  CD       -24.7380    9.0340  -19.5880 C.3   185  ARG185      0.2205
     56  NE       -23.3250    9.0120  -19.9810 N.pl3 185  ARG185     -0.0865
     57  CZ       -22.7390    9.9700  -20.7180 C.cat 185  ARG185      0.5346
     58  NH1      -23.4240   10.9760  -21.2020 N.pl3 185  ARG185      0.1354
     59  NH2      -21.4510    9.8570  -21.0580 N.pl3 185  ARG185      0.1354
     60  N        -29.0300   12.3260  -23.0300 N.3   206  THR206     -0.1203
     61  CA       -27.6160   11.9990  -22.9630 C.3   206  THR206      0.1994
     62  C        -27.0190   12.4900  -21.6260 C.2   206  THR206      0.2617
     63  O        -26.2230   11.7440  -21.0030 O.2   206  THR206     -0.2717
     64  CB       -26.8520   12.6050  -24.1290 C.3   206  THR206      0.1784
     65  OG1      -27.3690   12.0420  -25.3660 O.3   206  THR206     -0.2211
     66  CG2      -25.3830   12.3550  -24.0750 C.3   206  THR206      0.0376
     67  N        -27.3940   13.7040  -21.2130 N.am  207  HIS207     -0.1975
     68  CA       -26.8750   14.2860  -19.9850 C.3   207  HIS207      0.1656
     69  C        -27.8970   14.3480  -18.8580 C.2   207  HIS207      0.2291
     70  O        -27.6730   15.0460  -17.8580 O.2   207  HIS207     -0.2864
     71  CB       -26.1490   15.6070  -20.2380 C.3   207  HIS207      0.0771
     72  CG       -25.0140   15.4640  -21.2200 C.ar  207  HIS207      0.0820
     73  ND1      -25.1380   15.7040  -22.5560 N.ar  207  HIS207     -0.2267
     74  CD2      -23.7280   15.0920  -21.0330 C.ar  207  HIS207      0.1154
     75  CE1      -23.9840   15.4520  -23.1410 C.ar  207  HIS207      0.1986
     76  NE2      -23.1150   15.0860  -22.2410 N.ar  207  HIS207     -0.2212
     77  N        -19.7180   15.2880  -13.2770 N.3   229  ARG229     -0.1245
     78  CA       -19.2370   15.7170  -14.6160 C.3   229  ARG229      0.1563
     79  C        -18.3820   16.9600  -14.5700 C.2   229  ARG229      0.2260
     80  O        -17.5610   17.1860  -15.4840 O.2   229  ARG229     -0.2867
     81  CB       -20.4850   15.8910  -15.5180 C.3   229  ARG229      0.0307
     82  CG       -20.2050   16.2670  -16.9750 C.3   229  ARG229      0.0489
     83  CD       -21.5040   16.1990  -17.7520 C.3   229  ARG229      0.2205
     84  NE       -21.3500   16.5540  -19.1650 N.pl3 229  ARG229     -0.0865
     85  CZ       -21.7150   17.6980  -19.7180 C.cat 229  ARG229      0.5346
     86  NH1      -22.2600   18.6550  -18.9890 N.pl3 229  ARG229      0.1354
     87  NH2      -21.5820   17.8860  -21.0260 N.pl3 229  ARG229      0.1354
     88  N        -14.7500   16.1850  -15.2040 N.3   232  ILE232     -0.1231
     89  CA       -14.3760   15.8340  -16.5920 C.3   232  ILE232      0.1692
     90  C        -14.2590   17.1330  -17.4200 C.2   232  ILE232      0.2591
     91  O        -13.3360   17.2870  -18.1680 O.2   232  ILE232     -0.2718
     92  CB       -15.4140   14.9000  -17.1990 C.3   232  ILE232      0.0266
     93  CG1      -15.5630   13.6260  -16.3610 C.3   232  ILE232      0.0019
     94  CG2      -15.0550   14.5810  -18.6600 C.3   232  ILE232      0.0020
     95  CD1      -14.3160   12.8080  -16.1060 C.3   232  ILE232      0.0001
     96  N        -15.1730   18.0970  -17.1990 N.am  233  LEU233     -0.1980
     97  CA       -15.2300   19.3130  -17.9850 C.3   233  LEU233      0.1596
     98  C        -14.3120   20.3950  -17.4740 C.2   233  LEU233      0.2287
     99  O        -14.0430   21.3750  -18.1550 O.2   233  LEU233     -0.2864
    100  CB       -16.6690   19.8030  -18.0900 C.3   233  LEU233      0.0297
    101  CG       -17.4850   19.2380  -19.2700 C.3   233  LEU233      0.0022
    102  CD1      -17.5650   17.7230  -19.1990 C.3   233  LEU233      0.0001
    103  CD2      -18.8990   19.8840  -19.2840 C.3   233  LEU233      0.0001
    104  N        -18.3230    8.1150  -16.5650 N.3   268  TYR268     -0.1227
    105  CA       -18.7190    9.0100  -17.6300 C.3   268  TYR268      0.1736
    106  C        -17.9070    8.8850  -18.9380 C.2   268  TYR268      0.2595
    107  O        -18.4850    8.9900  -20.0010 O.2   268  TYR268     -0.2718
    108  CB       -18.6330   10.4530  -17.0920 C.3   268  TYR268      0.0548
    109  CG       -19.1960   11.5020  -18.0170 C.ar  268  TYR268     -0.0200
    110  CD1      -20.5700   11.6460  -18.1190 C.ar  268  TYR268     -0.0009
    111  CD2      -18.4050   12.3290  -18.7880 C.ar  268  TYR268     -0.0009
    112  CE1      -21.1190   12.5940  -18.9550 C.ar  268  TYR268      0.0417
    113  CE2      -18.9570   13.2620  -19.6530 C.ar  268  TYR268      0.0417
    114  CZ       -20.3200   13.4080  -19.7550 C.ar  268  TYR268      0.1957
    115  OH       -20.8340   14.3070  -20.6200 O.3   268  TYR268     -0.2866
    116  N        -16.6030    8.7060  -18.8020 N.am  269  LEU269     -0.1980
    117  CA       -15.7170    8.5810  -19.9720 C.3   269  LEU269      0.1596
    118  C        -15.6500    7.1530  -20.5570 C.2   269  LEU269      0.2287
    119  O        -16.0120    6.9370  -21.6970 O.2   269  LEU269     -0.2864
    120  CB       -14.3120    9.0900  -19.6930 C.3   269  LEU269      0.0297
    121  CG       -14.1710   10.5990  -19.5640 C.3   269  LEU269      0.0022
    122  CD1      -12.7180   10.8230  -19.2200 C.3   269  LEU269      0.0001
    123  CD2      -14.5320   11.3530  -20.8450 C.3   269  LEU269      0.0001
@<TRIPOS>BOND
     1    43    42    2
     2    42    41    1
     3    41    40    1
     4    41    44    1
     5    44    45    1
     6    45    46    1
     7    46    47    1
     8    47    48    1
     9    32    31    2
    10    31    30    1
    11    28    27    2
    12    27    26    1
    13    27    29   am
    14    26    25    1
    15    30    29    1
    16    30    33    1
    17    19    18    2
    18    18    17    1
    19    12    11    2
    20    33    34    1
    21    17    16    1
    22    17    20    1
    23    11    16   am
    24    11    10    1
    25    23    22    2
    26    10     9    1
    27    10    13    1
    28    20    21    1
    29    22    24   am
    30    22    21    1
    31    34    35    1
    32    13    14    1
    33    13    15    1
    34    35    36    1
    35    65    64    1
    36    36    37    2
    37    64    66    1
    38    64    61    1
    39     7     6    2
    40    38    37    1
    41    37    39    1
    42    75    73   ar
    43    75    76   ar
    44    60    61    1
    45    61    62    1
    46    73    72   ar
    47     6     5    1
    48     6     8   am
    49     1     2    1
    50    76    74   ar
    51     5     2    1
    52   119   118    2
    53    62    67   am
    54    62    63    2
    55     2     3    1
    56    72    74   ar
    57    72    71    1
    58    67    68    1
    59    58    57    1
    60     3     4    2
    61    59    57    1
    62    87    85    1
    63   123   121    1
    64    57    56    2
    65   115   114    1
    66   118   117    1
    67    71    68    1
    68    53    50    1
    69    53    54    1
    70   107   106    2
    71    68    69    1
    72    56    55    1
    73   117   120    1
    74   117   116    1
    75   114   113   ar
    76   114   112   ar
    77    85    84    2
    78    85    86    1
    79   120   121    1
    80   113   111   ar
    81    50    49    1
    82    50    51    1
    83    55    54    1
    84   121   122    1
    85   103   101    1
    86   101   102    1
    87   101   100    1
    88    84    83    1
    89   112   110   ar
    90   106   116   am
    91   106   105    1
    92    69    70    2
    93   111   109   ar
    94    94    92    1
    95    52    51    2
    96    91    90    2
    97    99    98    2
    98   110   109   ar
    99   100    97    1
   100   109   108    1
   101    97    98    1
   102    97    96    1
   103    83    82    1
   104   105   108    1
   105   105   104    1
   106    90    96   am
   107    90    89    1
   108    92    89    1
   109    92    93    1
   110    82    81    1
   111    89    88    1
   112    93    95    1
   113    81    78    1
   114    80    79    2
   115    78    79    1
   116    78    77    1
