@<TRIPOS>MOLECULE
tmp/5ad2B00.pdb
 117 114 0 0 0
SMALL
GASTEIGER

@<TRIPOS>ATOM
      1  N        -44.8660    1.3150  137.0800 N.3    40  TRP40      -0.1228
      2  CA       -43.4170    1.0510  137.2350 C.3    40  TRP40       0.1722
      3  C        -42.6970    1.9800  138.2070 C.2    40  TRP40       0.2437
      4  O        -41.9700    1.4780  139.0540 O.2    40  TRP40      -0.2733
      5  CB       -42.6420    1.0160  135.8920 C.3    40  TRP40       0.0563
      6  CG       -41.3740    0.2000  135.9610 C.ar   40  TRP40       0.0003
      7  CD1      -41.2240   -1.0980  135.5770 C.ar   40  TRP40       0.0946
      8  CD2      -40.0880    0.6200  136.4590 C.ar   40  TRP40       0.0152
      9  NE1      -39.9300   -1.5150  135.7990 N.ar   40  TRP40      -0.2442
     10  CE2      -39.2200   -0.4900  136.3670 C.ar   40  TRP40       0.0810
     11  CE3      -39.5880    1.8180  137.0030 C.ar   40  TRP40       0.0012
     12  CZ2      -37.8740   -0.4240  136.7470 C.ar   40  TRP40       0.0191
     13  CZ3      -38.2730    1.8520  137.4430 C.ar   40  TRP40       0.0001
     14  CH2      -37.4210    0.7600  137.2630 C.ar   40  TRP40       0.0015
     15  N        -42.8110    3.3180  138.1040 N.am   41  PRO41      -0.2718
     16  CA       -42.1090    4.1760  139.0810 C.3    41  PRO41       0.1535
     17  C        -42.5950    4.0490  140.5380 C.2    41  PRO41       0.2598
     18  O        -41.9390    4.5820  141.4020 O.2    41  PRO41      -0.2715
     19  CB       -42.3460    5.5980  138.5460 C.3    41  PRO41       0.0310
     20  CG       -42.8930    5.4290  137.1740 C.3    41  PRO41       0.0237
     21  CD       -43.6210    4.1330  137.1840 C.3    41  PRO41       0.0939
     22  N        -43.8050    3.4770  140.7860 N.am   42  PHE42      -0.1974
     23  CA       -44.4400    3.3610  142.1230 C.3    42  PHE42       0.1639
     24  C        -44.4000    1.9400  142.6770 C.2    42  PHE42       0.2290
     25  O        -44.9820    1.6870  143.7380 O.2    42  PHE42      -0.2864
     26  CB       -45.9010    3.8300  142.0200 C.3    42  PHE42       0.0560
     27  CG       -46.0030    5.2430  141.5040 C.ar   42  PHE42      -0.0200
     28  CD1      -45.8400    6.3200  142.3520 C.ar   42  PHE42      -0.0042
     29  CD2      -46.1900    5.4910  140.1570 C.ar   42  PHE42      -0.0042
     30  CE1      -45.8730    7.6230  141.8550 C.ar   42  PHE42      -0.0003
     31  CE2      -46.1730    6.7790  139.6630 C.ar   42  PHE42      -0.0003
     32  CZ       -46.0280    7.8380  140.5090 C.ar   42  PHE42      -0.0000
     33  N        -38.7820    4.9860  146.3140 N.3    46  VAL46      -0.1245
     34  CA       -38.0690    5.9560  145.5000 C.3    46  VAL46       0.1561
     35  C        -36.5530    5.7790  145.8110 C.2    46  VAL46       0.2260
     36  O        -36.1330    5.8810  146.9750 O.2    46  VAL46      -0.2867
     37  CB       -38.5590    7.4010  145.7670 C.3    46  VAL46       0.0252
     38  CG1      -37.6570    8.4350  145.0860 C.3    46  VAL46       0.0019
     39  CG2      -40.0130    7.5750  145.3180 C.3    46  VAL46       0.0019
     40  N        -32.0470    7.6210  140.8900 N.3    51  LEU51      -0.1245
     41  CA       -32.8090    8.6430  140.1640 C.3    51  LEU51       0.1561
     42  C        -32.1970   10.0280  140.2880 C.2    51  LEU51       0.2260
     43  O        -32.7080   10.9700  139.6700 O.2    51  LEU51      -0.2867
     44  CB       -34.2790    8.6610  140.5970 C.3    51  LEU51       0.0270
     45  CG       -35.0650    7.4650  140.0860 C.3    51  LEU51       0.0019
     46  CD1      -36.1510    7.0730  141.0620 C.3    51  LEU51       0.0001
     47  CD2      -35.6280    7.7340  138.6970 C.3    51  LEU51       0.0001
     48  N        -31.8220   12.3420  143.0150 N.3    53  LEU53      -0.1245
     49  CA       -32.7280   13.2610  143.7190 C.3    53  LEU53       0.1561
     50  C        -32.1950   13.4570  145.1520 C.2    53  LEU53       0.2260
     51  O        -32.8360   13.0370  146.1130 O.2    53  LEU53      -0.2867
     52  CB       -34.1420   12.6620  143.7510 C.3    53  LEU53       0.0270
     53  CG       -34.6950   12.1400  142.4390 C.3    53  LEU53       0.0019
     54  CD1      -35.8210   11.2060  142.6850 C.3    53  LEU53       0.0001
     55  CD2      -35.0960   13.2590  141.5320 C.3    53  LEU53       0.0001
     56  N        -34.7790   14.3920  147.8730 N.3    56  TYR56      -0.1241
     57  CA       -36.0380   13.6460  148.0110 C.3    56  TYR56       0.1605
     58  C        -36.3690   13.3350  149.4690 C.2    56  TYR56       0.2264
     59  O        -37.4650   13.6250  149.9110 O.2    56  TYR56      -0.2867
     60  CB       -36.0330   12.3470  147.1790 C.3    56  TYR56       0.0534
     61  CG       -37.3990   11.6850  147.1600 C.ar   56  TYR56      -0.0201
     62  CD1      -38.3620   12.0470  146.2150 C.ar   56  TYR56      -0.0009
     63  CD2      -37.7680   10.7750  148.1480 C.ar   56  TYR56      -0.0009
     64  CE1      -39.6440   11.5050  146.2500 C.ar   56  TYR56       0.0417
     65  CE2      -39.0610   10.2850  148.2310 C.ar   56  TYR56       0.0417
     66  CZ       -39.9940   10.6270  147.2670 C.ar   56  TYR56       0.1957
     67  OH       -41.2610   10.0820  147.3620 O.3    56  TYR56      -0.2866
     68  N        -45.6920   12.1550  145.8260 N.3    95  CYS95      -0.1235
     69  CA       -45.4440   12.4940  144.4400 C.3    95  CYS95       0.1677
     70  C        -45.8440   13.9590  144.1490 C.2    95  CYS95       0.2270
     71  O        -45.0520   14.7000  143.5840 O.2    95  CYS95      -0.2867
     72  CB       -46.1710   11.5300  143.5130 C.3    95  CYS95       0.0956
     73  SG       -45.7080   11.6950  141.7820 S.3    95  CYS95      -0.0801
     74  N        -43.3430   16.5210  146.1010 N.3    98  TYR98      -0.1227
     75  CA       -41.9920   16.6030  145.5860 C.3    98  TYR98       0.1736
     76  C        -41.8730   17.1720  144.1540 C.2    98  TYR98       0.2595
     77  O        -40.9000   17.8850  143.8330 O.2    98  TYR98      -0.2718
     78  CB       -41.3700   15.2070  145.6560 C.3    98  TYR98       0.0548
     79  CG       -39.9240   15.2300  145.2580 C.ar   98  TYR98      -0.0200
     80  CD1      -38.9780   15.8700  146.0520 C.ar   98  TYR98      -0.0009
     81  CD2      -39.5270   14.8010  144.0040 C.ar   98  TYR98      -0.0009
     82  CE1      -37.6610   15.9980  145.6440 C.ar   98  TYR98       0.0417
     83  CE2      -38.2100   14.9430  143.5730 C.ar   98  TYR98       0.0417
     84  CZ       -37.2840   15.5610  144.3890 C.ar   98  TYR98       0.1957
     85  OH       -35.9860   15.6870  143.9660 O.3    98  TYR98      -0.2866
     86  N        -42.8380   16.8120  143.2920 N.am   99  ASN99      -0.1974
     87  CA       -42.8150   17.1590  141.8720 C.3    99  ASN99       0.1688
     88  C        -43.6990   18.3670  141.5600 C.2    99  ASN99       0.2292
     89  O        -44.6080   18.6800  142.3090 O.2    99  ASN99      -0.2864
     90  CB       -43.2680   15.9280  141.0700 C.3    99  ASN99       0.1181
     91  CG       -42.3670   14.7450  141.3340 C.2    99  ASN99       0.2629
     92  OD1      -41.2330   14.7060  140.8830 O.2    99  ASN99      -0.2716
     93  ND2      -42.8360   13.7530  142.0710 N.am   99  ASN99      -0.0877
     94  N        -45.0180   14.8300  134.0750 N.3   104  ASP104     -0.1225
     95  CA       -45.5460   13.5200  133.6730 C.3   104  ASP104      0.1805
     96  C        -45.6370   12.5390  134.8420 C.2   104  ASP104      0.2597
     97  O        -46.6330   11.8670  134.9680 O.2   104  ASP104     -0.2718
     98  CB       -44.7260   12.9230  132.5510 C.3   104  ASP104      0.1424
     99  CG       -44.9610   13.5520  131.2050 C.2   104  ASP104      0.3668
    100  OD1      -46.0550   14.1630  131.0060 O.co2 104  ASP104     -0.2456
    101  OD2      -44.1600   13.3000  130.3080 O.co2 104  ASP104     -0.2456
    102  N        -44.6420   12.4940  135.7080 N.am  105  ILE105     -0.1980
    103  CA       -44.7150   11.6510  136.9190 C.3   105  ILE105      0.1595
    104  C        -45.9590   12.0090  137.7660 C.2   105  ILE105      0.2287
    105  O        -46.5820   11.1210  138.3290 O.2   105  ILE105     -0.2864
    106  CB       -43.3900   11.6620  137.7410 C.3   105  ILE105      0.0276
    107  CG1      -43.4040   10.5800  138.8160 C.3   105  ILE105      0.0022
    108  CG2      -43.0660   13.0490  138.3450 C.3   105  ILE105      0.0022
    109  CD1      -43.4810    9.1380  138.2790 C.3   105  ILE105      0.0001
    110  N        -49.0590   10.6870  135.9270 N.3   108  MET108     -0.1245
    111  CA       -49.0570    9.2440  136.1740 C.3   108  MET108      0.1570
    112  C        -49.6670    8.9170  137.5360 C.2   108  MET108      0.2261
    113  O        -50.5140    8.0200  137.6410 O.2   108  MET108     -0.2867
    114  CB       -47.6180    8.7200  136.1290 C.3   108  MET108      0.0387
    115  CG       -47.0430    8.6510  134.7210 C.3   108  MET108      0.0595
    116  SD       -45.2960    8.2580  134.7400 S.3   108  MET108     -0.1393
    117  CE       -45.3810    6.5670  134.8040 C.3   108  MET108      0.0692
@<TRIPOS>BOND
     1   101    99   ar
     2   100    99   ar
     3    99    98    1
     4    98    95    1
     5    95    94    1
     6    95    96    1
     7   115   116    1
     8   115   114    1
     9   116   117    1
    10    96    97    2
    11    96   102   am
    12     7     9   ar
    13     7     6   ar
    14   102   103    1
    15     9    10   ar
    16     5     6    1
    17     5     2    1
    18   110   111    1
    19     6     8   ar
    20   114   111    1
    21   111   112    1
    22    10     8   ar
    23    10    12   ar
    24     8    11   ar
    25    12    14   ar
    26   103   106    1
    27   103   104    1
    28    11    13   ar
    29     1     2    1
    30    20    21    1
    31    20    19    1
    32    21    15    1
    33     2     3    1
    34    14    13   ar
    35   112   113    2
    36   106   108    1
    37   106   107    1
    38   104   105    2
    39    15     3   am
    40    15    16    1
    41     3     4    2
    42   109   107    1
    43    19    16    1
    44    47    45    1
    45    16    17    1
    46    31    29   ar
    47    31    32   ar
    48    43    42    2
    49    45    44    1
    50    45    46    1
    51    29    27   ar
    52    41    42    1
    53    41    44    1
    54    41    40    1
    55    32    30   ar
    56    17    22   am
    57    17    18    2
    58    22    23    1
    59    92    91    2
    60    90    91    1
    61    90    87    1
    62    91    93   am
    63    27    26    1
    64    27    28   ar
    65    55    53    1
    66    88    87    1
    67    88    89    2
    68    73    72    1
    69    30    28   ar
    70    87    86    1
    71    26    23    1
    72    23    24    1
    73    53    54    1
    74    53    52    1
    75    24    25    2
    76    48    49    1
    77    86    76   am
    78    72    69    1
    79    83    81   ar
    80    83    84   ar
    81    71    70    2
    82    49    52    1
    83    49    50    1
    84    77    76    2
    85    85    84    1
    86    81    79   ar
    87    70    69    1
    88    76    75    1
    89    84    82   ar
    90    69    68    1
    91    38    37    1
    92    50    51    2
    93    79    78    1
    94    79    80   ar
    95    39    37    1
    96    34    37    1
    97    34    35    1
    98    34    33    1
    99    75    78    1
   100    75    74    1
   101    82    80   ar
   102    35    36    2
   103    62    64   ar
   104    62    61   ar
   105    64    66   ar
   106    61    60    1
   107    61    63   ar
   108    60    57    1
   109    66    67    1
   110    66    65   ar
   111    56    57    1
   112    57    58    1
   113    63    65   ar
   114    58    59    2
