@<TRIPOS>MOLECULE
tmp/5ad3B00.pdb
 149 146 0 0 0
SMALL
GASTEIGER

@<TRIPOS>ATOM
      1  N        141.5740  -46.1180    1.4720 N.3    39  TRP39      -0.1228
      2  CA       141.8320  -44.7340    1.0890 C.3    39  TRP39       0.1722
      3  C        142.7370  -43.9140    2.0420 C.2    39  TRP39       0.2437
      4  O        143.5510  -43.1470    1.4960 O.2    39  TRP39      -0.2733
      5  CB       140.5340  -43.9490    0.7880 C.3    39  TRP39       0.0563
      6  CG       139.5920  -43.8460    1.9310 C.ar   39  TRP39       0.0003
      7  CD1      138.5470  -44.6740    2.2210 C.ar   39  TRP39       0.0946
      8  CD2      139.6010  -42.8420    2.9360 C.ar   39  TRP39       0.0152
      9  NE1      137.9400  -44.2760    3.3870 N.ar   39  TRP39      -0.2442
     10  CE2      138.5360  -43.1220    3.8210 C.ar   39  TRP39       0.0810
     11  CE3      140.4400  -41.7530    3.2070 C.ar   39  TRP39       0.0012
     12  CZ2      138.2750  -42.3340    4.9400 C.ar   39  TRP39       0.0191
     13  CZ3      140.1330  -40.9330    4.2700 C.ar   39  TRP39       0.0001
     14  CH2      139.0910  -41.2470    5.1470 C.ar   39  TRP39       0.0015
     15  N        142.7370  -44.0560    3.3970 N.am   40  PRO40      -0.2718
     16  CA       143.6690  -43.2400    4.1860 C.3    40  PRO40       0.1535
     17  C        145.1110  -43.6970    4.0150 C.2    40  PRO40       0.2598
     18  O        145.9920  -42.9210    4.2610 O.2    40  PRO40      -0.2715
     19  CB       143.1920  -43.4250    5.6400 C.3    40  PRO40       0.0310
     20  CG       141.8210  -44.0500    5.5410 C.3    40  PRO40       0.0237
     21  CD       141.8670  -44.8600    4.2860 C.3    40  PRO40       0.0939
     22  N        145.3400  -44.9220    3.5540 N.am   41  PHE41      -0.1974
     23  CA       146.6880  -45.4950    3.4230 C.3    41  PHE41       0.1639
     24  C        147.2460  -45.4840    1.9560 C.2    41  PHE41       0.2290
     25  O        148.2830  -46.0640    1.6980 O.2    41  PHE41      -0.2864
     26  CB       146.6540  -46.9400    3.9670 C.3    41  PHE41       0.0560
     27  CG       146.0090  -47.0520    5.3280 C.ar   41  PHE41      -0.0200
     28  CD1      146.7270  -46.7650    6.4770 C.ar   41  PHE41      -0.0042
     29  CD2      144.6600  -47.3580    5.4550 C.ar   41  PHE41      -0.0042
     30  CE1      146.1080  -46.7560    7.7170 C.ar   41  PHE41      -0.0003
     31  CE2      144.0480  -47.3730    6.7030 C.ar   41  PHE41      -0.0003
     32  CZ       144.7730  -47.0780    7.8220 C.ar   41  PHE41      -0.0000
     33  N        148.3260  -42.7890    0.2470 N.3    43  GLN43      -0.1231
     34  CA       149.2770  -41.7000    0.0700 C.3    43  GLN43       0.1683
     35  C        149.9060  -41.4020    1.4180 C.2    43  GLN43       0.2434
     36  O        149.3440  -41.7680    2.4670 O.2    43  GLN43      -0.2733
     37  CB       148.5920  -40.4250   -0.5040 C.3    43  GLN43       0.0380
     38  CG       147.4190  -39.8470    0.3230 C.3    43  GLN43       0.0905
     39  CD       146.1750  -40.7180    0.2080 C.2    43  GLN43       0.2608
     40  OE1      145.7790  -41.1180   -0.8900 O.2    43  GLN43      -0.2717
     41  NE2      145.5940  -41.1330    1.3210 N.am   43  GLN43      -0.0878
     42  N        151.0680  -40.7160    1.4180 N.am   44  PRO44      -0.2718
     43  CA       151.6920  -40.3590    2.6910 C.3    44  PRO44       0.1535
     44  C        150.7330  -39.5660    3.5640 C.2    44  PRO44       0.2598
     45  O        149.8680  -38.8400    3.0400 O.2    44  PRO44      -0.2715
     46  CB       152.8730  -39.4850    2.2680 C.3    44  PRO44       0.0310
     47  CG       153.1940  -39.9160    0.8700 C.3    44  PRO44       0.0237
     48  CD       151.8690  -40.2420    0.2670 C.3    44  PRO44       0.0939
     49  N        150.9040  -39.6720    4.8770 N.am   45  VAL45      -0.1964
     50  CA       150.1040  -38.9010    5.8330 C.3    45  VAL45       0.1727
     51  C        150.4050  -37.4050    5.6130 C.2    45  VAL45       0.2616
     52  O        151.5260  -36.9550    5.8640 O.2    45  VAL45      -0.2715
     53  CB       150.3970  -39.3160    7.3070 C.3    45  VAL45       0.0290
     54  CG1      149.7280  -38.3470    8.3030 C.3    45  VAL45       0.0023
     55  CG2      149.9470  -40.7510    7.5610 C.3    45  VAL45       0.0023
     56  N        149.4340  -36.6670    5.0920 N.am   46  ASP46      -0.1971
     57  CA       149.5630  -35.2230    4.8990 C.3    46  ASP46       0.1709
     58  C        149.1360  -34.6130    6.2310 C.2    46  ASP46       0.2293
     59  O        147.9810  -34.2430    6.3800 O.2    46  ASP46      -0.2864
     60  CB       148.6640  -34.7120    3.7420 C.3    46  ASP46       0.1436
     61  CG       148.8870  -33.2540    3.3950 C.2    46  ASP46       0.3671
     62  OD1      149.3250  -32.4820    4.2980 O.co2  46  ASP46      -0.2456
     63  OD2      148.5350  -32.8500    2.2570 O.co2  46  ASP46      -0.2456
     64  N        145.5880  -32.7230    7.4020 N.3    50  LEU50      -0.1245
     65  CA       144.8420  -33.3820    8.4740 C.3    50  LEU50       0.1561
     66  C        144.9310  -32.6600    9.8250 C.2    50  LEU50       0.2260
     67  O        144.1610  -33.0080   10.7170 O.2    50  LEU50      -0.2867
     68  CB       145.2820  -34.8500    8.6290 C.3    50  LEU50       0.0270
     69  CG       145.0770  -35.7440    7.3950 C.3    50  LEU50       0.0019
     70  CD1      145.8350  -37.0370    7.5310 C.3    50  LEU50       0.0001
     71  CD2      143.5880  -36.0170    7.1420 C.3    50  LEU50       0.0001
     72  N        147.7330  -32.3310   12.1120 N.3    52  LEU52      -0.1245
     73  CA       148.3540  -33.2750   13.0550 C.3    52  LEU52       0.1561
     74  C        149.8310  -32.8960   13.1950 C.2    52  LEU52       0.2260
     75  O        150.7000  -33.6620   12.7810 O.2    52  LEU52      -0.2867
     76  CB       148.2320  -34.7200   12.5190 C.3    52  LEU52       0.0270
     77  CG       146.8190  -35.2320   12.2560 C.3    52  LEU52       0.0019
     78  CD1      146.8580  -36.4640   11.3970 C.3    52  LEU52       0.0001
     79  CD2      146.0700  -35.5070   13.5510 C.3    52  LEU52       0.0001
     80  N        152.5310  -35.5440   14.3920 N.3    55  TYR55      -0.1241
     81  CA       152.6340  -36.8120   13.6700 C.3    55  TYR55       0.1605
     82  C        154.0690  -37.1750   13.3360 C.2    55  TYR55       0.2264
     83  O        154.4980  -38.2750   13.6810 O.2    55  TYR55      -0.2867
     84  CB       151.7460  -36.8360   12.4030 C.3    55  TYR55       0.0534
     85  CG       151.7020  -38.1990   11.7660 C.ar   55  TYR55      -0.0201
     86  CD1      152.7140  -38.6190   10.9080 C.ar   55  TYR55      -0.0009
     87  CD2      150.7800  -39.1530   12.1850 C.ar   55  TYR55      -0.0009
     88  CE1      152.7440  -39.9100   10.3960 C.ar   55  TYR55       0.0417
     89  CE2      150.8250  -40.4590   11.7110 C.ar   55  TYR55       0.0417
     90  CZ       151.7840  -40.8250   10.7790 C.ar   55  TYR55       0.1957
     91  OH       151.8590  -42.1190   10.2790 O.3    55  TYR55      -0.2866
     92  N        153.8140  -49.3950    7.9350 N.3    90  MET90      -0.1245
     93  CA       152.5980  -48.6370    7.7080 C.3    90  MET90       0.1570
     94  C        151.5600  -48.9770    8.7930 C.2    90  MET90       0.2261
     95  O        150.9920  -48.0670    9.3690 O.2    90  MET90      -0.2867
     96  CB       152.0430  -48.9520    6.3130 C.3    90  MET90       0.0387
     97  CG       150.8120  -48.1640    5.9950 C.3    90  MET90       0.0595
     98  SD       150.0920  -48.6200    4.4370 S.3    90  MET90      -0.1393
     99  CE       149.4310  -50.2200    4.8490 C.3    90  MET90       0.0692
    100  N        150.3360  -46.4950   12.3460 N.3    94  CYS94      -0.1235
    101  CA       148.9420  -46.2410   12.6790 C.3    94  CYS94       0.1677
    102  C        148.6230  -46.5860   14.1350 C.2    94  CYS94       0.2270
    103  O        148.0530  -45.7610   14.8310 O.2    94  CYS94      -0.2867
    104  CB       148.0050  -46.9720   11.7280 C.3    94  CYS94       0.0956
    105  SG       146.2850  -46.5220   11.9490 S.3    94  CYS94      -0.0801
    106  N        150.6680  -44.0580   16.7470 N.3    97  TYR97      -0.1227
    107  CA       150.1540  -42.6910   16.7750 C.3    97  TYR97       0.1736
    108  C        148.7530  -42.5280   17.3290 C.2    97  TYR97       0.2595
    109  O        148.4820  -41.5660   18.0660 O.2    97  TYR97      -0.2718
    110  CB       150.1860  -42.0740   15.3710 C.3    97  TYR97       0.0548
    111  CG       149.8230  -40.6130   15.4160 C.ar   97  TYR97      -0.0200
    112  CD1      150.7030  -39.6780   15.9390 C.ar   97  TYR97      -0.0009
    113  CD2      148.5670  -40.1720   15.0090 C.ar   97  TYR97      -0.0009
    114  CE1      150.3710  -38.3360   16.0110 C.ar   97  TYR97       0.0417
    115  CE2      148.1980  -38.8400   15.1310 C.ar   97  TYR97       0.0417
    116  CZ       149.1040  -37.9180   15.6290 C.ar   97  TYR97       0.1957
    117  OH       148.7690  -36.5850   15.6870 O.3    97  TYR97      -0.2866
    118  N        147.8380  -43.3940   16.8980 N.am   98  ASN98      -0.1974
    119  CA       146.4170  -43.2770   17.2300 C.3    98  ASN98       0.1688
    120  C        146.0270  -44.0710   18.4530 C.2    98  ASN98       0.2292
    121  O        146.6620  -45.0700   18.7610 O.2    98  ASN98      -0.2864
    122  CB       145.5820  -43.6950   16.0520 C.3    98  ASN98       0.1181
    123  CG       145.8580  -42.8330   14.8550 C.2    98  ASN98       0.2629
    124  OD1      145.3010  -41.7480   14.6890 O.2    98  ASN98      -0.2716
    125  ND2      146.7930  -43.2550   14.0380 N.am   98  ASN98      -0.0877
    126  N        138.4620  -45.2660   14.7530 N.3   103  ASP103     -0.1225
    127  CA       138.0330  -45.6980   13.4110 C.3   103  ASP103      0.1805
    128  C        139.2500  -45.9820   12.5160 C.2   103  ASP103      0.2597
    129  O        139.2660  -46.9930   11.8190 O.2   103  ASP103     -0.2718
    130  CB       137.1430  -44.6260   12.7430 C.3   103  ASP103      0.1424
    131  CG       135.7580  -44.4890   13.3530 C.2   103  ASP103      0.3668
    132  OD1      135.2640  -45.4800   13.9400 O.co2 103  ASP103     -0.2456
    133  OD2      135.1440  -43.4170   13.1880 O.co2 103  ASP103     -0.2456
    134  N        140.2890  -45.1250   12.5620 N.am  104  ILE104     -0.1980
    135  CA       141.4380  -45.3440   11.7080 C.3   104  ILE104      0.1595
    136  C        142.2020  -46.6440   12.0960 C.2   104  ILE104      0.2287
    137  O        142.7430  -47.3090   11.2140 O.2   104  ILE104     -0.2864
    138  CB       142.3580  -44.0890   11.6240 C.3   104  ILE104      0.0276
    139  CG1      143.3660  -44.2100   10.4920 C.3   104  ILE104      0.0022
    140  CG2      143.0540  -43.7380   12.9430 C.3   104  ILE104      0.0022
    141  CD1      142.7950  -44.3660    9.1380 C.3   104  ILE104      0.0001
    142  N        140.1750  -49.4680   10.9230 N.3   107  MET107     -0.1245
    143  CA       140.3730  -49.5270    9.4780 C.3   107  MET107      0.1570
    144  C        141.6830  -50.2600    9.1530 C.2   107  MET107      0.2261
    145  O        141.6760  -51.1870    8.3430 O.2   107  MET107     -0.2867
    146  CB       140.3350  -48.1260    8.8490 C.3   107  MET107      0.0387
    147  CG       138.9300  -47.6220    8.6800 C.3   107  MET107      0.0595
    148  SD       138.8630  -45.8830    8.2480 S.3   107  MET107     -0.1393
    149  CE       139.1000  -46.0030    6.4370 C.3   107  MET107      0.0692
@<TRIPOS>BOND
     1    40    39    2
     2    37    34    1
     3    37    38    1
     4    34    33    1
     5    34    35    1
     6    39    38    1
     7    39    41   am
     8    48    47    1
     9    48    42    1
    10     5     2    1
    11     5     6    1
    12    47    46    1
    13     2     1    1
    14     2     3    1
    15    35    42   am
    16    35    36    2
    17    42    43    1
    18     4     3    2
    19    25    24    2
    20     6     7   ar
    21     6     8   ar
    22    24    23    1
    23     3    15   am
    24     7     9   ar
    25    63    61   ar
    26    46    43    1
    27    43    44    1
    28     8    11   ar
    29     8    10   ar
    30    45    44    2
    31    11    13   ar
    32     9    10   ar
    33    61    60    1
    34    61    62   ar
    35    15    16    1
    36    15    21    1
    37    23    22    1
    38    23    26    1
    39    22    17   am
    40    44    49   am
    41    60    57    1
    42    10    12   ar
    43    26    27    1
    44    17    16    1
    45    17    18    2
    46    16    19    1
    47    13    14   ar
    48    21    20    1
    49    98    99    1
    50    98    97    1
    51    49    50    1
    52    57    56    1
    53    57    58    1
    54    12    14   ar
    55    56    51   am
    56    27    29   ar
    57    27    28   ar
    58    29    31   ar
    59    20    19    1
    60    51    50    1
    61    51    52    2
    62    50    53    1
    63    97    96    1
    64    58    59    2
    65    96    93    1
    66   149   148    1
    67    28    30   ar
    68    31    32   ar
    69    71    69    1
    70    53    55    1
    71    53    54    1
    72    69    70    1
    73    69    68    1
    74    64    65    1
    75    93    92    1
    76    93    94    1
    77    30    32   ar
    78   148   147    1
    79   145   144    2
    80    65    68    1
    81    65    66    1
    82   147   146    1
    83    94    95    2
    84   146   143    1
    85   141   139    1
    86   144   143    1
    87   143   142    1
    88    66    67    2
    89    91    90    1
    90    88    90   ar
    91    88    86   ar
    92   139   138    1
    93    90    89   ar
    94    86    85   ar
    95   137   136    2
    96    78    77    1
    97   138   135    1
    98   138   140    1
    99   135   136    1
   100   135   134    1
   101    89    87   ar
   102   104   105    1
   103   104   101    1
   104    85    87   ar
   105    85    84    1
   106   129   128    2
   107    72    73    1
   108    77    76    1
   109    77    79    1
   110   100   101    1
   111    84    81    1
   112   128   134   am
   113   128   127    1
   114    76    73    1
   115   101   102    1
   116   130   131    1
   117   130   127    1
   118    75    74    2
   119    73    74    1
   120   133   131   ar
   121    82    81    1
   122    82    83    2
   123   131   132   ar
   124   127   126    1
   125    81    80    1
   126   125   123   am
   127   102   103    2
   128   124   123    2
   129   123   122    1
   130   113   115   ar
   131   113   111   ar
   132   115   116   ar
   133   110   111    1
   134   110   107    1
   135   111   112   ar
   136   116   117    1
   137   116   114   ar
   138   112   114   ar
   139   122   119    1
   140   106   107    1
   141   107   108    1
   142   118   119    1
   143   118   108   am
   144   119   120    1
   145   108   109    2
   146   120   121    2
