@<TRIPOS>MOLECULE
tmp/5ad5A02.pdb
 180 176 0 0 0
SMALL
GASTEIGER

@<TRIPOS>ATOM
      1  N          2.8790    8.8870   34.6960 N.3    38  MET38      -0.1230
      2  CA         3.3690    8.4930   33.3740 C.3    38  MET38       0.1702
      3  C          3.1850    9.6110   32.3260 C.2    38  MET38       0.2592
      4  O          4.1030    9.8920   31.5550 O.2    38  MET38      -0.2718
      5  CB         2.7160    7.1770   32.9130 C.3    38  MET38       0.0401
      6  CG         3.3660    6.5660   31.6520 C.3    38  MET38       0.0596
      7  SD         2.7450    4.9220   31.1940 S.3    38  MET38      -0.1393
      8  CE         3.2430    3.9260   32.6080 C.3    38  MET38       0.0692
      9  N          2.0230   10.2680   32.3280 N.am   39  LEU39      -0.1980
     10  CA         1.7090   11.2810   31.3090 C.3    39  LEU39       0.1596
     11  C          1.2610   12.6350   31.8580 C.2    39  LEU39       0.2287
     12  O          0.0710   12.9450   31.8290 O.2    39  LEU39      -0.2864
     13  CB         0.5970   10.7760   30.3840 C.3    39  LEU39       0.0297
     14  CG         0.6780    9.3580   29.8220 C.3    39  LEU39       0.0022
     15  CD1       -0.6640    8.9270   29.2500 C.3    39  LEU39       0.0001
     16  CD2        1.7550    9.2720   28.7640 C.3    39  LEU39       0.0001
     17  N         15.3870    7.5650   28.9080 N.3   106  CYS106     -0.1235
     18  CA        16.0820    6.5560   28.1040 C.3   106  CYS106      0.1677
     19  C         17.4050    6.1700   28.7330 C.2   106  CYS106      0.2270
     20  O         18.2890    7.0120   28.8960 O.2   106  CYS106     -0.2867
     21  CB        16.3290    7.0590   26.6660 C.3   106  CYS106      0.0956
     22  SG        17.3230    5.8590   25.7020 S.3   106  CYS106     -0.0801
     23  N         13.0350   -3.3080   18.6590 N.3   256  PRO256     -0.2116
     24  CA        12.0750   -2.4230   19.3160 C.3   256  PRO256      0.1372
     25  C         12.0180   -1.0980   18.5430 C.2   256  PRO256      0.2244
     26  O         12.9930   -0.3420   18.4900 O.2   256  PRO256     -0.2868
     27  CB        12.6660   -2.2400   20.7260 C.3   256  PRO256      0.0268
     28  CG        14.1670   -2.3560   20.5260 C.3   256  PRO256      0.0207
     29  CD        14.3840   -3.2040   19.2400 C.3   256  PRO256      0.0892
     30  N          9.7200    2.0690   18.3000 N.3   258  VAL258     -0.1245
     31  CA         8.6250    2.8890   18.7910 C.3   258  VAL258      0.1561
     32  C          8.1530    3.8550   17.7120 C.2   258  VAL258      0.2260
     33  O          8.9580    4.5810   17.1470 O.2   258  VAL258     -0.2867
     34  CB         9.0730    3.6620   20.0380 C.3   258  VAL258      0.0252
     35  CG1        8.0860    4.7760   20.3650 C.3   258  VAL258      0.0019
     36  CG2        9.1970    2.6970   21.1930 C.3   258  VAL258      0.0019
     37  N          4.8760    5.8080   17.7660 N.3   260  ASN260     -0.1225
     38  CA         3.7380    6.6630   18.0880 C.3   260  ASN260      0.1785
     39  C          4.1150    7.9740   18.7810 C.2   260  ASN260      0.2597
     40  O          3.2410    8.7310   19.1930 O.2   260  ASN260     -0.2718
     41  CB         2.7300    5.9040   18.9560 C.3   260  ASN260      0.1169
     42  CG         3.3410    5.4110   20.2570 C.2   260  ASN260      0.2627
     43  OD1        4.5180    5.6580   20.5390 O.2   260  ASN260     -0.2716
     44  ND2        2.5430    4.7130   21.0590 N.am  260  ASN260     -0.0877
     45  N          5.4080    8.2430   18.9100 N.am  261  MET261     -0.1979
     46  CA         5.8450    9.4900   19.5250 C.3   261  MET261      0.1605
     47  C          5.8950   10.6570   18.5480 C.2   261  MET261      0.2287
     48  O          5.9170   10.4660   17.3290 O.2   261  MET261     -0.2864
     49  CB         7.1860    9.2890   20.2200 C.3   261  MET261      0.0413
     50  CG         7.0830    8.1980   21.2620 C.3   261  MET261      0.0598
     51  SD         8.2530    8.4000   22.5890 S.3   261  MET261     -0.1393
     52  CE         7.5240    9.8090   23.4460 C.3   261  MET261      0.0692
     53  N         11.2720    5.3160   15.4350 N.3   275  PHE275     -0.1227
     54  CA        12.6830    5.1050   15.7290 C.3   275  PHE275      0.1736
     55  C         12.9050    3.7840   16.4690 C.2   275  PHE275      0.2596
     56  O         12.0230    3.2750   17.1620 O.2   275  PHE275     -0.2718
     57  CB        13.2380    6.2630   16.5350 C.3   275  PHE275      0.0547
     58  CG        12.5250    6.4740   17.8440 C.ar  275  PHE275     -0.0202
     59  CD1       12.8570    5.7230   18.9630 C.ar  275  PHE275     -0.0042
     60  CD2       11.5250    7.4230   17.9520 C.ar  275  PHE275     -0.0042
     61  CE1       12.2060    5.9330   20.1890 C.ar  275  PHE275     -0.0003
     62  CE2       10.8620    7.6320   19.1710 C.ar  275  PHE275     -0.0003
     63  CZ        11.2090    6.8930   20.2830 C.ar  275  PHE275     -0.0000
     64  N         14.1060    3.2490   16.3320 N.am  276  SER276     -0.1938
     65  CA        14.3860    1.9260   16.8100 C.3   276  SER276      0.2055
     66  C         15.8030    1.9210   17.3180 C.2   276  SER276      0.2644
     67  O         16.6480    2.6710   16.8320 O.2   276  SER276     -0.2714
     68  CB        14.2110    0.9040   15.6720 C.3   276  SER276      0.2130
     69  OG        15.2050    1.0980   14.6780 O.3   276  SER276     -0.2179
     70  N         16.0530    1.0970   18.3280 N.am  277  GLY277     -0.1939
     71  CA        17.3970    0.8530   18.7970 C.3   277  GLY277      0.2014
     72  C         17.5120   -0.6450   18.9480 C.2   277  GLY277      0.2639
     73  O         17.3480   -1.3880   17.9870 O.2   277  GLY277     -0.2714
     74  N         17.7990   -1.1050   20.1590 N.am  278  TRP278     -0.1959
     75  CA        17.7750   -2.5350   20.4240 C.3   278  TRP278      0.1771
     76  C         17.3220   -2.7150   21.8690 C.2   278  TRP278      0.2620
     77  O         17.3050   -1.7610   22.6320 O.2   278  TRP278     -0.2715
     78  CB        19.1400   -3.1870   20.2220 C.3   278  TRP278      0.0590
     79  CG        20.2260   -2.5310   20.9600 C.ar  278  TRP278      0.0006
     80  CD1       20.5190   -2.6610   22.2940 C.ar  278  TRP278      0.0946
     81  CD2       21.1870   -1.6260   20.4230 C.ar  278  TRP278      0.0152
     82  NE1       21.6050   -1.8870   22.6130 N.ar  278  TRP278     -0.2442
     83  CE2       22.0370   -1.2420   21.4830 C.ar  278  TRP278      0.0810
     84  CE3       21.4150   -1.1030   19.1420 C.ar  278  TRP278      0.0012
     85  CZ2       23.1020   -0.3560   21.3020 C.ar  278  TRP278      0.0191
     86  CZ3       22.4630   -0.2220   18.9670 C.ar  278  TRP278      0.0001
     87  CH2       23.2980    0.1400   20.0390 C.ar  278  TRP278      0.0015
     88  N         16.9590   -3.9370   22.2260 N.am  279  TYR279     -0.1960
     89  CA        16.3000   -4.1780   23.4990 C.3   279  TYR279      0.1771
     90  C         17.2680   -4.2330   24.6740 C.2   279  TYR279      0.2619
     91  O         18.4030   -4.7020   24.5510 O.2   279  TYR279     -0.2715
     92  CB        15.5630   -5.5160   23.4490 C.3   279  TYR279      0.0574
     93  CG        14.1180   -5.4490   23.0430 C.ar  279  TYR279     -0.0198
     94  CD1       13.2020   -4.7210   23.7890 C.ar  279  TYR279     -0.0009
     95  CD2       13.6600   -6.1320   21.9040 C.ar  279  TYR279     -0.0009
     96  CE1       11.8690   -4.6660   23.4300 C.ar  279  TYR279      0.0417
     97  CE2       12.3280   -6.0890   21.5400 C.ar  279  TYR279      0.0417
     98  CZ        11.4370   -5.3430   22.3100 C.ar  279  TYR279      0.1957
     99  OH        10.1040   -5.2820   21.9680 O.3   279  TYR279     -0.2866
    100  N         16.8010   -3.7680   25.8270 N.am  280  MET280     -0.1977
    101  CA        17.3740   -4.2100   27.0920 C.3   280  MET280      0.1605
    102  C         16.5530   -5.4360   27.4640 C.2   280  MET280      0.2287
    103  O         15.3310   -5.4220   27.3330 O.2   280  MET280     -0.2864
    104  CB        17.2430   -3.1050   28.1520 C.3   280  MET280      0.0413
    105  CG        17.8160   -3.5120   29.5200 C.3   280  MET280      0.0598
    106  SD        18.1130   -2.0610   30.5710 S.3   280  MET280     -0.1393
    107  CE        16.4370   -1.6540   31.0970 C.3   280  MET280      0.0692
    108  N         13.0550   -5.4890   29.2240 N.3   283  GLU283     -0.1245
    109  CA        11.8630   -4.9880   28.5410 C.3   283  GLU283      0.1567
    110  C         10.9640   -6.1260   28.0630 C.2   283  GLU283      0.2260
    111  O          9.7360   -6.0380   28.1320 O.2   283  GLU283     -0.2867
    112  CB        12.2500   -4.1230   27.3340 C.3   283  GLU283      0.0388
    113  CG        12.9180   -2.8110   27.7010 C.3   283  GLU283      0.1160
    114  CD        13.2440   -1.9840   26.4720 C.2   283  GLU283      0.3649
    115  OE1       12.3660   -1.2000   26.0540 O.co2 283  GLU283     -0.2457
    116  OE2       14.3640   -2.1330   25.9180 O.co2 283  GLU283     -0.2457
    117  N          8.8450   -7.0800   31.6830 N.3   287  ARG287     -0.1231
    118  CA         7.6230   -6.3680   31.3310 C.3   287  ARG287      0.1694
    119  C          6.7320   -7.1620   30.3680 C.2   287  ARG287      0.2592
    120  O          5.6320   -7.5700   30.7300 O.2   287  ARG287     -0.2718
    121  CB         7.9580   -4.9840   30.7610 C.3   287  ARG287      0.0321
    122  CG         8.8200   -4.1020   31.6940 C.3   287  ARG287      0.0489
    123  CD         8.2460   -4.0080   33.1270 C.3   287  ARG287      0.2205
    124  NE         6.8400   -3.6060   33.1210 N.pl3 287  ARG287     -0.0865
    125  CZ         6.4200   -2.3650   32.8800 C.cat 287  ARG287      0.5346
    126  NH1        7.2980   -1.3990   32.6320 N.pl3 287  ARG287      0.1354
    127  NH2        5.1190   -2.0900   32.8840 N.pl3 287  ARG287      0.1354
    128  N          7.2100   -7.3900   29.1490 N.am  288  ASP288     -0.1974
    129  CA         6.4110   -8.0780   28.1260 C.3   288  ASP288      0.1709
    130  C          5.8910   -9.4700   28.5370 C.2   288  ASP288      0.2293
    131  O          4.7630   -9.8360   28.1960 O.2   288  ASP288     -0.2864
    132  CB         7.1850   -8.1580   26.7960 C.3   288  ASP288      0.1436
    133  CG         7.3990   -6.7800   26.1520 C.2   288  ASP288      0.3671
    134  OD1        6.5340   -5.8930   26.3290 O.co2 288  ASP288     -0.2456
    135  OD2        8.4290   -6.5730   25.4680 O.co2 288  ASP288     -0.2456
    136  N          4.5900   -9.0790   33.2460 N.3   291  ASP291     -0.1239
    137  CA         3.5340   -8.1350   33.6170 C.3   291  ASP291      0.1674
    138  C          2.1950   -8.8670   33.6440 C.2   291  ASP291      0.2266
    139  O          1.9310   -9.7450   32.8040 O.2   291  ASP291     -0.2867
    140  CB         3.4470   -6.9670   32.6290 C.3   291  ASP291      0.1410
    141  CG         4.2550   -5.7490   33.0620 C.2   291  ASP291      0.3668
    142  OD1        5.0750   -5.8460   34.0050 O.co2 291  ASP291     -0.2456
    143  OD2        4.0690   -4.6790   32.4420 O.co2 291  ASP291     -0.2456
    144  N          0.0200   -8.2850   30.5910 N.3   294  ARG294     -0.1245
    145  CA         0.6890   -8.6840   29.3460 C.3   294  ARG294      0.1563
    146  C          0.6920  -10.2130   29.2120 C.2   294  ARG294      0.2260
    147  O         -0.3480  -10.8480   29.3820 O.2   294  ARG294     -0.2867
    148  CB         2.1120   -8.1150   29.2770 C.3   294  ARG294      0.0307
    149  CG         2.2020   -6.5970   29.3840 C.3   294  ARG294      0.0489
    150  CD         1.5990   -5.8890   28.1860 C.3   294  ARG294      0.2205
    151  NE         2.2540   -6.2460   26.9270 N.pl3 294  ARG294     -0.0865
    152  CZ         3.4450   -5.7880   26.5380 C.cat 294  ARG294      0.5346
    153  NH1        4.1360   -4.9590   27.3200 N.pl3 294  ARG294      0.1354
    154  NH2        3.9520   -6.1670   25.3640 N.pl3 294  ARG294      0.1354
    155  N         12.0850    5.7720   35.5160 N.3   369  TRP369     -0.1241
    156  CA        12.2070    4.9920   34.2880 C.3   369  TRP369      0.1605
    157  C         13.5910    4.4080   34.0790 C.2   369  TRP369      0.2264
    158  O         13.7300    3.3570   33.4570 O.2   369  TRP369     -0.2867
    159  CB        11.8340    5.8620   33.0720 C.3   369  TRP369      0.0550
    160  CG        10.3730    5.9290   32.9220 C.ar  369  TRP369      0.0003
    161  CD1        9.4850    6.5070   33.7880 C.ar  369  TRP369      0.0946
    162  CD2        9.5980    5.3770   31.8520 C.ar  369  TRP369      0.0152
    163  NE1        8.2030    6.3490   33.3120 N.ar  369  TRP369     -0.2442
    164  CE2        8.2460    5.6600   32.1270 C.ar  369  TRP369      0.0810
    165  CE3        9.9170    4.6820   30.6790 C.ar  369  TRP369      0.0012
    166  CZ2        7.2130    5.2750   31.2740 C.ar  369  TRP369      0.0191
    167  CZ3        8.8880    4.2970   29.8330 C.ar  369  TRP369      0.0001
    168  CH2        7.5530    4.5970   30.1370 C.ar  369  TRP369      0.0015
    169  N          4.7600   12.4020   23.8840 N.3   397  TYR397     -0.1241
    170  CA         3.6300   11.5370   23.6120 C.3   397  TYR397      0.1605
    171  C          2.6130   12.3440   22.8390 C.2   397  TYR397      0.2264
    172  O          2.6410   13.5770   22.8330 O.2   397  TYR397     -0.2867
    173  CB         2.9860   11.0340   24.9110 C.3   397  TYR397      0.0534
    174  CG         3.9290   10.2930   25.8200 C.ar  397  TYR397     -0.0201
    175  CD1        4.2490    8.9580   25.5950 C.ar  397  TYR397     -0.0009
    176  CD2        4.4960   10.9280   26.9160 C.ar  397  TYR397     -0.0009
    177  CE1        5.1150    8.2820   26.4480 C.ar  397  TYR397      0.0417
    178  CE2        5.3550   10.2650   27.7640 C.ar  397  TYR397      0.0417
    179  CZ         5.6620    8.9480   27.5300 C.ar  397  TYR397      0.1957
    180  OH         6.5190    8.3100   28.3990 O.3   397  TYR397     -0.2866
@<TRIPOS>BOND
     1    69    68    1
     2    53    54    1
     3    68    65    1
     4    54    55    1
     5    54    57    1
     6    64    55   am
     7    64    65    1
     8    55    56    2
     9    57    58    1
    10    65    66    1
    11    67    66    2
    12    33    32    2
    13    66    70   am
    14    48    47    2
    15    32    31    1
    16    37    38    1
    17    58    60   ar
    18    58    59   ar
    19    60    62   ar
    20    73    72    2
    21    38    39    1
    22    38    41    1
    23    30    31    1
    24    70    71    1
    25    26    25    2
    26    25    24    1
    27    47    46    1
    28    23    29    1
    29    23    24    1
    30    39    45   am
    31    39    40    2
    32    31    34    1
    33    71    72    1
    34    45    46    1
    35    72    74   am
    36    41    42    1
    37    59    61   ar
    38    86    84   ar
    39    86    87   ar
    40    84    81   ar
    41    62    63   ar
    42    29    28    1
    43    24    27    1
    44    46    49    1
    45    34    35    1
    46    34    36    1
    47    87    85   ar
    48    74    75    1
    49    61    63   ar
    50    49    50    1
    51    78    75    1
    52    78    79    1
    53    42    43    2
    54    42    44   am
    55    81    79   ar
    56    81    83   ar
    57    75    76    1
    58    28    27    1
    59    79    80   ar
    60    50    51    1
    61    85    83   ar
    62    83    82   ar
    63    97    95   ar
    64    97    98   ar
    65    76    88   am
    66    76    77    2
    67    95    93   ar
    68    99    98    1
    69    88    89    1
    70    80    82   ar
    71    98    96   ar
    72    51    52    1
    73   172   171    2
    74   171   170    1
    75    93    92    1
    76    93    94   ar
    77    96    94   ar
    78    92    89    1
    79    89    90    1
    80   170   169    1
    81   170   173    1
    82    91    90    2
    83    90   100   am
    84   173   174    1
    85   154   152    1
    86   135   133   ar
    87   175   174   ar
    88   175   177   ar
    89    22    21    1
    90   174   176   ar
    91   100   101    1
    92   116   114   ar
    93   115   114   ar
    94   133   134   ar
    95   133   132    1
    96   177   179   ar
    97   114   113    1
    98   152   151    2
    99   152   153    1
   100    21    18    1
   101   132   129    1
   102   176   178   ar
   103   151   150    1
   104   101   102    1
   105   101   104    1
   106   103   102    2
   107   112   113    1
   108   112   109    1
   109   179   178   ar
   110   179   180    1
   111   110   111    2
   112   110   109    1
   113    18    19    1
   114    18    17    1
   115   129   130    1
   116   129   128    1
   117   104   105    1
   118   150   149    1
   119   131   130    2
   120   109   108    1
   121    19    20    2
   122    16    14    1
   123   128   119   am
   124   146   145    1
   125   146   147    2
   126    15    14    1
   127   148   145    1
   128   148   149    1
   129   145   144    1
   130   105   106    1
   131    14    13    1
   132   167   168   ar
   133   167   165   ar
   134   168   166   ar
   135   119   120    2
   136   119   118    1
   137    13    10    1
   138   106   107    1
   139   165   162   ar
   140   121   118    1
   141   121   122    1
   142     7     6    1
   143     7     8    1
   144   166   164   ar
   145    10    11    1
   146    10     9    1
   147   118   117    1
   148     4     3    2
   149     6     5    1
   150   122   123    1
   151    12    11    2
   152   162   164   ar
   153   162   160   ar
   154   164   163   ar
   155     3     9   am
   156     3     2    1
   157   143   141   ar
   158   140   141    1
   159   140   137    1
   160   126   125    1
   161   139   138    2
   162   125   127    1
   163   125   124    2
   164     5     2    1
   165   160   159    1
   166   160   161   ar
   167   141   142   ar
   168   159   156    1
   169   124   123    1
   170   136   137    1
   171   163   161   ar
   172     2     1    1
   173   158   157    2
   174   137   138    1
   175   157   156    1
   176   156   155    1
