@<TRIPOS>MOLECULE
tmp/5ad8B03.pdb
 145 141 0 0 0
SMALL
GASTEIGER

@<TRIPOS>ATOM
      1  N         17.9540   12.2440   47.6250 N.3    38  MET38      -0.1230
      2  CA        17.7190   11.6000   48.9260 C.3    38  MET38       0.1702
      3  C         17.3300   12.5790   50.0460 C.2    38  MET38       0.2592
      4  O         16.3020   12.3940   50.7000 O.2    38  MET38      -0.2718
      5  CB        18.9150   10.7440   49.3670 C.3    38  MET38       0.0401
      6  CG        18.7090   10.1030   50.7620 C.3    38  MET38       0.0596
      7  SD        20.0840    9.0960   51.3830 S.3    38  MET38      -0.1393
      8  CE        20.1690    7.8070   50.1320 C.3    38  MET38       0.0692
      9  N         18.1370   13.6150   50.2630 N.am   39  LEU39      -0.1980
     10  CA        17.8470   14.5520   51.3530 C.3    39  LEU39       0.1596
     11  C         18.0080   16.0150   50.9700 C.2    39  LEU39       0.2287
     12  O         19.0170   16.6360   51.2930 O.2    39  LEU39      -0.2864
     13  CB        18.6510   14.2180   52.6210 C.3    39  LEU39       0.0297
     14  CG        20.0140   13.5190   52.5380 C.3    39  LEU39       0.0022
     15  CD1       21.1490   14.5300   52.4370 C.3    39  LEU39       0.0001
     16  CD2       20.2480   12.5500   53.7100 C.3    39  LEU39       0.0001
     17  N          7.2830    5.5800   53.3940 N.3   108  CYS108     -0.1235
     18  CA         7.0950    4.3490   54.1730 C.3   108  CYS108      0.1677
     19  C          6.0320    3.4200   53.5910 C.2   108  CYS108      0.2270
     20  O          4.8680    3.7960   53.4580 O.2   108  CYS108     -0.2867
     21  CB         6.7590    4.6680   55.6380 C.3   108  CYS108      0.0956
     22  SG         6.3880    3.1950   56.6140 S.3   108  CYS108     -0.0801
     23  N         22.2830    5.8550   64.3990 N.3   170  SER170     -0.1202
     24  CA        21.2920    5.9390   63.3310 C.3   170  SER170      0.2020
     25  C         20.1420    4.9410   63.5760 C.2   170  SER170      0.2618
     26  O         18.9900    5.2140   63.2420 O.2   170  SER170     -0.2717
     27  CB        21.9520    5.6830   61.9710 C.3   170  SER170      0.2103
     28  OG        22.6310    4.4410   61.9920 O.3   170  SER170     -0.2182
     29  N         20.4620    3.7880   64.1660 N.am  171  GLN171     -0.1979
     30  CA        19.4490    2.8190   64.6070 C.3   171  GLN171      0.1601
     31  C         19.8500    2.3140   65.9860 C.2   171  GLN171      0.2287
     32  O         21.0430    2.2390   66.2650 O.2   171  GLN171     -0.2864
     33  CB        19.3540    1.6300   63.6370 C.3   171  GLN171      0.0394
     34  CG        18.6960    1.9020   62.2940 C.3   171  GLN171      0.0908
     35  CD        18.8160    0.7100   61.3440 C.2   171  GLN171      0.2608
     36  OE1       18.7160   -0.4480   61.7630 O.2   171  GLN171     -0.2717
     37  NE2       19.0460    0.9930   60.0620 N.am  171  GLN171     -0.0878
     38  N         14.2520   -3.5080   63.6190 N.3   258  PRO258     -0.2116
     39  CA        14.6970   -2.2650   62.9740 C.3   258  PRO258      0.1372
     40  C         14.1730   -1.0570   63.7610 C.2   258  PRO258      0.2244
     41  O         12.9540   -0.8730   63.8770 O.2   258  PRO258     -0.2868
     42  CB        14.0290   -2.3250   61.5950 C.3   258  PRO258      0.0268
     43  CG        12.7540   -3.1290   61.8400 C.3   258  PRO258      0.0207
     44  CD        13.1030   -4.1250   62.9280 C.3   258  PRO258      0.0892
     45  N         14.7220    2.9110   63.9950 N.3   260  VAL260     -0.1245
     46  CA        15.3830    4.0940   63.4660 C.3   260  VAL260      0.1561
     47  C         15.4400    5.1790   64.5390 C.2   260  VAL260      0.2260
     48  O         14.4290    5.4960   65.1630 O.2   260  VAL260     -0.2867
     49  CB        14.6550    4.6030   62.2350 C.3   260  VAL260      0.0252
     50  CG1       15.0750    6.0290   61.9310 C.3   260  VAL260      0.0019
     51  CG2       14.9720    3.6840   61.0370 C.3   260  VAL260      0.0019
     52  N         17.5580    8.3660   64.3910 N.3   262  ASN262     -0.1225
     53  CA        18.2000    9.6500   64.0950 C.3   262  ASN262      0.1785
     54  C         17.2700   10.6730   63.4450 C.2   262  ASN262      0.2597
     55  O         17.7300   11.6980   62.9320 O.2   262  ASN262     -0.2718
     56  CB        19.4360    9.4560   63.1990 C.3   262  ASN262      0.1169
     57  CG        19.1130    8.6930   61.9340 C.2   262  ASN262      0.2627
     58  OD1       17.9480    8.4110   61.6510 O.2   262  ASN262     -0.2716
     59  ND2       20.1420    8.3580   61.1620 N.am  262  ASN262     -0.0877
     60  N         15.9710   10.4060   63.4500 N.am  263  MET263     -0.1979
     61  CA        15.0500   11.3300   62.8040 C.3   263  MET263      0.1605
     62  C         14.4680   12.3530   63.7650 C.2   263  MET263      0.2287
     63  O         14.5820   12.2110   64.9820 O.2   263  MET263     -0.2864
     64  CB        13.9580   10.5850   62.0250 C.3   263  MET263      0.0413
     65  CG        14.5200    9.9070   60.7790 C.3   263  MET263      0.0598
     66  SD        13.2550    9.2400   59.6750 S.3   263  MET263     -0.1393
     67  CE        12.9400   10.6940   58.6410 C.3   263  MET263      0.0692
     68  N         11.9370    5.1400   66.8440 N.3   277  PHE277     -0.1227
     69  CA        10.7420    4.3440   66.5740 C.3   277  PHE277      0.1736
     70  C         11.1140    2.9890   65.9240 C.2   277  PHE277      0.2596
     71  O         12.1930    2.8370   65.3650 O.2   277  PHE277     -0.2718
     72  CB         9.7530    5.1410   65.7180 C.3   277  PHE277      0.0547
     73  CG        10.3480    5.6650   64.4250 C.ar  277  PHE277     -0.0202
     74  CD1       10.4870    4.8370   63.3210 C.ar  277  PHE277     -0.0042
     75  CD2       10.7690    6.9800   64.3250 C.ar  277  PHE277     -0.0042
     76  CE1       11.0310    5.3190   62.1220 C.ar  277  PHE277     -0.0003
     77  CE2       11.3210    7.4710   63.1300 C.ar  277  PHE277     -0.0003
     78  CZ        11.4430    6.6280   62.0280 C.ar  277  PHE277     -0.0000
     79  N         10.2320    1.9960   66.0250 N.am  278  SER278     -0.1938
     80  CA        10.5590    0.6640   65.5030 C.3   278  SER278      0.2055
     81  C          9.3250   -0.0440   64.9810 C.2   278  SER278      0.2644
     82  O          8.2260    0.1770   65.4760 O.2   278  SER278     -0.2714
     83  CB        11.2370   -0.1970   66.5750 C.3   278  SER278      0.2130
     84  OG        10.3610   -0.3800   67.6850 O.3   278  SER278     -0.2179
     85  N          9.5070   -0.8750   63.9560 N.am  279  GLY279     -0.1939
     86  CA         8.4440   -1.7390   63.4910 C.3   279  GLY279      0.2014
     87  C          8.9890   -3.1410   63.3220 C.2   279  GLY279      0.2638
     88  O          9.4780   -3.7650   64.2730 O.2   279  GLY279     -0.2714
     89  N          8.9060   -3.6420   62.0990 N.am  280  TRP280     -0.1973
     90  CA         9.5450   -4.8990   61.7550 C.3   280  TRP280      0.1640
     91  C         10.0720   -4.8240   60.3300 C.2   280  TRP280      0.2290
     92  O          9.6710   -3.9580   59.5510 O.2   280  TRP280     -0.2864
     93  CB         8.5850   -6.0790   61.9210 C.3   280  TRP280      0.0576
     94  CG         7.2700   -5.9260   61.2200 C.ar  280  TRP280      0.0006
     95  CD1        7.0020   -6.1540   59.8850 C.ar  280  TRP280      0.0946
     96  CD2        6.0340   -5.5380   61.8150 C.ar  280  TRP280      0.0152
     97  NE1        5.6660   -5.9230   59.6300 N.ar  280  TRP280     -0.2442
     98  CE2        5.0530   -5.5460   60.8030 C.ar  280  TRP280      0.0810
     99  CE3        5.6530   -5.1990   63.1220 C.ar  280  TRP280      0.0012
    100  CZ2        3.7200   -5.2170   61.0580 C.ar  280  TRP280      0.0191
    101  CZ3        4.3400   -4.8700   63.3690 C.ar  280  TRP280      0.0001
    102  CH2        3.3860   -4.8870   62.3480 C.ar  280  TRP280      0.0015
    103  N         10.9780   -5.5150   56.3790 N.3   282  MET282     -0.1245
    104  CA        10.6570   -6.1000   55.0820 C.3   282  MET282      0.1570
    105  C         11.9430   -6.8360   54.6920 C.2   282  MET282      0.2261
    106  O         13.0430   -6.3020   54.8770 O.2   282  MET282     -0.2867
    107  CB        10.3180   -5.0140   54.0440 C.3   282  MET282      0.0387
    108  CG         9.8720   -5.5750   52.6620 C.3   282  MET282      0.0595
    109  SD         9.0240   -4.3240   51.6500 S.3   282  MET282     -0.1393
    110  CE        10.4290   -3.3980   51.0060 C.3   282  MET282      0.0692
    111  N         15.0970   -5.2730   52.9760 N.3   285  GLU285     -0.1245
    112  CA        15.9500   -4.3320   53.6950 C.3   285  GLU285      0.1567
    113  C         17.2380   -5.0090   54.1220 C.2   285  GLU285      0.2260
    114  O         18.3150   -4.4390   53.9890 O.2   285  GLU285     -0.2867
    115  CB        15.2450   -3.7650   54.9270 C.3   285  GLU285      0.0388
    116  CG        14.0930   -2.8540   54.5940 C.3   285  GLU285      0.1160
    117  CD        13.4550   -2.2770   55.8470 C.2   285  GLU285      0.3649
    118  OE1       13.9270   -1.2080   56.2890 O.co2 285  GLU285     -0.2457
    119  OE2       12.4980   -2.8830   56.3900 O.co2 285  GLU285     -0.2457
    120  N         10.8990    5.5260   46.7280 N.3   371  TRP371     -0.1241
    121  CA        11.1590    4.7630   47.9390 C.3   371  TRP371      0.1605
    122  C         10.1850    3.6100   48.1700 C.2   371  TRP371      0.2264
    123  O         10.5570    2.5800   48.7390 O.2   371  TRP371     -0.2867
    124  CB        11.1880    5.7100   49.1560 C.3   371  TRP371      0.0550
    125  CG        12.4830    6.4530   49.2320 C.ar  371  TRP371      0.0003
    126  CD1       12.9430    7.3860   48.3490 C.ar  371  TRP371      0.0946
    127  CD2       13.5000    6.3140   50.2360 C.ar  371  TRP371      0.0152
    128  NE1       14.1750    7.8380   48.7430 N.ar  371  TRP371     -0.2442
    129  CE2       14.5420    7.1970   49.8960 C.ar  371  TRP371      0.0810
    130  CE3       13.6260    5.5360   51.3880 C.ar  371  TRP371      0.0012
    131  CZ2       15.7000    7.3190   50.6660 C.ar  371  TRP371      0.0191
    132  CZ3       14.7720    5.6640   52.1570 C.ar  371  TRP371      0.0001
    133  CH2       15.7930    6.5490   51.7910 C.ar  371  TRP371      0.0015
    134  N         14.5520   14.6690   58.4000 N.3   399  TYR399     -0.1241
    135  CA        15.9580   14.3400   58.5940 C.3   399  TYR399      0.1605
    136  C         16.5880   15.4470   59.4180 C.2   399  TYR399      0.2264
    137  O         16.0690   16.5710   59.4730 O.2   399  TYR399     -0.2867
    138  CB        16.7020   14.2210   57.2600 C.3   399  TYR399      0.0534
    139  CG        16.2380   13.0900   56.3790 C.ar  399  TYR399     -0.0201
    140  CD1       16.6210   11.7770   56.6320 C.ar  399  TYR399     -0.0009
    141  CD2       15.4300   13.3360   55.2760 C.ar  399  TYR399     -0.0009
    142  CE1       16.2050   10.7410   55.8080 C.ar  399  TYR399      0.0417
    143  CE2       15.0080   12.3090   54.4510 C.ar  399  TYR399      0.0417
    144  CZ        15.3990   11.0170   54.7220 C.ar  399  TYR399      0.1957
    145  OH        14.9820   10.0050   53.8950 O.3   399  TYR399     -0.2866
@<TRIPOS>BOND
     1   120   121    1
     2     1     2    1
     3   121   122    1
     4   121   124    1
     5   122   123    2
     6   126   128   ar
     7   126   125   ar
     8   128   129   ar
     9     2     5    1
    10     2     3    1
    11   124   125    1
    12   125   127   ar
    13     5     6    1
    14   129   127   ar
    15   129   131   ar
    16     3     9   am
    17     3     4    2
    18     8     7    1
    19   127   130   ar
    20     9    10    1
    21   131   133   ar
    22     6     7    1
    23    11    12    2
    24    11    10    1
    25   110   109    1
    26    10    13    1
    27   130   132   ar
    28   109   108    1
    29   133   132   ar
    30    15    14    1
    31    14    13    1
    32    14    16    1
    33   108   107    1
    34   111   112    1
    35    17    18    1
    36    20    19    2
    37    19    18    1
    38   112   113    1
    39   112   115    1
    40   145   144    1
    41   114   113    2
    42   107   104    1
    43    18    21    1
    44   143   144   ar
    45   143   141   ar
    46   116   115    1
    47   116   117    1
    48   105   106    2
    49   105   104    1
    50   144   142   ar
    51   104   103    1
    52   141   139   ar
    53    21    22    1
    54   142   140   ar
    55   117   118   ar
    56   117   119   ar
    57   139   140   ar
    58   139   138    1
    59   138   135    1
    60   134   135    1
    61   135   136    1
    62    67    66    1
    63   136   137    2
    64    92    91    2
    65    97    95   ar
    66    97    98   ar
    67    66    65    1
    68    95    94   ar
    69    37    35   am
    70    91    90    1
    71    65    64    1
    72    98   100   ar
    73    98    96   ar
    74    51    49    1
    75   100   102   ar
    76    59    57   am
    77    94    96   ar
    78    94    93    1
    79    35    36    2
    80    35    34    1
    81    42    43    1
    82    42    39    1
    83    58    57    2
    84    90    93    1
    85    90    89    1
    86    96    99   ar
    87    43    44    1
    88    50    49    1
    89    57    56    1
    90    27    28    1
    91    27    24    1
    92    64    61    1
    93    78    76   ar
    94    78    77   ar
    95    89    87   am
    96    76    74   ar
    97    49    46    1
    98    34    33    1
    99   102   101   ar
   100    61    60    1
   101    61    62    1
   102    44    38    1
   103    55    54    2
   104    39    38    1
   105    39    40    1
   106    99   101   ar
   107    77    75   ar
   108    56    53    1
   109    26    25    2
   110    74    73   ar
   111    87    86    1
   112    87    88    2
   113    24    25    1
   114    24    23    1
   115    54    60   am
   116    54    53    1
   117    46    45    1
   118    46    47    1
   119    86    85    1
   120    25    29   am
   121    33    30    1
   122    40    41    2
   123    62    63    2
   124    85    81   am
   125    53    52    1
   126    29    30    1
   127    75    73   ar
   128    73    72    1
   129    47    48    2
   130    30    31    1
   131    81    82    2
   132    81    80    1
   133    71    70    2
   134    80    79    1
   135    80    83    1
   136    72    69    1
   137    70    79   am
   138    70    69    1
   139    31    32    2
   140    69    68    1
   141    83    84    1
