@<TRIPOS>MOLECULE
tmp/5ad9B03.pdb
 173 167 0 0 0
SMALL
GASTEIGER

@<TRIPOS>ATOM
      1  N         17.8310   12.5120   47.3780 N.3    38  MET38      -0.1245
      2  CA        17.6770   11.9220   48.7070 C.3    38  MET38       0.1570
      3  C         17.3180   12.9530   49.7850 C.2    38  MET38       0.2261
      4  O         16.3640   12.7570   50.5350 O.2    38  MET38      -0.2867
      5  CB        18.9250   11.1300   49.1030 C.3    38  MET38       0.0387
      6  CG        18.9010   10.6680   50.5530 C.3    38  MET38       0.0595
      7  SD        19.6180    9.0350   50.8630 S.3    38  MET38      -0.1393
      8  CE        19.4940    9.0030   52.6550 C.3    38  MET38       0.0692
      9  N          7.2870    5.4370   53.3500 N.3   108  CYS108     -0.1235
     10  CA         7.1610    4.1980   54.1300 C.3   108  CYS108      0.1677
     11  C          6.0960    3.2840   53.5590 C.2   108  CYS108      0.2270
     12  O          4.9090    3.6100   53.5530 O.2   108  CYS108     -0.2867
     13  CB         6.8610    4.5010   55.6050 C.3   108  CYS108      0.0956
     14  SG         6.4960    3.0600   56.7110 S.3   108  CYS108     -0.0801
     15  N         20.3980    3.6550   64.0560 N.3   171  GLN171     -0.1245
     16  CA        19.3870    2.7230   64.5460 C.3   171  GLN171      0.1566
     17  C         19.8190    2.2410   65.9410 C.2   171  GLN171      0.2260
     18  O         21.0190    2.1760   66.2270 O.2   171  GLN171     -0.2867
     19  CB        19.2340    1.5340   63.5900 C.3   171  GLN171      0.0367
     20  CG        18.3910    1.7860   62.3480 C.3   171  GLN171      0.0905
     21  CD        18.7250    0.8240   61.2050 C.2   171  GLN171      0.2608
     22  OE1       18.7530   -0.3940   61.3850 O.2   171  GLN171     -0.2717
     23  NE2       18.9970    1.3790   60.0260 N.am  171  GLN171     -0.0878
     24  N         22.5430   -2.0060   65.6950 N.3   174  ARG174     -0.1245
     25  CA        23.3420   -2.0260   64.4820 C.3   174  ARG174      0.1563
     26  C         24.7390   -2.5990   64.7260 C.2   174  ARG174      0.2260
     27  O         25.3160   -2.3920   65.7950 O.2   174  ARG174     -0.2867
     28  CB        23.4850   -0.6110   63.9180 C.3   174  ARG174      0.0307
     29  CG        22.4160   -0.2550   62.9120 C.3   174  ARG174      0.0489
     30  CD        22.8040    0.9660   62.1430 C.3   174  ARG174      0.2205
     31  NE        23.0850    0.6490   60.7540 N.pl3 174  ARG174     -0.0865
     32  CZ        22.6500    1.3740   59.7330 C.cat 174  ARG174      0.5346
     33  NH1       21.9130    2.4590   59.9560 N.pl3 174  ARG174      0.1354
     34  NH2       22.9530    1.0120   58.4910 N.pl3 174  ARG174      0.1354
     35  N         28.6070    0.0830   56.4230 N.3   190  ALA190     -0.1245
     36  CA        27.6950    1.1980   56.6230 C.3   190  ALA190      0.1562
     37  C         27.8810    1.9210   57.9560 C.2   190  ALA190      0.2260
     38  O         27.3370    3.0030   58.1460 O.2   190  ALA190     -0.2867
     39  CB        26.2610    0.7340   56.4820 C.3   190  ALA190      0.0290
     40  N         14.2560   -3.5180   63.5800 N.3   258  PRO258     -0.2116
     41  CA        14.7130   -2.3170   62.8830 C.3   258  PRO258      0.1372
     42  C         14.1970   -1.1120   63.6600 C.2   258  PRO258      0.2244
     43  O         12.9860   -0.9720   63.8330 O.2   258  PRO258     -0.2868
     44  CB        14.0070   -2.4220   61.5330 C.3   258  PRO258      0.0268
     45  CG        12.6790   -3.1120   61.8680 C.3   258  PRO258      0.0207
     46  CD        13.0030   -4.0610   63.0150 C.3   258  PRO258      0.0892
     47  N         14.7210    2.9490   63.8970 N.3   260  VAL260     -0.1245
     48  CA        15.3980    4.1270   63.3910 C.3   260  VAL260      0.1561
     49  C         15.4090    5.1940   64.4590 C.2   260  VAL260      0.2260
     50  O         14.3880    5.4710   65.0970 O.2   260  VAL260     -0.2867
     51  CB        14.7690    4.6000   62.0780 C.3   260  VAL260      0.0252
     52  CG1       15.1460    6.0390   61.7750 C.3   260  VAL260      0.0019
     53  CG2       15.2090    3.6490   60.9520 C.3   260  VAL260      0.0019
     54  N         16.1110   10.3500   63.1690 N.3   263  MET263     -0.1245
     55  CA        15.1690   11.2850   62.5850 C.3   263  MET263      0.1570
     56  C         14.6150   12.2550   63.6080 C.2   263  MET263      0.2261
     57  O         15.0260   12.2560   64.7590 O.2   263  MET263     -0.2867
     58  CB        14.0620   10.5470   61.8330 C.3   263  MET263      0.0387
     59  CG        14.6320    9.7260   60.6620 C.3   263  MET263      0.0595
     60  SD        13.3650    9.0880   59.5630 S.3   263  MET263     -0.1393
     61  CE        13.0970   10.5180   58.5010 C.3   263  MET263      0.0692
     62  N         12.1160    5.0870   66.7470 N.3   277  PHE277     -0.1227
     63  CA        10.9160    4.2830   66.4720 C.3   277  PHE277      0.1736
     64  C         11.2560    2.9560   65.8030 C.2   277  PHE277      0.2596
     65  O         12.3010    2.8140   65.1420 O.2   277  PHE277     -0.2718
     66  CB         9.8940    5.0500   65.6190 C.3   277  PHE277      0.0547
     67  CG        10.4820    5.6770   64.3840 C.ar  277  PHE277     -0.0202
     68  CD1       10.7240    4.9160   63.2470 C.ar  277  PHE277     -0.0042
     69  CD2       10.7950    7.0330   64.3590 C.ar  277  PHE277     -0.0042
     70  CE1       11.2690    5.4990   62.0910 C.ar  277  PHE277     -0.0003
     71  CE2       11.3460    7.6230   63.2120 C.ar  277  PHE277     -0.0003
     72  CZ        11.5840    6.8510   62.0770 C.ar  277  PHE277     -0.0000
     73  N         10.3760    1.9760   65.9730 N.am  278  SER278     -0.1938
     74  CA        10.6680    0.6350   65.4590 C.3   278  SER278      0.2055
     75  C          9.4070   -0.0070   64.9260 C.2   278  SER278      0.2644
     76  O          8.3100    0.3270   65.3560 O.2   278  SER278     -0.2714
     77  CB        11.3110   -0.2490   66.5410 C.3   278  SER278      0.2130
     78  OG        10.4110   -0.4930   67.6120 O.3   278  SER278     -0.2179
     79  N          9.5700   -0.8930   63.9500 N.am  279  GLY279     -0.1939
     80  CA         8.4690   -1.6860   63.4450 C.3   279  GLY279      0.2014
     81  C          9.0040   -3.0960   63.2840 C.2   279  GLY279      0.2639
     82  O          9.4070   -3.7310   64.2650 O.2   279  GLY279     -0.2714
     83  N          9.0110   -3.5830   62.0460 N.am  280  TRP280     -0.1959
     84  CA         9.6590   -4.8480   61.7070 C.3   280  TRP280      0.1771
     85  C         10.1620   -4.8230   60.2530 C.2   280  TRP280      0.2620
     86  O          9.7280   -3.9930   59.4350 O.2   280  TRP280     -0.2715
     87  CB         8.7310   -6.0390   61.9500 C.3   280  TRP280      0.0590
     88  CG         7.4000   -5.9300   61.2560 C.ar  280  TRP280      0.0006
     89  CD1        7.1310   -6.1640   59.9310 C.ar  280  TRP280      0.0946
     90  CD2        6.1530   -5.5700   61.8570 C.ar  280  TRP280      0.0152
     91  NE1        5.7920   -5.9680   59.6790 N.ar  280  TRP280     -0.2442
     92  CE2        5.1730   -5.6010   60.8420 C.ar  280  TRP280      0.0810
     93  CE3        5.7690   -5.2360   63.1590 C.ar  280  TRP280      0.0012
     94  CZ2        3.8390   -5.3030   61.0910 C.ar  280  TRP280      0.0191
     95  CZ3        4.4400   -4.9350   63.4050 C.ar  280  TRP280      0.0001
     96  CH2        3.4900   -4.9750   62.3780 C.ar  280  TRP280      0.0015
     97  N         11.0880   -5.7200   59.9390 N.am  281  TYR281     -0.1960
     98  CA        11.7620   -5.6620   58.6530 C.3   281  TYR281      0.1771
     99  C         10.9020   -6.1580   57.5100 C.2   281  TYR281      0.2619
    100  O         10.1590   -7.1350   57.6500 O.2   281  TYR281     -0.2715
    101  CB        13.0260   -6.4970   58.6910 C.3   281  TYR281      0.0574
    102  CG        14.2770   -5.7480   59.0710 C.ar  281  TYR281     -0.0198
    103  CD1       14.7340   -4.6960   58.2960 C.ar  281  TYR281     -0.0009
    104  CD2       15.0210   -6.1070   60.1960 C.ar  281  TYR281     -0.0009
    105  CE1       15.8930   -4.0160   58.6290 C.ar  281  TYR281      0.0417
    106  CE2       16.1950   -5.4320   60.5310 C.ar  281  TYR281      0.0417
    107  CZ        16.6200   -4.3860   59.7430 C.ar  281  TYR281      0.1957
    108  OH        17.7780   -3.7020   60.0440 O.3   281  TYR281     -0.2866
    109  N         11.0010   -5.4680   56.3770 N.am  282  MET282     -0.1977
    110  CA        10.7290   -6.0830   55.0760 C.3   282  MET282      0.1605
    111  C         12.0090   -6.8170   54.7440 C.2   282  MET282      0.2287
    112  O         13.0900   -6.2790   54.9580 O.2   282  MET282     -0.2864
    113  CB        10.4380   -5.0300   53.9980 C.3   282  MET282      0.0413
    114  CG         9.9200   -5.6170   52.6810 C.3   282  MET282      0.0598
    115  SD         9.1400   -4.3960   51.5890 S.3   282  MET282     -0.1393
    116  CE        10.5970   -3.5090   51.0250 C.3   282  MET282      0.0692
    117  N         15.1650   -5.2010   52.9610 N.3   285  GLU285     -0.1245
    118  CA        16.0010   -4.2550   53.6870 C.3   285  GLU285      0.1567
    119  C         17.3030   -4.8890   54.1580 C.2   285  GLU285      0.2260
    120  O         18.3710   -4.2940   54.0310 O.2   285  GLU285     -0.2867
    121  CB        15.2530   -3.7050   54.8860 C.3   285  GLU285      0.0388
    122  CG        13.9740   -3.0010   54.5250 C.3   285  GLU285      0.1160
    123  CD        13.3780   -2.3120   55.7240 C.2   285  GLU285      0.3649
    124  OE1       13.9520   -1.2780   56.1310 O.co2 285  GLU285     -0.2457
    125  OE2       12.3650   -2.8170   56.2650 O.co2 285  GLU285     -0.2457
    126  N         19.7060   -4.7100   50.5530 N.3   289  ARG289     -0.1245
    127  CA        20.5210   -3.5710   50.9590 C.3   289  ARG289      0.1563
    128  C         21.6410   -3.9990   51.9280 C.2   289  ARG289      0.2260
    129  O         22.8230   -3.8620   51.5870 O.2   289  ARG289     -0.2867
    130  CB        19.6460   -2.4490   51.5510 C.3   289  ARG289      0.0307
    131  CG        18.2780   -2.2520   50.8490 C.3   289  ARG289      0.0489
    132  CD        18.3880   -1.9560   49.3460 C.3   289  ARG289      0.2205
    133  NE        19.3090   -0.8550   49.0760 N.pl3 289  ARG289     -0.0865
    134  CZ        19.0010    0.4320   49.2110 C.cat 289  ARG289      0.5346
    135  NH1       17.7770    0.7960   49.6020 N.pl3 289  ARG289      0.1354
    136  NH2       19.9230    1.3550   48.9560 N.pl3 289  ARG289      0.1354
    137  N         27.9440   -2.5370   51.1760 N.3   296  ARG296     -0.1245
    138  CA        27.5830   -3.2910   52.3900 C.3   296  ARG296      0.1563
    139  C         28.3770   -4.6090   52.5110 C.2   296  ARG296      0.2260
    140  O         29.4770   -4.7120   51.9680 O.2   296  ARG296     -0.2867
    141  CB        26.0720   -3.5380   52.4570 C.3   296  ARG296      0.0307
    142  CG        25.2270   -2.2640   52.3420 C.3   296  ARG296      0.0489
    143  CD        25.5060   -1.2520   53.4440 C.3   296  ARG296      0.2205
    144  NE        25.1300   -1.7210   54.7810 N.pl3 296  ARG296     -0.0865
    145  CZ        23.9520   -1.4950   55.3640 C.cat 296  ARG296      0.5346
    146  NH1       23.0060   -0.8170   54.7220 N.pl3 296  ARG296      0.1354
    147  NH2       23.7190   -1.9510   56.5920 N.pl3 296  ARG296      0.1354
    148  N         10.8760    5.2980   46.6490 N.3   371  TRP371     -0.1241
    149  CA        11.1650    4.6180   47.9110 C.3   371  TRP371      0.1605
    150  C         10.1800    3.4760   48.1800 C.2   371  TRP371      0.2264
    151  O         10.5640    2.4090   48.6540 O.2   371  TRP371     -0.2867
    152  CB        11.1880    5.6390   49.0670 C.3   371  TRP371      0.0550
    153  CG        12.5140    6.3620   49.1940 C.ar  371  TRP371      0.0003
    154  CD1       13.0510    7.2910   48.3230 C.ar  371  TRP371      0.0946
    155  CD2       13.4650    6.2170   50.2570 C.ar  371  TRP371      0.0152
    156  NE1       14.2780    7.7160   48.7860 N.ar  371  TRP371     -0.2442
    157  CE2       14.5530    7.0760   49.9680 C.ar  371  TRP371      0.0810
    158  CE3       13.5040    5.4440   51.4250 C.ar  371  TRP371      0.0012
    159  CZ2       15.6650    7.1710   50.8040 C.ar  371  TRP371      0.0191
    160  CZ3       14.6040    5.5480   52.2580 C.ar  371  TRP371      0.0001
    161  CH2       15.6710    6.4010   51.9430 C.ar  371  TRP371      0.0015
    162  N         14.6890   14.4120   58.3580 N.3   399  TYR399     -0.1241
    163  CA        16.1030   14.1370   58.5240 C.3   399  TYR399      0.1605
    164  C         16.6820   15.2670   59.3310 C.2   399  TYR399      0.2264
    165  O         16.0430   16.3110   59.4560 O.2   399  TYR399     -0.2867
    166  CB        16.7950   14.0930   57.1760 C.3   399  TYR399      0.0534
    167  CG        16.5150   12.8390   56.4020 C.ar  399  TYR399     -0.0201
    168  CD1       16.9100   11.6040   56.8870 C.ar  399  TYR399     -0.0009
    169  CD2       15.8580   12.8880   55.1850 C.ar  399  TYR399     -0.0009
    170  CE1       16.6660   10.4570   56.1800 C.ar  399  TYR399      0.0417
    171  CE2       15.6100   11.7460   54.4690 C.ar  399  TYR399      0.0417
    172  CZ        16.0170   10.5340   54.9700 C.ar  399  TYR399      0.1957
    173  OH        15.7760    9.3880   54.2530 O.3   399  TYR399     -0.2866
@<TRIPOS>BOND
     1   148   149    1
     2     1     2    1
     3   149   150    1
     4   149   152    1
     5   150   151    2
     6   154   156   ar
     7   154   153   ar
     8     2     5    1
     9     2     3    1
    10   156   157   ar
    11   136   134    1
    12   152   153    1
    13   133   134    2
    14   133   132    1
    15     5     6    1
    16   153   155   ar
    17   134   135    1
    18   132   131    1
    19     3     4    2
    20   157   155   ar
    21   157   159   ar
    22   155   158   ar
    23   126   127    1
    24     6     7    1
    25   159   161   ar
    26   131   130    1
    27     7     8    1
    28   127   130    1
    29   127   128    1
    30   116   115    1
    31   137   138    1
    32   158   160   ar
    33   129   128    2
    34   115   114    1
    35   161   160   ar
    36   140   139    2
    37   142   141    1
    38   142   143    1
    39   138   141    1
    40   138   139    1
    41   114   113    1
    42   117   118    1
    43     9    10    1
    44   143   144    1
    45    12    11    2
    46    11    10    1
    47   118   119    1
    48   118   121    1
    49   113   110    1
    50   120   119    2
    51    10    13    1
    52   173   172    1
    53   171   172   ar
    54   171   169   ar
    55   122   121    1
    56   122   123    1
    57   146   145    1
    58   111   112    2
    59   111   110    1
    60   144   145    2
    61   172   170   ar
    62   110   109    1
    63   169   167   ar
    64   145   147    1
    65    13    14    1
    66   123   124   ar
    67   123   125   ar
    68   170   168   ar
    69   109    99   am
    70   167   168   ar
    71   167   166    1
    72    35    36    1
    73    39    36    1
    74    36    37    1
    75   166   163    1
    76    99   100    2
    77    99    98    1
    78    37    38    2
    79   103   105   ar
    80   103   102   ar
    81   162   163    1
    82    34    32    1
    83    61    60    1
    84   163   164    1
    85   105   107   ar
    86    98   101    1
    87    98    97    1
    88   101   102    1
    89   102   104   ar
    90   164   165    2
    91    86    85    2
    92    60    59    1
    93    91    89   ar
    94    91    92   ar
    95    32    33    1
    96    32    31    2
    97   107   108    1
    98   107   106   ar
    99    89    88   ar
   100    97    85   am
   101    23    21   am
   102   104   106   ar
   103    85    84    1
   104    59    58    1
   105    31    30    1
   106    92    94   ar
   107    92    90   ar
   108    53    51    1
   109    94    96   ar
   110    21    22    2
   111    21    20    1
   112    88    90   ar
   113    88    87    1
   114    44    45    1
   115    44    41    1
   116    84    87    1
   117    84    83    1
   118    52    51    1
   119    58    55    1
   120    90    93   ar
   121    45    46    1
   122    83    81   am
   123    72    70   ar
   124    72    71   ar
   125    51    48    1
   126    70    68   ar
   127    30    29    1
   128    20    19    1
   129    96    95   ar
   130    55    54    1
   131    55    56    1
   132    41    40    1
   133    41    42    1
   134    29    28    1
   135    46    40    1
   136    93    95   ar
   137    71    69   ar
   138    68    67   ar
   139    81    80    1
   140    81    82    2
   141    48    47    1
   142    48    49    1
   143    80    79    1
   144    19    16    1
   145    56    57    2
   146    42    43    2
   147    28    25    1
   148    79    75   am
   149    15    16    1
   150    69    67   ar
   151    67    66    1
   152    49    50    2
   153    25    26    1
   154    25    24    1
   155    16    17    1
   156    26    27    2
   157    75    76    2
   158    75    74    1
   159    65    64    2
   160    74    73    1
   161    74    77    1
   162    66    63    1
   163    64    73   am
   164    64    63    1
   165    17    18    2
   166    63    62    1
   167    77    78    1
