@<TRIPOS>MOLECULE
tmp/5adaA02.pdb
 152 150 0 0 0
SMALL
GASTEIGER

@<TRIPOS>ATOM
      1  N         15.3960    7.5650   28.9420 N.3   106  CYS106     -0.1235
      2  CA        16.1030    6.5640   28.1390 C.3   106  CYS106      0.1677
      3  C         17.4460    6.2150   28.7610 C.2   106  CYS106      0.2270
      4  O         18.3220    7.0810   28.8880 O.2   106  CYS106     -0.2867
      5  CB        16.3070    7.0740   26.7050 C.3   106  CYS106      0.0956
      6  SG        17.2400    5.9330   25.6560 S.3   106  CYS106     -0.0801
      7  N          2.0150    1.3420   17.8540 N.3   168  SER168     -0.1202
      8  CA         2.8560    1.9340   18.9010 C.3   168  SER168      0.2020
      9  C          4.3120    1.5760   18.6490 C.2   168  SER168      0.2618
     10  O          5.2200    2.3540   18.9550 O.2   168  SER168     -0.2717
     11  CB         2.4210    1.4550   20.2830 C.3   168  SER168      0.2103
     12  OG         2.0150    0.1000   20.2420 O.3   168  SER168     -0.2182
     13  N          4.5250    0.3870   18.0870 N.am  169  GLN169     -0.1979
     14  CA         5.8310   -0.0150   17.5810 C.3   169  GLN169      0.1601
     15  C          5.6330   -0.6350   16.2030 C.2   169  GLN169      0.2287
     16  O          4.5930   -1.2440   15.9420 O.2   169  GLN169     -0.2864
     17  CB         6.4900   -1.0430   18.5070 C.3   169  GLN169      0.0394
     18  CG         6.8880   -0.5330   19.9000 C.3   169  GLN169      0.0908
     19  CD         7.4710   -1.6370   20.7900 C.2   169  GLN169      0.2608
     20  OE1        8.2740   -2.4640   20.3440 O.2   169  GLN169     -0.2717
     21  NE2        7.0560   -1.6540   22.0480 N.am  169  GLN169     -0.0878
     22  N          4.9740   -5.5480   16.6150 N.3   172  ARG172     -0.1245
     23  CA         4.3380   -6.0080   17.8540 C.3   172  ARG172      0.1563
     24  C          3.3990   -7.1910   17.6070 C.2   172  ARG172      0.2260
     25  O          2.8980   -7.3730   16.4970 O.2   172  ARG172     -0.2867
     26  CB         3.5790   -4.8630   18.5410 C.3   172  ARG172      0.0307
     27  CG         4.4730   -3.8490   19.2330 C.3   172  ARG172      0.0489
     28  CD         3.7070   -2.9190   20.1740 C.3   172  ARG172      0.2205
     29  NE         3.3980   -3.5620   21.4510 N.pl3 172  ARG172     -0.0865
     30  CZ         2.9510   -2.9290   22.5360 C.cat 172  ARG172      0.5346
     31  NH1        2.7640   -1.6140   22.5280 N.pl3 172  ARG172      0.1354
     32  NH2        2.6980   -3.6210   23.6410 N.pl3 172  ARG172      0.1354
     33  N         13.2240   -3.3090   18.6400 N.3   256  PRO256     -0.2116
     34  CA        12.2590   -2.4030   19.2660 C.3   256  PRO256      0.1372
     35  C         12.2360   -1.0950   18.4770 C.2   256  PRO256      0.2244
     36  O         13.2520   -0.4020   18.3210 O.2   256  PRO256     -0.2868
     37  CB        12.8200   -2.2090   20.6840 C.3   256  PRO256      0.0268
     38  CG        14.3160   -2.3800   20.5280 C.3   256  PRO256      0.0207
     39  CD        14.5380   -3.2980   19.3120 C.3   256  PRO256      0.0892
     40  N          9.9400    2.1740   18.2720 N.3   258  VAL258     -0.1245
     41  CA         8.8260    2.9550   18.7800 C.3   258  VAL258      0.1561
     42  C          8.3050    3.9150   17.7230 C.2   258  VAL258      0.2260
     43  O          9.0540    4.7490   17.2150 O.2   258  VAL258     -0.2867
     44  CB         9.2470    3.7270   20.0340 C.3   258  VAL258      0.0252
     45  CG1        8.1980    4.7640   20.3920 C.3   258  VAL258      0.0019
     46  CG2        9.4370    2.7510   21.1710 C.3   258  VAL258      0.0019
     47  N          4.9970    5.7770   17.7350 N.3   260  ASN260     -0.1225
     48  CA         3.8570    6.6600   17.9850 C.3   260  ASN260      0.1785
     49  C          4.2150    7.9820   18.6660 C.2   260  ASN260      0.2597
     50  O          3.3320    8.6950   19.1540 O.2   260  ASN260     -0.2718
     51  CB         2.7880    5.9400   18.8080 C.3   260  ASN260      0.1169
     52  CG         3.2990    5.5310   20.1640 C.2   260  ASN260      0.2627
     53  OD1        4.4120    5.9000   20.5410 O.2   260  ASN260     -0.2716
     54  ND2        2.4990    4.7740   20.9120 N.am  260  ASN260     -0.0877
     55  N          5.4950    8.3210   18.7150 N.am  261  MET261     -0.1979
     56  CA         5.8500    9.5660   19.3780 C.3   261  MET261      0.1605
     57  C          5.9010   10.7720   18.4550 C.2   261  MET261      0.2287
     58  O          5.9050   10.6390   17.2250 O.2   261  MET261     -0.2864
     59  CB         7.1430    9.3990   20.1550 C.3   261  MET261      0.0413
     60  CG         6.9830    8.3280   21.2060 C.3   261  MET261      0.0598
     61  SD         8.1690    8.4610   22.5330 S.3   261  MET261     -0.1393
     62  CE         7.5470    9.9080   23.3990 C.3   261  MET261      0.0692
     63  N         11.3800    5.3970   15.4320 N.3   275  PHE275     -0.1227
     64  CA        12.8010    5.2020   15.7140 C.3   275  PHE275      0.1736
     65  C         13.0630    3.8540   16.4030 C.2   275  PHE275      0.2596
     66  O         12.1630    3.2320   16.9880 O.2   275  PHE275     -0.2718
     67  CB        13.3540    6.3430   16.5580 C.3   275  PHE275      0.0547
     68  CG        12.6190    6.5490   17.8600 C.ar  275  PHE275     -0.0202
     69  CD1       12.9360    5.8030   18.9900 C.ar  275  PHE275     -0.0042
     70  CD2       11.6110    7.5000   17.9490 C.ar  275  PHE275     -0.0042
     71  CE1       12.2660    6.0270   20.2120 C.ar  275  PHE275     -0.0003
     72  CE2       10.9300    7.7190   19.1510 C.ar  275  PHE275     -0.0003
     73  CZ        11.2650    6.9870   20.2860 C.ar  275  PHE275     -0.0000
     74  N         14.3080    3.4040   16.3450 N.am  276  SER276     -0.1938
     75  CA        14.6200    2.0820   16.8370 C.3   276  SER276      0.2055
     76  C         16.0470    2.0460   17.3160 C.2   276  SER276      0.2644
     77  O         16.8840    2.8160   16.8440 O.2   276  SER276     -0.2714
     78  CB        14.4030    1.0300   15.7370 C.3   276  SER276      0.2130
     79  OG        15.3330    1.2030   14.6710 O.3   276  SER276     -0.2179
     80  N         16.3140    1.1550   18.2690 N.am  277  GLY277     -0.1939
     81  CA        17.6690    0.8570   18.6970 C.3   277  GLY277      0.2014
     82  C         17.7510   -0.6360   18.9280 C.2   277  GLY277      0.2639
     83  O         17.6170   -1.4120   17.9940 O.2   277  GLY277     -0.2714
     84  N         17.9630   -1.0480   20.1760 N.am  278  TRP278     -0.1959
     85  CA        17.9370   -2.4760   20.5000 C.3   278  TRP278      0.1771
     86  C         17.4950   -2.6600   21.9510 C.2   278  TRP278      0.2620
     87  O         17.5960   -1.7370   22.7600 O.2   278  TRP278     -0.2715
     88  CB        19.3040   -3.1370   20.2880 C.3   278  TRP278      0.0590
     89  CG        20.3850   -2.4640   21.0450 C.ar  278  TRP278      0.0006
     90  CD1       20.6740   -2.6060   22.3820 C.ar  278  TRP278      0.0946
     91  CD2       21.3270   -1.5240   20.5240 C.ar  278  TRP278      0.0152
     92  NE1       21.7430   -1.8100   22.7140 N.ar  278  TRP278     -0.2442
     93  CE2       22.1640   -1.1380   21.5950 C.ar  278  TRP278      0.0810
     94  CE3       21.5500   -0.9760   19.2550 C.ar  278  TRP278      0.0012
     95  CZ2       23.2060   -0.2250   21.4280 C.ar  278  TRP278      0.0191
     96  CZ3       22.5800   -0.0740   19.0950 C.ar  278  TRP278      0.0001
     97  CH2       23.3990    0.2910   20.1740 C.ar  278  TRP278      0.0015
     98  N         17.0300   -3.8610   22.2620 N.am  279  TYR279     -0.1960
     99  CA        16.3940   -4.1300   23.5450 C.3   279  TYR279      0.1771
    100  C         17.3380   -4.1920   24.7310 C.2   279  TYR279      0.2619
    101  O         18.4810   -4.6430   24.6180 O.2   279  TYR279     -0.2715
    102  CB        15.6800   -5.4690   23.4700 C.3   279  TYR279      0.0574
    103  CG        14.2710   -5.3780   22.9850 C.ar  279  TYR279     -0.0198
    104  CD1       13.3360   -4.6730   23.7120 C.ar  279  TYR279     -0.0009
    105  CD2       13.8620   -6.0190   21.8060 C.ar  279  TYR279     -0.0009
    106  CE1       12.0420   -4.5940   23.3000 C.ar  279  TYR279      0.0417
    107  CE2       12.5460   -5.9450   21.3830 C.ar  279  TYR279      0.0417
    108  CZ        11.6510   -5.2210   22.1450 C.ar  279  TYR279      0.1957
    109  OH        10.3410   -5.1000   21.7930 O.3   279  TYR279     -0.2866
    110  N         16.8420   -3.7560   25.8830 N.am  280  MET280     -0.1977
    111  CA        17.4340   -4.1820   27.1440 C.3   280  MET280      0.1605
    112  C         16.6460   -5.4270   27.5170 C.2   280  MET280      0.2287
    113  O         15.4220   -5.4600   27.3600 O.2   280  MET280     -0.2864
    114  CB        17.3010   -3.0870   28.2160 C.3   280  MET280      0.0413
    115  CG        17.8830   -3.5200   29.5780 C.3   280  MET280      0.0598
    116  SD        18.2370   -2.0730   30.6200 S.3   280  MET280     -0.1393
    117  CE        16.5410   -1.5760   30.9720 C.3   280  MET280      0.0692
    118  N         13.1030   -5.5060   29.2910 N.3   283  GLU283     -0.1245
    119  CA        11.9240   -5.0380   28.5700 C.3   283  GLU283      0.1567
    120  C         11.0380   -6.1940   28.1440 C.2   283  GLU283      0.2260
    121  O          9.8250   -6.1670   28.3600 O.2   283  GLU283     -0.2867
    122  CB        12.3310   -4.2300   27.3430 C.3   283  GLU283      0.0388
    123  CG        12.9520   -2.8810   27.6750 C.3   283  GLU283      0.1160
    124  CD        13.3400   -2.0990   26.4220 C.2   283  GLU283      0.3649
    125  OE1       14.4650   -2.2990   25.9030 O.co2 283  GLU283     -0.2457
    126  OE2       12.5180   -1.2760   25.9660 O.co2 283  GLU283     -0.2457
    127  N         12.1480    5.7970   35.5860 N.3   369  TRP369     -0.1241
    128  CA        12.2530    5.0220   34.3390 C.3   369  TRP369      0.1605
    129  C         13.6320    4.4190   34.1070 C.2   369  TRP369      0.2264
    130  O         13.7520    3.3410   33.5280 O.2   369  TRP369     -0.2867
    131  CB        11.8480    5.9090   33.1540 C.3   369  TRP369      0.0550
    132  CG        10.3770    6.0860   33.1490 C.ar  369  TRP369      0.0003
    133  CD1        9.6130    6.7300   34.0960 C.ar  369  TRP369      0.0946
    134  CD2        9.4670    5.5690   32.1780 C.ar  369  TRP369      0.0152
    135  NE1        8.2880    6.6580   33.7470 N.ar  369  TRP369     -0.2442
    136  CE2        8.1690    5.9490   32.5800 C.ar  369  TRP369      0.0810
    137  CE3        9.6250    4.8410   30.9950 C.ar  369  TRP369      0.0012
    138  CZ2        7.0350    5.6190   31.8340 C.ar  369  TRP369      0.0191
    139  CZ3        8.5010    4.5150   30.2600 C.ar  369  TRP369      0.0001
    140  CH2        7.2230    4.9060   30.6810 C.ar  369  TRP369      0.0015
    141  N          4.8830   12.5510   23.8820 N.3   397  TYR397     -0.1241
    142  CA         3.7460   11.6670   23.6680 C.3   397  TYR397      0.1605
    143  C          2.7140   12.4340   22.8600 C.2   397  TYR397      0.2264
    144  O          2.7290   13.6700   22.8160 O.2   397  TYR397     -0.2867
    145  CB         3.1220   11.2280   25.0010 C.3   397  TYR397      0.0534
    146  CG         4.0700   10.5110   25.9370 C.ar  397  TYR397     -0.0201
    147  CD1        4.8340   11.2180   26.8590 C.ar  397  TYR397     -0.0009
    148  CD2        4.1890    9.1270   25.9140 C.ar  397  TYR397     -0.0009
    149  CE1        5.6970   10.5670   27.7250 C.ar  397  TYR397      0.0417
    150  CE2        5.0470    8.4730   26.7830 C.ar  397  TYR397      0.0417
    151  CZ         5.7970    9.1950   27.6780 C.ar  397  TYR397      0.1957
    152  OH         6.6450    8.5390   28.5380 O.3   397  TYR397     -0.2866
@<TRIPOS>BOND
     1    79    78    1
     2    63    64    1
     3    64    65    1
     4    64    67    1
     5    78    75    1
     6    16    15    2
     7    15    14    1
     8    74    65   am
     9    74    75    1
    10    65    66    2
    11    25    24    2
    12    67    68    1
    13    22    23    1
    14    75    76    1
    15    77    76    2
    16    43    42    2
    17    58    57    2
    18    76    80   am
    19    14    13    1
    20    14    17    1
    21    24    23    1
    22    42    41    1
    23    47    48    1
    24    23    26    1
    25     7     8    1
    26    68    70   ar
    27    68    69   ar
    28    70    72   ar
    29    48    49    1
    30    48    51    1
    31    83    82    2
    32    13     9   am
    33    80    81    1
    34    40    41    1
    35    36    35    2
    36    57    56    1
    37    35    34    1
    38    17    18    1
    39    26    27    1
    40    33    34    1
    41    33    39    1
    42     9     8    1
    43     9    10    2
    44    49    55   am
    45    49    50    2
    46    81    82    1
    47    55    56    1
    48    41    44    1
    49    51    52    1
    50     8    11    1
    51    82    84   am
    52    69    71   ar
    53    96    94   ar
    54    96    97   ar
    55    72    73   ar
    56    27    28    1
    57    94    91   ar
    58    34    37    1
    59    39    38    1
    60    56    59    1
    61    18    19    1
    62    44    45    1
    63    44    46    1
    64    59    60    1
    65    52    53    2
    66    52    54   am
    67    28    29    1
    68    97    95   ar
    69    84    85    1
    70    71    73   ar
    71    12    11    1
    72    88    85    1
    73    88    89    1
    74    20    19    2
    75    85    86    1
    76    91    89   ar
    77    91    93   ar
    78    38    37    1
    79    19    21   am
    80    89    90   ar
    81    60    61    1
    82   107   105   ar
    83   107   108   ar
    84    95    93   ar
    85    29    30    2
    86    93    92   ar
    87   109   108    1
    88   105   103   ar
    89    86    98   am
    90    86    87    2
    91   108   106   ar
    92    98    99    1
    93    90    92   ar
    94    31    30    1
    95    61    62    1
    96    30    32    1
    97   144   143    2
    98   143   142    1
    99   103   102    1
   100   103   104   ar
   101   106   104   ar
   102   102    99    1
   103    99   100    1
   104   142   141    1
   105   142   145    1
   106   101   100    2
   107   100   110   am
   108   145   146    1
   109     6     5    1
   110   110   111    1
   111   125   124   ar
   112   148   146   ar
   113   148   150   ar
   114   146   147   ar
   115   126   124   ar
   116   124   123    1
   117     5     2    1
   118   150   151   ar
   119   147   149   ar
   120   111   112    1
   121   111   114    1
   122   122   123    1
   123   122   119    1
   124   113   112    2
   125   151   149   ar
   126   151   152    1
   127     2     3    1
   128     2     1    1
   129   120   121    2
   130   120   119    1
   131   114   115    1
   132   119   118    1
   133     3     4    2
   134   115   116    1
   135   139   140   ar
   136   139   137   ar
   137   116   117    1
   138   140   138   ar
   139   137   134   ar
   140   138   136   ar
   141   134   136   ar
   142   134   132   ar
   143   136   135   ar
   144   132   131    1
   145   132   133   ar
   146   131   128    1
   147   130   129    2
   148   135   133   ar
   149   129   128    1
   150   128   127    1
