@<TRIPOS>MOLECULE
tmp/5adeB03.pdb
 145 142 0 0 0
SMALL
GASTEIGER

@<TRIPOS>ATOM
      1  N         17.7780   12.4360   47.5720 N.3    38  VAL38      -0.1231
      2  CA        17.5870   11.8660   48.9130 C.3    38  VAL38       0.1692
      3  C         17.2630   12.8750   50.0410 C.2    38  VAL38       0.2591
      4  O         16.4770   12.5590   50.9410 O.2    38  VAL38      -0.2718
      5  CB        18.8170   11.0430   49.3420 C.3    38  VAL38       0.0266
      6  CG1       18.5520   10.3350   50.6830 C.3    38  VAL38       0.0020
      7  CG2       19.1950   10.0510   48.2600 C.3    38  VAL38       0.0020
      8  N         17.8590   14.0720   49.9930 N.am   39  LEU39      -0.1980
      9  CA        17.6970   15.0660   51.0640 C.3    39  LEU39       0.1596
     10  C         17.1010   16.4040   50.5870 C.2    39  LEU39       0.2287
     11  O         17.3340   16.8280   49.4570 O.2    39  LEU39      -0.2864
     12  CB        19.0410   15.2980   51.7610 C.3    39  LEU39       0.0297
     13  CG        19.6170   14.0700   52.4630 C.3    39  LEU39       0.0022
     14  CD1       21.0470   14.3070   52.9480 C.3    39  LEU39       0.0001
     15  CD2       18.7070   13.6560   53.6090 C.3    39  LEU39       0.0001
     16  N          7.1150    5.5850   53.4550 N.3   108  CYS108     -0.1235
     17  CA         6.9510    4.3770   54.2550 C.3   108  CYS108      0.1677
     18  C          5.9600    3.4130   53.6420 C.2   108  CYS108      0.2270
     19  O          4.7650    3.7090   53.5630 O.2   108  CYS108     -0.2867
     20  CB         6.4880    4.7320   55.6550 C.3   108  CYS108      0.0956
     21  SG         6.3700    3.2840   56.7640 S.3   108  CYS108     -0.0801
     22  N         20.2150    3.7100   64.1760 N.3   171  GLN171     -0.1245
     23  CA        19.1610    2.8330   64.6930 C.3   171  GLN171      0.1566
     24  C         19.5860    2.3450   66.0770 C.2   171  GLN171      0.2260
     25  O         20.7750    2.3320   66.3830 O.2   171  GLN171     -0.2867
     26  CB        18.9170    1.6130   63.8100 C.3   171  GLN171      0.0367
     27  CG        18.4980    1.8560   62.3750 C.3   171  GLN171      0.0905
     28  CD        18.6060    0.5750   61.5520 C.2   171  GLN171      0.2608
     29  OE1       19.3010    0.5330   60.5380 O.2   171  GLN171     -0.2717
     30  NE2       17.9430   -0.4820   62.0070 N.am  171  GLN171     -0.0878
     31  N         14.0880   -3.4100   63.7410 N.3   258  PRO258     -0.2116
     32  CA        14.5650   -2.1880   63.0950 C.3   258  PRO258      0.1372
     33  C         14.0250   -1.0020   63.8600 C.2   258  PRO258      0.2244
     34  O         12.8110   -0.8160   63.8930 O.2   258  PRO258     -0.2868
     35  CB        13.9300   -2.2620   61.7160 C.3   258  PRO258      0.0268
     36  CG        12.6310   -3.0730   61.9180 C.3   258  PRO258      0.0207
     37  CD        12.8190   -3.9070   63.1720 C.3   258  PRO258      0.0892
     38  N         14.6610    3.0280   64.0250 N.3   260  VAL260     -0.1245
     39  CA        15.3530    4.2350   63.5810 C.3   260  VAL260      0.1561
     40  C         15.3170    5.2820   64.6770 C.2   260  VAL260      0.2260
     41  O         14.2650    5.5240   65.2760 O.2   260  VAL260     -0.2867
     42  CB        14.6910    4.8130   62.3340 C.3   260  VAL260      0.0252
     43  CG1       15.4090    6.0670   61.8990 C.3   260  VAL260      0.0019
     44  CG2       14.7270    3.7780   61.2340 C.3   260  VAL260      0.0019
     45  N         15.8640   10.5110   63.4370 N.3   263  MET263     -0.1245
     46  CA        15.0050   11.4540   62.7480 C.3   263  MET263      0.1570
     47  C         14.4650   12.4410   63.7520 C.2   263  MET263      0.2261
     48  O         14.5790   12.2350   64.9560 O.2   263  MET263     -0.2867
     49  CB        13.8840   10.7450   61.9950 C.3   263  MET263      0.0387
     50  CG        14.4150    9.9070   60.8470 C.3   263  MET263      0.0595
     51  SD        13.0970    9.2740   59.8120 S.3   263  MET263     -0.1393
     52  CE        12.8460   10.6940   58.7360 C.3   263  MET263      0.0692
     53  N         11.9640    5.1880   66.9690 N.3   277  PHE277     -0.1227
     54  CA        10.7470    4.4220   66.6640 C.3   277  PHE277      0.1736
     55  C         11.0580    3.1060   65.9720 C.2   277  PHE277      0.2596
     56  O         12.1390    2.9490   65.3830 O.2   277  PHE277     -0.2718
     57  CB         9.7400    5.2470   65.8500 C.3   277  PHE277      0.0547
     58  CG        10.2900    5.8040   64.5630 C.ar  277  PHE277     -0.0202
     59  CD1       10.3940    5.0130   63.4300 C.ar  277  PHE277     -0.0042
     60  CD2       10.6880    7.1300   64.4820 C.ar  277  PHE277     -0.0042
     61  CE1       10.8950    5.5340   62.2350 C.ar  277  PHE277     -0.0003
     62  CE2       11.1850    7.6520   63.3050 C.ar  277  PHE277     -0.0003
     63  CZ        11.2940    6.8490   62.1780 C.ar  277  PHE277     -0.0000
     64  N         10.1230    2.1550   66.0480 N.am  278  SER278     -0.1938
     65  CA        10.3950    0.8150   65.5040 C.3   278  SER278      0.2055
     66  C          9.1430    0.1000   65.0540 C.2   278  SER278      0.2644
     67  O          8.0490    0.3800   65.5440 O.2   278  SER278     -0.2714
     68  CB        11.1420   -0.0740   66.5010 C.3   278  SER278      0.2130
     69  OG        10.3090   -0.4350   67.5960 O.3   278  SER278     -0.2179
     70  N          9.3220   -0.8170   64.1070 N.am  279  GLY279     -0.1939
     71  CA         8.2400   -1.6200   63.5880 C.3   279  GLY279      0.2014
     72  C          8.7340   -3.0370   63.3860 C.2   279  GLY279      0.2639
     73  O          9.0890   -3.7220   64.3470 O.2   279  GLY279     -0.2714
     74  N          8.7530   -3.4870   62.1370 N.am  280  TRP280     -0.1959
     75  CA         9.4110   -4.7450   61.8030 C.3   280  TRP280      0.1771
     76  C          9.9460   -4.7350   60.3710 C.2   280  TRP280      0.2619
     77  O          9.4820   -3.9610   59.5320 O.2   280  TRP280     -0.2715
     78  CB         8.4930   -5.9380   62.0160 C.3   280  TRP280      0.0590
     79  CG         7.1770   -5.8320   61.3620 C.ar  280  TRP280      0.0006
     80  CD1        6.8880   -6.0870   60.0530 C.ar  280  TRP280      0.0946
     81  CD2        5.9400   -5.4800   61.9900 C.ar  280  TRP280      0.0152
     82  NE1        5.5460   -5.9040   59.8230 N.ar  280  TRP280     -0.2442
     83  CE2        4.9410   -5.5300   60.9950 C.ar  280  TRP280      0.0810
     84  CE3        5.5800   -5.1260   63.2960 C.ar  280  TRP280      0.0012
     85  CZ2        3.6000   -5.2310   61.2640 C.ar  280  TRP280      0.0191
     86  CZ3        4.2450   -4.8340   63.5650 C.ar  280  TRP280      0.0001
     87  CH2        3.2710   -4.8910   62.5510 C.ar  280  TRP280      0.0015
     88  N         10.9260   -5.5960   60.1080 N.am  281  TYR281     -0.1974
     89  CA        11.6250   -5.6090   58.8280 C.3   281  TYR281      0.1639
     90  C         10.7710   -6.1230   57.6690 C.2   281  TYR281      0.2290
     91  O          9.9670   -7.0640   57.8070 O.2   281  TYR281     -0.2864
     92  CB        12.8750   -6.4780   58.9260 C.3   281  TYR281      0.0560
     93  CG        14.1400   -5.7410   59.2990 C.ar  281  TYR281     -0.0198
     94  CD1       14.6860   -4.7860   58.4500 C.ar  281  TYR281     -0.0009
     95  CD2       14.7970   -6.0030   60.4970 C.ar  281  TYR281     -0.0009
     96  CE1       15.8460   -4.1160   58.7820 C.ar  281  TYR281      0.0417
     97  CE2       15.9720   -5.3400   60.8290 C.ar  281  TYR281      0.0417
     98  CZ        16.4860   -4.3990   59.9690 C.ar  281  TYR281      0.1957
     99  OH        17.6440   -3.7290   60.2840 O.3   281  TYR281     -0.2866
    100  N         14.9380   -5.2120   53.0810 N.3   285  GLU285     -0.1245
    101  CA        15.8140   -4.2900   53.8120 C.3   285  GLU285      0.1567
    102  C         17.1130   -4.9580   54.2470 C.2   285  GLU285      0.2260
    103  O         18.1870   -4.3930   54.0840 O.2   285  GLU285     -0.2867
    104  CB        15.1150   -3.7100   55.0310 C.3   285  GLU285      0.0388
    105  CG        13.9010   -2.8700   54.7070 C.3   285  GLU285      0.1160
    106  CD        13.2660   -2.3090   55.9660 C.2   285  GLU285      0.3649
    107  OE1       13.7500   -1.2540   56.4410 O.co2 285  GLU285     -0.2457
    108  OE2       12.2970   -2.9210   56.4850 O.co2 285  GLU285     -0.2457
    109  N         19.4750   -4.7240   50.6070 N.3   289  ARG289     -0.1245
    110  CA        20.2660   -3.5930   51.0640 C.3   289  ARG289      0.1563
    111  C         21.3760   -4.0430   52.0310 C.2   289  ARG289      0.2260
    112  O         22.5620   -3.9130   51.7030 O.2   289  ARG289     -0.2867
    113  CB        19.3690   -2.5020   51.6770 C.3   289  ARG289      0.0307
    114  CG        18.0630   -2.1830   50.8830 C.3   289  ARG289      0.0489
    115  CD        18.2580   -1.8950   49.3550 C.3   289  ARG289      0.2205
    116  NE        19.3690   -0.9820   49.0770 N.pl3 289  ARG289     -0.0865
    117  CZ        19.3440    0.3360   49.2860 C.cat 289  ARG289      0.5346
    118  NH1       18.2440    0.9180   49.7670 N.pl3 289  ARG289      0.1354
    119  NH2       20.4240    1.0740   49.0150 N.pl3 289  ARG289      0.1354
    120  N         10.8020    5.3950   46.7410 N.3   371  TRP371     -0.1241
    121  CA        11.1040    4.7250   48.0040 C.3   371  TRP371      0.1605
    122  C         10.1090    3.6090   48.3150 C.2   371  TRP371      0.2264
    123  O         10.4350    2.6470   49.0090 O.2   371  TRP371     -0.2867
    124  CB        11.1710    5.7580   49.1550 C.3   371  TRP371      0.0550
    125  CG        12.4380    6.5640   49.0860 C.ar  371  TRP371      0.0003
    126  CD1       12.7650    7.5180   48.1460 C.ar  371  TRP371      0.0946
    127  CD2       13.5720    6.4500   49.9540 C.ar  371  TRP371      0.0152
    128  NE1       14.0250    8.0060   48.3930 N.ar  371  TRP371     -0.2442
    129  CE2       14.5470    7.3600   49.4860 C.ar  371  TRP371      0.0810
    130  CE3       13.8530    5.6720   51.0830 C.ar  371  TRP371      0.0012
    131  CZ2       15.7830    7.5090   50.1110 C.ar  371  TRP371      0.0191
    132  CZ3       15.0740    5.8260   51.7040 C.ar  371  TRP371      0.0001
    133  CH2       16.0300    6.7390   51.2150 C.ar  371  TRP371      0.0015
    134  N         14.5120   14.6670   58.4970 N.3   399  TYR399     -0.1241
    135  CA        15.9330   14.4110   58.6770 C.3   399  TYR399      0.1605
    136  C         16.5280   15.4850   59.5480 C.2   399  TYR399      0.2264
    137  O         15.9350   16.5500   59.7290 O.2   399  TYR399     -0.2867
    138  CB        16.6590   14.3730   57.3400 C.3   399  TYR399      0.0534
    139  CG        16.1180   13.2760   56.4810 C.ar  399  TYR399     -0.0201
    140  CD1       16.4040   11.9460   56.7700 C.ar  399  TYR399     -0.0009
    141  CD2       15.2720   13.5590   55.4170 C.ar  399  TYR399     -0.0009
    142  CE1       15.8950   10.9340   56.0030 C.ar  399  TYR399      0.0417
    143  CE2       14.7570   12.5530   54.6430 C.ar  399  TYR399      0.0417
    144  CZ        15.0720   11.2440   54.9430 C.ar  399  TYR399      0.1957
    145  OH        14.5620   10.2400   54.1690 O.3   399  TYR399     -0.2866
@<TRIPOS>BOND
     1   120   121    1
     2     1     2    1
     3   121   122    1
     4   121   124    1
     5   126   128   ar
     6   126   125   ar
     7     7     5    1
     8   122   123    2
     9   128   129   ar
    10     2     5    1
    11     2     3    1
    12   119   117    1
    13   116   117    2
    14   116   115    1
    15   125   124    1
    16   125   127   ar
    17   117   118    1
    18     5     6    1
    19   115   114    1
    20    11    10    2
    21   129   127   ar
    22   129   131   ar
    23   127   130   ar
    24     8     3   am
    25     8     9    1
    26     3     4    2
    27   131   133   ar
    28    10     9    1
    29   109   110    1
    30   114   113    1
    31   110   113    1
    32   110   111    1
    33     9    12    1
    34   130   132   ar
    35   133   132   ar
    36   112   111    2
    37    12    13    1
    38    13    14    1
    39    13    15    1
    40   100   101    1
    41    16    17    1
    42    19    18    2
    43    18    17    1
    44   101   102    1
    45   101   104    1
    46   103   102    2
    47   145   144    1
    48    17    20    1
    49   143   144   ar
    50   143   141   ar
    51   105   104    1
    52   105   106    1
    53   144   142   ar
    54   141   139   ar
    55    20    21    1
    56   106   107   ar
    57   106   108   ar
    58   142   140   ar
    59   139   140   ar
    60   139   138    1
    61   138   135    1
    62    90    91    2
    63    90    89    1
    64    94    96   ar
    65    94    93   ar
    66   134   135    1
    67   135   136    1
    68    52    51    1
    69    96    98   ar
    70    89    92    1
    71    89    88    1
    72    92    93    1
    73    93    95   ar
    74    77    76    2
    75   136   137    2
    76    51    50    1
    77    82    80   ar
    78    82    83   ar
    79    98    99    1
    80    98    97   ar
    81    80    79   ar
    82    88    76   am
    83    76    75    1
    84    95    97   ar
    85    29    28    2
    86    50    49    1
    87    83    85   ar
    88    83    81   ar
    89    44    42    1
    90    85    87   ar
    91    79    81   ar
    92    79    78    1
    93    28    30   am
    94    28    27    1
    95    35    36    1
    96    35    32    1
    97    75    78    1
    98    75    74    1
    99    43    42    1
   100    36    37    1
   101    81    84   ar
   102    49    46    1
   103    74    72   am
   104    63    61   ar
   105    63    62   ar
   106    61    59   ar
   107    42    39    1
   108    27    26    1
   109    87    86   ar
   110    46    45    1
   111    46    47    1
   112    32    31    1
   113    32    33    1
   114    37    31    1
   115    84    86   ar
   116    62    60   ar
   117    72    71    1
   118    72    73    2
   119    59    58   ar
   120    39    38    1
   121    39    40    1
   122    71    70    1
   123    47    48    2
   124    26    23    1
   125    33    34    2
   126    70    66   am
   127    22    23    1
   128    60    58   ar
   129    58    57    1
   130    40    41    2
   131    23    24    1
   132    66    65    1
   133    66    67    2
   134    56    55    2
   135    65    64    1
   136    65    68    1
   137    57    54    1
   138    55    64   am
   139    55    54    1
   140    24    25    2
   141    68    69    1
   142    54    53    1
