@<TRIPOS>MOLECULE
tmp/5adgB04.pdb
 93 88 0 0 0
SMALL
GASTEIGER

@<TRIPOS>ATOM
      1  N        107.0220  275.4040  314.1450 N.3    43  LYS43      -0.1231
      2  CA       108.2470  276.0880  313.7300 C.3    43  LYS43       0.1693
      3  C        108.9610  276.7490  314.9120 C.2    43  LYS43       0.2592
      4  O        110.1970  276.7630  314.9850 O.2    43  LYS43      -0.2718
      5  CB       107.9270  277.1700  312.6970 C.3    43  LYS43       0.0285
      6  CG       107.2650  276.6890  311.4230 C.3    43  LYS43       0.0035
      7  CD       106.9290  277.8860  310.5430 C.3    43  LYS43       0.0206
      8  CE       106.3700  277.4640  309.1970 C.3    43  LYS43       0.1093
      9  NZ       105.9740  278.6480  308.3840 N.3    43  LYS43      -0.1314
     10  N        108.1590  277.2980  315.8250 N.am   44  ASP44      -0.1974
     11  CA       108.6520  278.0290  316.9860 C.3    44  ASP44       0.1709
     12  C        109.3000  277.0990  318.0010 C.2    44  ASP44       0.2293
     13  O        110.2910  277.4550  318.6380 O.2    44  ASP44      -0.2864
     14  CB       107.5060  278.8000  317.6510 C.3    44  ASP44       0.1436
     15  CG       106.7070  279.6320  316.6620 C.2    44  ASP44       0.3671
     16  OD1      107.2330  280.6630  316.1880 O.co2  44  ASP44      -0.2456
     17  OD2      105.5500  279.2560  316.3660 O.co2  44  ASP44      -0.2456
     18  N        112.7650  275.0710  315.7070 N.3    47  PHE47      -0.1228
     19  CA       114.1080  275.6160  315.4930 C.3    47  PHE47       0.1721
     20  C        115.0630  275.5460  316.7010 C.2    47  PHE47       0.2437
     21  O        116.1940  275.0750  316.5520 O.2    47  PHE47      -0.2733
     22  CB       114.1090  277.0260  314.8890 C.3    47  PHE47       0.0547
     23  CG       115.4910  277.5160  314.5620 C.ar   47  PHE47      -0.0202
     24  CD1      116.1130  277.1250  313.3850 C.ar   47  PHE47      -0.0042
     25  CD2      116.1890  278.3220  315.4520 C.ar   47  PHE47      -0.0042
     26  CE1      117.3930  277.5520  313.0860 C.ar   47  PHE47      -0.0003
     27  CE2      117.4700  278.7520  315.1620 C.ar   47  PHE47      -0.0003
     28  CZ       118.0740  278.3660  313.9770 C.ar   47  PHE47      -0.0000
     29  N        114.6240  276.0180  317.8900 N.am   48  PRO48      -0.2729
     30  CA       115.5640  275.9360  319.0140 C.3    48  PRO48       0.1401
     31  C        116.0040  274.5040  319.3170 C.2    48  PRO48       0.2269
     32  O        117.1360  274.2990  319.7520 O.2    48  PRO48      -0.2865
     33  CB       114.7760  276.5330  320.1950 C.3    48  PRO48       0.0296
     34  CG       113.3500  276.5810  319.7500 C.3    48  PRO48       0.0237
     35  CD       113.3940  276.7420  318.2590 C.3    48  PRO48       0.0939
     36  N        118.4860  273.7790  316.5160 N.3    51  LYS51      -0.1245
     37  CA       119.7220  274.5170  316.7770 C.3    51  LYS51       0.1561
     38  C        120.5530  273.8440  317.8620 C.2    51  LYS51       0.2260
     39  O        121.7660  273.6770  317.7240 O.2    51  LYS51      -0.2867
     40  CB       119.4290  275.9670  317.1840 C.3    51  LYS51       0.0271
     41  CG       120.6830  276.7250  317.6510 C.3    51  LYS51       0.0035
     42  CD       120.3870  278.1590  318.0720 C.3    51  LYS51       0.0206
     43  CE       121.6700  278.9740  318.1810 C.3    51  LYS51       0.1093
     44  NZ       122.6250  278.3630  319.1510 N.3    51  LYS51      -0.1314
     45  N        127.4940  277.8620  310.8960 N.3    70  MET70      -0.1245
     46  CA       126.5860  278.9820  310.6920 C.3    70  MET70       0.1570
     47  C        125.6960  278.7960  309.4610 C.2    70  MET70       0.2261
     48  O        124.5000  279.0910  309.4990 O.2    70  MET70      -0.2867
     49  CB       127.3760  280.2940  310.6090 C.3    70  MET70       0.0387
     50  CG       127.9610  280.7180  311.9490 C.3    70  MET70       0.0595
     51  SD       126.7080  280.7730  313.2600 S.3    70  MET70      -0.1393
     52  CE       127.2930  279.5100  314.3990 C.3    70  MET70       0.0692
     53  N        122.8580  276.2760  310.1620 N.3    73  LEU73      -0.1231
     54  CA       121.7940  276.8690  310.9720 C.3    73  LEU73       0.1693
     55  C        120.8260  277.6870  310.1180 C.2    73  LEU73       0.2591
     56  O        119.6040  277.5430  310.2390 O.2    73  LEU73      -0.2718
     57  CB       122.3760  277.7310  312.0940 C.3    73  LEU73       0.0284
     58  CG       123.0000  276.9850  313.2730 C.3    73  LEU73       0.0019
     59  CD1      123.6070  277.9520  314.2800 C.3    73  LEU73       0.0001
     60  CD2      121.9620  276.0960  313.9510 C.3    73  LEU73       0.0001
     61  N        121.3760  278.5390  309.2550 N.am   74  GLU74      -0.1979
     62  CA       120.5630  279.3270  308.3410 C.3    74  GLU74       0.1602
     63  C        119.7870  278.4330  307.3830 C.2    74  GLU74       0.2287
     64  O        118.6130  278.6770  307.1060 O.2    74  GLU74      -0.2864
     65  CB       121.4270  280.3170  307.5520 C.3    74  GLU74       0.0415
     66  CG       120.6210  281.2120  306.6230 C.3    74  GLU74       0.1163
     67  CD       119.5170  281.9650  307.3510 C.2    74  GLU74       0.3649
     68  OE1      119.7050  282.3100  308.5390 O.co2  74  GLU74      -0.2457
     69  OE2      118.4570  282.2110  306.7350 O.co2  74  GLU74      -0.2457
     70  N        116.9590  276.9400  309.2720 N.3    77  ASN77      -0.1240
     71  CA       115.9700  277.9690  309.5810 C.3    77  ASN77       0.1653
     72  C        115.0500  278.2480  308.4000 C.2    77  ASN77       0.2266
     73  O        113.8270  278.2550  308.5470 O.2    77  ASN77      -0.2867
     74  CB       116.6470  279.2700  310.0160 C.3    77  ASN77       0.1155
     75  CG       115.6430  280.3410  310.4080 C.2    77  ASN77       0.2627
     76  OD1      114.7350  280.0870  311.1990 O.2    77  ASN77      -0.2716
     77  ND2      115.7910  281.5370  309.8440 N.am   77  ASN77      -0.0877
     78  N        112.7530  275.2460  307.7880 N.3    80  ILE80      -0.1231
     79  CA       111.6180  275.2280  308.6970 C.3    80  ILE80       0.1692
     80  C        110.5840  276.2880  308.2950 C.2    80  ILE80       0.2592
     81  O        109.3800  276.0390  308.3440 O.2    80  ILE80      -0.2718
     82  CB       112.0620  275.4080  310.1680 C.3    80  ILE80       0.0266
     83  CG1      112.9440  274.2340  310.6000 C.3    80  ILE80       0.0019
     84  CG2      110.8580  275.5120  311.0860 C.3    80  ILE80       0.0020
     85  CD1      113.4590  274.3460  312.0270 C.3    80  ILE80       0.0001
     86  N        111.0550  277.4600  307.8760 N.am   81  ASP81      -0.1974
     87  CA       110.1580  278.5390  307.4640 C.3    81  ASP81       0.1709
     88  C        109.2660  278.1410  306.2870 C.2    81  ASP81       0.2293
     89  O        108.0620  278.3920  306.3010 O.2    81  ASP81      -0.2864
     90  CB       110.9550  279.7950  307.0950 C.3    81  ASP81       0.1436
     91  CG       111.3530  280.6210  308.3060 C.2    81  ASP81       0.3671
     92  OD1      110.6710  280.5350  309.3490 O.co2  81  ASP81      -0.2456
     93  OD2      112.3460  281.3730  308.2080 O.co2  81  ASP81      -0.2456
@<TRIPOS>BOND
     1    88    89    2
     2    88    87    1
     3    66    67    1
     4    66    65    1
     5    69    67   ar
     6    90    87    1
     7    90    91    1
     8    64    63    2
     9    67    68   ar
    10    63    62    1
    11    87    86    1
    12    65    62    1
    13    78    79    1
    14    86    80   am
    15    93    91   ar
    16    80    81    2
    17    80    79    1
    18    91    92   ar
    19    62    61    1
    20     9     8    1
    21    72    73    2
    22    72    71    1
    23    79    82    1
    24     8     7    1
    25    61    55   am
    26    70    71    1
    27    47    48    2
    28    47    46    1
    29    71    74    1
    30    77    75   am
    31    74    75    1
    32    55    56    2
    33    55    54    1
    34    53    54    1
    35    82    83    1
    36    82    84    1
    37    75    76    2
    38     7     6    1
    39    83    85    1
    40    49    46    1
    41    49    50    1
    42    46    45    1
    43    54    57    1
    44     6     5    1
    45    50    51    1
    46    57    58    1
    47     5     2    1
    48    26    24   ar
    49    26    28   ar
    50    51    52    1
    51    58    60    1
    52    58    59    1
    53    24    23   ar
    54     2     1    1
    55     2     3    1
    56    28    27   ar
    57    23    22    1
    58    23    25   ar
    59    22    19    1
    60     3     4    2
    61     3    10   am
    62    27    25   ar
    63    19    18    1
    64    19    20    1
    65    10    11    1
    66    16    15   ar
    67    17    15   ar
    68    36    37    1
    69    21    20    2
    70    15    14    1
    71    20    29   am
    72    37    40    1
    73    37    38    1
    74    11    14    1
    75    11    12    1
    76    40    41    1
    77    41    42    1
    78    39    38    2
    79    29    35    1
    80    29    30    1
    81    12    13    2
    82    42    43    1
    83    43    44    1
    84    35    34    1
    85    30    31    1
    86    30    33    1
    87    31    32    2
    88    34    33    1
