@<TRIPOS>MOLECULE
tmp/5adhA00.pdb
 212 206 0 0 0
SMALL
GASTEIGER

@<TRIPOS>ATOM
      1  N          7.6650    8.4760   22.0500 N.3    47  ARG47      -0.1231
      2  CA         7.2830    7.1180   22.5020 C.3    47  ARG47       0.1694
      3  C          5.7720    6.7910   22.2780 C.2    47  ARG47       0.2592
      4  O          5.4130    5.6770   21.8720 O.2    47  ARG47      -0.2718
      5  CB         7.3690    6.9530   24.0370 C.3    47  ARG47       0.0321
      6  CG         8.7880    6.6730   24.5620 C.3    47  ARG47       0.0489
      7  CD         9.4470    5.3910   24.0230 C.3    47  ARG47       0.2205
      8  NE        10.9190    5.4320   24.1780 N.pl3  47  ARG47      -0.0865
      9  CZ        11.7470    4.3760   24.0840 C.cat  47  ARG47       0.5346
     10  NH1       11.2780    3.1470   23.8280 N.pl3  47  ARG47       0.1354
     11  NH2       13.0770    4.4530   24.2340 N.pl3  47  ARG47       0.1354
     12  N          4.8760    7.7520   22.5570 N.am   48  SER48      -0.1952
     13  CA         3.3960    7.5060   22.5090 C.3    48  SER48       0.1924
     14  C          2.8820    7.0890   21.1250 C.2    48  SER48       0.2314
     15  O          1.8940    6.3500   21.0100 O.2    48  SER48      -0.2863
     16  CB         2.6000    8.7490   22.9180 C.3    48  SER48       0.2116
     17  OG         2.5380    8.8480   24.3330 O.3    48  SER48      -0.2180
     18  N          3.3790    3.5520   21.0050 N.3    51  HIS51      -0.1241
     19  CA         2.4390    2.7380   21.8200 C.3    51  HIS51       0.1621
     20  C          1.3120    2.2600   20.9230 C.2    51  HIS51       0.2264
     21  O          0.9780    1.0690   20.9110 O.2    51  HIS51      -0.2867
     22  CB         1.8550    3.5300   22.9790 C.3    51  HIS51       0.0745
     23  CG         2.9260    3.8970   23.9730 C.ar   51  HIS51       0.0817
     24  ND1        4.0030    3.0650   24.2290 N.ar   51  HIS51      -0.2268
     25  CD2        3.0720    4.9800   24.7750 C.ar   51  HIS51       0.1154
     26  CE1        4.7480    3.6380   25.1560 C.ar   51  HIS51       0.1986
     27  NE2        4.2050    4.7810   25.4900 N.ar   51  HIS51      -0.2212
     28  N          6.4070   19.1160   27.5490 N.3   178  THR178     -0.1218
     29  CA         5.9620   18.1140   28.5260 C.3   178  THR178      0.1862
     30  C          6.9010   18.0620   29.7430 C.2   178  THR178      0.2287
     31  O          6.4590   17.9170   30.8920 O.2   178  THR178     -0.2866
     32  CB         5.9100   16.7420   27.8690 C.3   178  THR178      0.1770
     33  OG1        4.7120   16.6100   27.1220 O.3   178  THR178     -0.2211
     34  CG2        5.9520   15.5940   28.8800 C.3   178  THR178      0.0375
     35  N         14.6240   11.5960   37.3970 N.3   198  PHE198     -0.1227
     36  CA        14.8060   10.1830   37.0660 C.3   198  PHE198      0.1736
     37  C         14.5040   10.0000   35.5810 C.2   198  PHE198      0.2596
     38  O         13.3580   10.1580   35.1370 O.2   198  PHE198     -0.2718
     39  CB        13.8460    9.3320   37.8970 C.3   198  PHE198      0.0547
     40  CG        14.2820    9.2360   39.3530 C.ar  198  PHE198     -0.0202
     41  CD1       14.8520    8.0570   39.8300 C.ar  198  PHE198     -0.0042
     42  CD2       14.1180   10.3330   40.2040 C.ar  198  PHE198     -0.0042
     43  CE1       15.2740    7.9790   41.1590 C.ar  198  PHE198     -0.0003
     44  CE2       14.5420   10.2550   41.5290 C.ar  198  PHE198     -0.0003
     45  CZ        15.1230    9.0800   42.0060 C.ar  198  PHE198     -0.0000
     46  N         15.5260    9.6690   34.8260 N.am  199  GLY199     -0.1942
     47  CA        15.3970    9.5000   33.3710 C.3   199  GLY199      0.2014
     48  C         16.0490   10.6900   32.6790 C.2   199  GLY199      0.2639
     49  O         15.6310   11.8430   32.8590 O.2   199  GLY199     -0.2714
     50  N         17.0610   10.3740   31.9030 N.am  200  LEU200     -0.1963
     51  CA        17.8710   11.3960   31.2390 C.3   200  LEU200      0.1728
     52  C         17.6620   11.3960   29.7070 C.2   200  LEU200      0.2617
     53  O         18.5710   11.7430   28.9370 O.2   200  LEU200     -0.2715
     54  CB        19.3310   11.1720   31.6010 C.3   200  LEU200      0.0311
     55  CG        19.8610   12.2630   32.5320 C.3   200  LEU200      0.0022
     56  CD1       18.7710   12.8860   33.4010 C.3   200  LEU200      0.0001
     57  CD2       20.9260   11.7560   33.5000 C.3   200  LEU200      0.0001
     58  N         16.4530   11.0130   29.3370 N.am  201  GLY201     -0.1940
     59  CA        16.0030   11.0000   27.9460 C.3   201  GLY201      0.2014
     60  C         15.7390   12.4440   27.5110 C.2   201  GLY201      0.2639
     61  O         16.2680   13.3900   28.1100 O.2   201  GLY201     -0.2714
     62  N         14.9110   12.5600   26.4800 N.am  202  GLY202     -0.1939
     63  CA        14.5540   13.8520   25.8400 C.3   202  GLY202      0.2014
     64  C         13.6640   14.7190   26.7370 C.2   202  GLY202      0.2639
     65  O         13.9650   15.8930   26.9890 O.2   202  GLY202     -0.2714
     66  N         12.5660   14.1330   27.1980 N.am  203  VAL203     -0.1963
     67  CA        11.6160   14.8460   28.0860 C.3   203  VAL203      0.1727
     68  C         12.3050   15.1500   29.3870 C.2   203  VAL203      0.2616
     69  O         12.0750   16.2050   29.9920 O.2   203  VAL203     -0.2715
     70  CB        10.3900   13.9950   28.3990 C.3   203  VAL203      0.0290
     71  CG1        9.4720   14.6500   29.4310 C.3   203  VAL203      0.0023
     72  CG2        9.5170   13.7210   27.1650 C.3   203  VAL203      0.0023
     73  N         13.1230   14.1840   29.7320 N.am  204  GLY204     -0.1955
     74  CA        13.9460   14.2210   30.9280 C.3   204  GLY204      0.1869
     75  C         14.8700   15.4310   30.8650 C.2   204  GLY204      0.2309
     76  O         14.9980   16.1930   31.8380 O.2   204  GLY204     -0.2863
     77  N         19.4610   11.3910   37.2650 N.3   222  VAL222     -0.1231
     78  CA        19.8170   10.0140   37.5380 C.3   222  VAL222      0.1692
     79  C         19.2750    9.0840   36.4500 C.2   222  VAL222      0.2592
     80  O         18.1040    9.1700   36.0500 O.2   222  VAL222     -0.2718
     81  CB        19.3130    9.6420   38.9280 C.3   222  VAL222      0.0266
     82  CG1       18.3500   10.6760   39.5030 C.3   222  VAL222      0.0020
     83  CG2       18.5660    8.3090   38.9580 C.3   222  VAL222      0.0020
     84  N         20.1860    8.2290   36.0380 N.am  223  ASP223     -0.1960
     85  CA        19.9900    7.2520   34.9740 C.3   223  ASP223      0.1840
     86  C         21.0680    6.1680   35.1130 C.2   223  ASP223      0.2622
     87  O         22.1580    6.4200   35.6380 O.2   223  ASP223     -0.2715
     88  CB        20.1620    7.9790   33.6410 C.3   223  ASP223      0.1450
     89  CG        19.3910    7.4760   32.5700 C.2   223  ASP223      0.3671
     90  OD1       18.6800    8.3000   31.9560 O.co2 223  ASP223     -0.2456
     91  OD2       19.3610    6.2220   32.2160 O.co2 223  ASP223     -0.2456
     92  N         20.7510    4.9770   34.6340 N.am  224  ILE224     -0.1963
     93  CA        21.6770    3.8230   34.6890 C.3   224  ILE224      0.1727
     94  C         22.4950    3.6850   33.4090 C.2   224  ILE224      0.2616
     95  O         23.0400    2.6080   33.1180 O.2   224  ILE224     -0.2715
     96  CB        20.8000    2.6000   34.9300 C.3   224  ILE224      0.0290
     97  CG1       19.6910    2.4630   33.8740 C.3   224  ILE224      0.0022
     98  CG2       20.1010    2.6300   36.2910 C.3   224  ILE224      0.0023
     99  CD1       19.0890    1.0530   33.7990 C.3   224  ILE224      0.0001
    100  N         22.5610    4.7720   32.6600 N.am  225  ASN225     -0.1972
    101  CA        23.3380    4.8160   31.4050 C.3   225  ASN225      0.1688
    102  C         24.2320    6.0300   31.3960 C.2   225  ASN225      0.2292
    103  O         23.7800    7.1380   31.0710 O.2   225  ASN225     -0.2864
    104  CB        22.4240    4.9130   30.2030 C.3   225  ASN225      0.1181
    105  CG        22.9760    4.1390   29.0030 C.2   225  ASN225      0.2629
    106  OD1       22.9470    2.8990   29.0180 O.2   225  ASN225     -0.2716
    107  ND2       23.4770    4.8050   27.9650 N.am  225  ASN225     -0.0877
    108  N         24.1930    8.9800   28.9040 N.3   228  LYS228     -0.1245
    109  CA        23.2630   10.1080   28.8530 C.3   228  LYS228      0.1565
    110  C         23.6900   11.2880   29.7290 C.2   228  LYS228      0.2260
    111  O         23.1030   12.3790   29.6580 O.2   228  LYS228     -0.2867
    112  CB        21.9240    9.7060   29.4130 C.3   228  LYS228      0.0312
    113  CG        21.4810    8.4050   29.3330 C.3   228  LYS228      0.0083
    114  CD        21.1940    8.6860   27.9310 C.3   228  LYS228      0.0452
    115  CE        20.5950    7.5240   27.2080 C.2   228  LYS228      0.0953
    116  NZ        19.3970    7.3430   27.2890 N.2   228  LYS228     -0.1514
    117  N         22.5500    4.7450   39.5320 N.2   243  PRO243     -0.2584
    118  CA        22.2500    3.9100   40.6540 C.3   243  PRO243      0.1895
    119  C         22.8750    2.5670   40.5820 C.2   243  PRO243      0.2359
    120  O         22.7450    1.7670   41.5580 O.2   243  PRO243     -0.2858
    121  CB        20.7540    3.7840   40.6380 C.2   243  PRO243      0.0071
    122  CG        20.2370    4.5840   39.4640 C.2   243  PRO243      0.0180
    123  CD        21.4000    5.1920   38.7540 C.2   243  PRO243      0.0937
    124  N         10.5870   10.7590   34.9010 N.3   268  VAL268     -0.1231
    125  CA        10.3910   10.8890   33.4390 C.3   268  VAL268      0.1692
    126  C         10.8190    9.6360   32.6710 C.2   268  VAL268      0.2592
    127  O         11.2630    9.7110   31.5090 O.2   268  VAL268     -0.2718
    128  CB        11.2200   12.0310   32.8640 C.3   268  VAL268      0.0266
    129  CG1       11.8470   12.9200   33.9380 C.3   268  VAL268      0.0020
    130  CG2       12.3800   11.5360   31.9990 C.3   268  VAL268      0.0020
    131  N         10.6900    8.5120   33.3290 N.am  269  ILE269     -0.1966
    132  CA        10.9450    7.2340   32.6760 C.3   269  ILE269      0.1727
    133  C          9.6030    6.5490   32.4070 C.2   269  ILE269      0.2617
    134  O          9.3410    6.0810   31.2850 O.2   269  ILE269     -0.2715
    135  CB        11.7770    6.2790   33.5320 C.3   269  ILE269      0.0290
    136  CG1       13.0300    6.9190   34.1210 C.3   269  ILE269      0.0022
    137  CG2       12.2680    5.0590   32.7490 C.3   269  ILE269      0.0023
    138  CD1       13.6200    6.1110   35.2780 C.3   269  ILE269      0.0001
    139  N          8.8340    6.4190   33.5250 N.am  270  GLY270     -0.1940
    140  CA         7.4680    5.8850   33.4740 C.3   270  GLY270      0.2014
    141  C          7.3820    4.5440   34.2140 C.2   270  GLY270      0.2638
    142  O          6.3620    3.8420   34.1570 O.2   270  GLY270     -0.2714
    143  N          8.4530    4.2100   34.9010 N.am  271  ARG271     -0.1977
    144  CA         8.5360    2.9550   35.6620 C.3   271  ARG271      0.1597
    145  C          7.8210    3.0970   37.0050 C.2   271  ARG271      0.2287
    146  O          7.9190    4.1360   37.6720 O.2   271  ARG271     -0.2864
    147  CB         9.9900    2.6020   35.9190 C.3   271  ARG271      0.0334
    148  CG        10.5950    1.7740   34.7930 C.3   271  ARG271      0.0492
    149  CD        11.7430    0.8910   35.2650 C.3   271  ARG271      0.2205
    150  NE        11.4870   -0.5380   35.0540 N.pl3 271  ARG271     -0.0865
    151  CZ        12.2920   -1.5110   35.4930 C.cat 271  ARG271      0.5346
    152  NH1       13.4110   -1.2260   36.1720 N.pl3 271  ARG271      0.1354
    153  NH2       12.0630   -2.8170   35.2970 N.pl3 271  ARG271      0.1354
    154  N          8.2830    1.3200   39.8230 N.3   273  ASP273     -0.1225
    155  CA         9.1560    1.2700   40.9860 C.3   273  ASP273      0.1805
    156  C          9.8760    2.5850   41.1550 C.2   273  ASP273      0.2598
    157  O         10.0160    3.0990   42.2750 O.2   273  ASP273     -0.2718
    158  CB        10.1760    0.1410   40.8490 C.3   273  ASP273      0.1424
    159  CG        10.8800   -0.3610   39.5960 C.2   273  ASP273      0.3668
    160  OD1       10.2020   -0.9110   38.6530 O.co2 273  ASP273     -0.2456
    161  OD2       12.1570   -0.2340   39.4840 O.co2 273  ASP273     -0.2456
    162  N         10.3260    3.0970   40.0470 N.am  274  THR274     -0.1953
    163  CA        11.0280    4.3600   40.0460 C.3   274  THR274      0.1897
    164  C         10.0520    5.4530   40.4660 C.2   274  THR274      0.2313
    165  O         10.4530    6.5110   40.9650 O.2   274  THR274     -0.2863
    166  CB        11.6020    4.6340   38.6610 C.3   274  THR274      0.1794
    167  OG1       12.0850    3.4300   38.0970 O.3   274  THR274     -0.2208
    168  CG2       12.7720    5.6180   38.6760 C.3   274  THR274      0.0378
    169  N          5.8290   12.5360   35.1440 N.3   292  VAL292     -0.1231
    170  CA         5.7530   13.1660   33.8390 C.3   292  VAL292      0.1692
    171  C          5.1150   12.2090   32.8490 C.2   292  VAL292      0.2593
    172  O          4.5110   12.6260   31.8510 O.2   292  VAL292     -0.2718
    173  CB         7.1550   13.5910   33.4140 C.3   292  VAL292      0.0266
    174  CG1        7.1840   14.3260   32.0730 C.3   292  VAL292      0.0020
    175  CG2        7.8150   14.5440   34.4170 C.3   292  VAL292      0.0020
    176  N          5.2460   10.9330   33.1410 N.am  293  GLY293     -0.1942
    177  CA         4.6940    9.9040   32.2590 C.3   293  GLY293      0.2014
    178  C          4.5710    8.5410   32.9430 C.2   293  GLY293      0.2639
    179  O          5.4020    8.1770   33.7880 O.2   293  GLY293     -0.2714
    180  N          3.5040    7.8910   32.4930 N.am  294  VAL294     -0.1963
    181  CA         3.0790    6.5320   32.8750 C.3   294  VAL294      0.1715
    182  C          2.5920    5.8360   31.5950 C.2   294  VAL294      0.2495
    183  O          1.6740    6.3210   30.9170 O.2   294  VAL294     -0.2727
    184  CB         1.9490    6.6110   33.9250 C.3   294  VAL294      0.0289
    185  CG1        1.0690    7.8530   33.7800 C.3   294  VAL294      0.0023
    186  CG2        0.9810    5.4270   33.8680 C.3   294  VAL294      0.0023
    187  N          3.1710    4.6890   31.2120 N.am  295  PRO295     -0.2504
    188  CA         2.7920    3.9920   29.9820 C.3   295  PRO295      0.1487
    189  C          1.3280    3.6510   29.9640 C.2   295  PRO295      0.2276
    190  O          0.7570    3.3460   31.0540 O.2   295  PRO295     -0.2865
    191  CB         3.6630    2.7750   29.9580 C.3   295  PRO295      0.0556
    192  CG         4.5450    2.8140   31.2010 C.2   295  PRO295     -0.0078
    193  CD         4.2220    4.0470   31.9890 C.2   295  PRO295      0.0634
    194  N         17.9850   10.6040   21.0170 N.3   368  ILE368     -0.1231
    195  CA        17.2730   11.4620   21.9640 C.3   368  ILE368      0.1692
    196  C         15.9370   11.9050   21.3090 C.2   368  ILE368      0.2591
    197  O         14.8590   11.7760   21.9030 O.2   368  ILE368     -0.2718
    198  CB        18.1630   12.6440   22.3710 C.3   368  ILE368      0.0266
    199  CG1       19.3970   12.2210   23.1790 C.3   368  ILE368      0.0019
    200  CG2       17.4390   13.6640   23.2540 C.3   368  ILE368      0.0020
    201  CD1       19.0470   11.3780   24.4170 C.3   368  ILE368      0.0001
    202  N         16.0470   12.4080   20.0790 N.am  369  ARG369     -0.1980
    203  CA        14.8910   12.8790   19.2780 C.3   369  ARG369      0.1597
    204  C         15.1920   12.8210   17.7740 C.2   369  ARG369      0.2287
    205  O         16.2480   13.2860   17.3210 O.2   369  ARG369     -0.2864
    206  CB        14.5910   14.3400   19.5890 C.3   369  ARG369      0.0334
    207  CG        13.1770   14.5650   20.1140 C.3   369  ARG369      0.0492
    208  CD        12.1010   13.8760   19.2840 C.3   369  ARG369      0.2205
    209  NE        10.7550   14.0500   19.8490 N.pl3 369  ARG369     -0.0865
    210  CZ        10.3540   13.5050   21.0080 C.cat 369  ARG369      0.5346
    211  NH1       11.1830   12.7480   21.7370 N.pl3 369  ARG369      0.1354
    212  NH2        9.1280   13.6600   21.5300 N.pl3 369  ARG369      0.1354
@<TRIPOS>BOND
     1   205   204    2
     2   204   203    1
     3   203   206    1
     4   203   202    1
     5   208   209    1
     6   208   207    1
     7   206   207    1
     8   209   210    2
     9   202   196   am
    10    21    20    2
    11    20    19    1
    12    18    19    1
    13   210   212    1
    14   210   211    1
    15    15    14    2
    16   194   195    1
    17    14    13    1
    18   196   197    2
    19   196   195    1
    20    19    22    1
    21     4     3    2
    22   195   198    1
    23     1     2    1
    24     3     2    1
    25     3    12   am
    26   198   199    1
    27   198   200    1
    28     2     5    1
    29    13    12    1
    30    13    16    1
    31    16    17    1
    32    22    23    1
    33   199   201    1
    34    10     9    1
    35    23    24   ar
    36    23    25   ar
    37     7     8    1
    38     7     6    1
    39     5     6    1
    40     9     8    2
    41     9    11    1
    42    24    26   ar
    43    25    27   ar
    44    26    27   ar
    45    63    62    1
    46    63    64    1
    47    62    60   am
    48    64    65    2
    49    64    66   am
    50    33    32    1
    51    72    70    1
    52    66    67    1
    53   115   116    2
    54   115   114    1
    55    60    59    1
    56    60    61    2
    57    28    29    1
    58    32    29    1
    59    32    34    1
    60   114   113    1
    61   114   112    1
    62    59    58    1
    63   107   105   am
    64    67    70    1
    65    67    68    1
    66    70    71    1
    67    29    30    1
    68   109   108    1
    69   109   112    1
    70   109   110    1
    71    53    52    2
    72   105   106    2
    73   105   104    1
    74   113   112    1
    75    58    52   am
    76    68    73   am
    77    68    69    2
    78   111   110    2
    79    52    51    1
    80    73    74    1
    81    30    31    2
    82   191   188    1
    83   191   192    1
    84   189   188    1
    85   189   190    2
    86   188   187    1
    87   104   101    1
    88    75    74    1
    89    75    76    2
    90   183   182    2
    91   103   102    2
    92   192   193    2
    93   187   182   am
    94   187   193    1
    95    51    54    1
    96    51    50    1
    97   134   133    2
    98   102   101    1
    99   101   100    1
   100   127   126    2
   101   182   181    1
   102    54    55    1
   103   172   171    2
   104    50    48   am
   105    90    89   ar
   106   130   128    1
   107   174   173    1
   108    91    89   ar
   109   177   178    1
   110   177   176    1
   111   133   132    1
   112   133   139   am
   113   180   181    1
   114   180   178   am
   115    55    56    1
   116    55    57    1
   117    89    88    1
   118   100    94   am
   119   126   131   am
   120   126   125    1
   121   132   131    1
   122   132   135    1
   123    48    49    2
   124    48    47    1
   125   137   135    1
   126   171   176   am
   127   171   170    1
   128   128   125    1
   129   128   129    1
   130   181   184    1
   131   178   179    2
   132    95    94    2
   133    47    46    1
   134    94    93    1
   135   173   170    1
   136   173   175    1
   137   125   124    1
   138   140   139    1
   139   140   141    1
   140   135   136    1
   141    88    85    1
   142   185   184    1
   143    99    97    1
   144   170   169    1
   145   186   184    1
   146    97    96    1
   147   136   138    1
   148   142   141    2
   149   141   143   am
   150    92    93    1
   151    92    86   am
   152    93    96    1
   153   148   149    1
   154   148   147    1
   155    46    37   am
   156   143   144    1
   157    96    98    1
   158    85    86    1
   159    85    84    1
   160   150   149    1
   161   150   151    2
   162    86    87    2
   163    38    37    2
   164   153   151    1
   165   151   152    1
   166    37    36    1
   167   144   147    1
   168   144   145    1
   169    84    79   am
   170    80    79    2
   171    79    78    1
   172   145   146    2
   173    36    35    1
   174    36    39    1
   175    77    78    1
   176    78    81    1
   177    39    40    1
   178   167   166    1
   179   160   159   ar
   180   166   168    1
   181   166   163    1
   182   123   122    1
   183   123   117    2
   184    81    83    1
   185    81    82    1
   186    40    41   ar
   187    40    42   ar
   188   122   121    2
   189   161   159   ar
   190   117   118    1
   191   159   158    1
   192   154   155    1
   193    41    43   ar
   194   163   162    1
   195   163   164    1
   196   162   156   am
   197    42    44   ar
   198   164   165    2
   199   119   118    1
   200   119   120    2
   201   121   118    1
   202   158   155    1
   203   155   156    1
   204   156   157    2
   205    43    45   ar
   206    44    45   ar
