@<TRIPOS>MOLECULE
tmp/5adiB04.pdb
 93 88 0 0 0
SMALL
GASTEIGER

@<TRIPOS>ATOM
      1  N        106.7910  276.3930  313.0020 N.3    43  LYS43      -0.1231
      2  CA       108.0090  277.0520  312.5140 C.3    43  LYS43       0.1693
      3  C        108.7480  277.7560  313.6500 C.2    43  LYS43       0.2592
      4  O        109.9830  277.8140  313.6750 O.2    43  LYS43      -0.2718
      5  CB       107.6690  278.0960  311.4500 C.3    43  LYS43       0.0285
      6  CG       107.0050  277.5580  310.2120 C.3    43  LYS43       0.0035
      7  CD       106.6860  278.7070  309.2810 C.3    43  LYS43       0.0206
      8  CE       106.2390  278.2120  307.9250 C.3    43  LYS43       0.1093
      9  NZ       105.9480  279.3510  307.0310 N.3    43  LYS43      -0.1314
     10  N        107.9600  278.3060  314.5710 N.am   44  ASP44      -0.1974
     11  CA       108.4580  279.0370  315.7300 C.3    44  ASP44       0.1709
     12  C        109.1480  278.0810  316.6880 C.2    44  ASP44       0.2293
     13  O        110.2490  278.3430  317.1650 O.2    44  ASP44      -0.2864
     14  CB       107.2910  279.7150  316.4500 C.3    44  ASP44       0.1436
     15  CG       106.2980  280.3560  315.4900 C.2    44  ASP44       0.3671
     16  OD1      106.7410  281.0560  314.5500 O.co2  44  ASP44      -0.2456
     17  OD2      105.0750  280.1510  315.6730 O.co2  44  ASP44      -0.2456
     18  N        112.6170  275.9300  314.5720 N.3    47  PHE47      -0.1228
     19  CA       113.9620  276.4740  314.3390 C.3    47  PHE47       0.1721
     20  C        114.9300  276.4530  315.5430 C.2    47  PHE47       0.2437
     21  O        116.0910  276.0660  315.3840 O.2    47  PHE47      -0.2733
     22  CB       113.9420  277.8640  313.6690 C.3    47  PHE47       0.0547
     23  CG       115.3210  278.3950  313.3700 C.ar   47  PHE47      -0.0202
     24  CD1      115.9460  278.0960  312.1700 C.ar   47  PHE47      -0.0042
     25  CD2      116.0140  279.1490  314.3090 C.ar   47  PHE47      -0.0042
     26  CE1      117.2210  278.5660  311.9010 C.ar   47  PHE47      -0.0003
     27  CE2      117.2880  279.6140  314.0490 C.ar   47  PHE47      -0.0003
     28  CZ       117.8940  279.3250  312.8430 C.ar   47  PHE47      -0.0000
     29  N        114.4730  276.8900  316.7360 N.am   48  PRO48      -0.2729
     30  CA       115.3570  276.7970  317.9030 C.3    48  PRO48       0.1401
     31  C        115.8620  275.3760  318.1390 C.2    48  PRO48       0.2269
     32  O        117.0440  275.1890  318.4330 O.2    48  PRO48      -0.2865
     33  CB       114.4490  277.2280  319.0580 C.3    48  PRO48       0.0296
     34  CG       113.5080  278.1620  318.4400 C.3    48  PRO48       0.0237
     35  CD       113.2510  277.6560  317.0470 C.3    48  PRO48       0.0939
     36  N        118.4050  274.7630  315.4420 N.3    51  LYS51      -0.1245
     37  CA       119.6360  275.4880  315.7540 C.3    51  LYS51       0.1561
     38  C        120.4990  274.7520  316.7800 C.2    51  LYS51       0.2260
     39  O        121.6790  274.4980  316.5450 O.2    51  LYS51      -0.2867
     40  CB       119.3290  276.8970  316.2560 C.3    51  LYS51       0.0271
     41  CG       120.5700  277.6830  316.6810 C.3    51  LYS51       0.0035
     42  CD       120.2200  279.1160  317.0500 C.3    51  LYS51       0.0206
     43  CE       121.4620  279.9730  317.1880 C.3    51  LYS51       0.1093
     44  NZ       122.4060  279.3930  318.1690 N.3    51  LYS51      -0.1314
     45  N        127.3850  278.8080  309.7460 N.3    70  MET70      -0.1245
     46  CA       126.4690  279.9230  309.5650 C.3    70  MET70       0.1570
     47  C        125.5430  279.7010  308.3830 C.2    70  MET70       0.2261
     48  O        124.3300  279.8870  308.4910 O.2    70  MET70      -0.2867
     49  CB       127.2520  281.2230  309.3840 C.3    70  MET70       0.0387
     50  CG       127.7970  281.7610  310.6820 C.3    70  MET70       0.0595
     51  SD       126.5140  281.7950  311.9490 S.3    70  MET70      -0.1393
     52  CE       127.2160  280.7190  313.1960 C.3    70  MET70       0.0692
     53  N        122.7850  277.1840  309.1270 N.3    73  LEU73      -0.1231
     54  CA       121.6900  277.7260  309.9350 C.3    73  LEU73       0.1693
     55  C        120.7460  278.5270  309.0500 C.2    73  LEU73       0.2591
     56  O        119.5260  278.3400  309.0900 O.2    73  LEU73      -0.2718
     57  CB       122.2130  278.6110  311.0660 C.3    73  LEU73       0.0284
     58  CG       122.8330  277.9490  312.2980 C.3    73  LEU73       0.0019
     59  CD1      123.3990  278.9990  313.2350 C.3    73  LEU73       0.0001
     60  CD2      121.8250  277.0600  313.0320 C.3    73  LEU73       0.0001
     61  N        121.3310  279.4110  308.2440 N.am   74  GLU74      -0.1979
     62  CA       120.5760  280.2190  307.3040 C.3    74  GLU74       0.1602
     63  C        119.7950  279.3600  306.3180 C.2    74  GLU74       0.2287
     64  O        118.6320  279.6340  306.0320 O.2    74  GLU74      -0.2864
     65  CB       121.5030  281.1690  306.5490 C.3    74  GLU74       0.0415
     66  CG       120.7730  282.0840  305.5780 C.3    74  GLU74       0.1163
     67  CD       119.6260  282.8250  306.2400 C.2    74  GLU74       0.3649
     68  OE1      119.7590  283.2080  307.4230 O.co2  74  GLU74      -0.2457
     69  OE2      118.5850  283.0210  305.5800 O.co2  74  GLU74      -0.2457
     70  N        116.9570  277.8830  308.0900 N.3    77  ASN77      -0.1240
     71  CA       115.9680  278.9220  308.3660 C.3    77  ASN77       0.1653
     72  C        114.9950  279.1780  307.2150 C.2    77  ASN77       0.2266
     73  O        113.7830  279.2580  307.4250 O.2    77  ASN77      -0.2867
     74  CB       116.6600  280.2310  308.7310 C.3    77  ASN77       0.1155
     75  CG       115.6910  281.2690  309.2580 C.2    77  ASN77       0.2627
     76  OD1      114.8260  280.9620  310.0800 O.2    77  ASN77      -0.2716
     77  ND2      115.8260  282.5030  308.7850 N.am   77  ASN77      -0.0877
     78  N        112.6500  276.2830  306.6120 N.3    80  ILE80      -0.1231
     79  CA       111.5480  276.2250  307.5630 C.3    80  ILE80       0.1692
     80  C        110.4870  277.2630  307.2160 C.2    80  ILE80       0.2592
     81  O        109.2920  277.0320  307.3970 O.2    80  ILE80      -0.2718
     82  CB       112.0350  276.4340  309.0050 C.3    80  ILE80       0.0266
     83  CG1      112.9260  275.2650  309.4270 C.3    80  ILE80       0.0019
     84  CG2      110.8530  276.5830  309.9610 C.3    80  ILE80       0.0020
     85  CD1      113.3270  275.3110  310.8950 C.3    80  ILE80       0.0001
     86  N        110.9260  278.4060  306.7070 N.am   81  ASP81      -0.1974
     87  CA       109.9920  279.4330  306.2700 C.3    81  ASP81       0.1709
     88  C        109.1660  278.9600  305.0760 C.2    81  ASP81       0.2293
     89  O        107.9420  279.0750  305.0750 O.2    81  ASP81      -0.2864
     90  CB       110.7350  280.7190  305.9090 C.3    81  ASP81       0.1436
     91  CG       111.1390  281.5260  307.1270 C.2    81  ASP81       0.3671
     92  OD1      110.5480  281.3220  308.2120 O.co2  81  ASP81      -0.2456
     93  OD2      112.0450  282.3770  306.9930 O.co2  81  ASP81      -0.2456
@<TRIPOS>BOND
     1    89    88    2
     2    88    87    1
     3    66    67    1
     4    66    65    1
     5    69    67   ar
     6    90    87    1
     7    90    91    1
     8    64    63    2
     9    67    68   ar
    10    87    86    1
    11    63    62    1
    12    65    62    1
    13    78    79    1
    14    86    80   am
    15    93    91   ar
    16     9     8    1
    17    91    92   ar
    18    72    73    2
    19    72    71    1
    20    80    81    2
    21    80    79    1
    22    62    61    1
    23    79    82    1
    24     8     7    1
    25    70    71    1
    26    61    55   am
    27    71    74    1
    28    47    48    2
    29    47    46    1
    30    74    75    1
    31    77    75   am
    32    82    83    1
    33    82    84    1
    34    55    56    2
    35    55    54    1
    36    53    54    1
    37    75    76    2
    38     7     6    1
    39    49    46    1
    40    49    50    1
    41    83    85    1
    42    46    45    1
    43    54    57    1
    44     6     5    1
    45    50    51    1
    46    57    58    1
    47     5     2    1
    48    26    24   ar
    49    26    28   ar
    50    51    52    1
    51    24    23   ar
    52    58    60    1
    53    58    59    1
    54     2     1    1
    55     2     3    1
    56    28    27   ar
    57    23    22    1
    58    23    25   ar
    59     3     4    2
    60     3    10   am
    61    22    19    1
    62    27    25   ar
    63    19    18    1
    64    19    20    1
    65    16    15   ar
    66    10    11    1
    67    21    20    2
    68    36    37    1
    69    15    17   ar
    70    15    14    1
    71    20    29   am
    72    11    14    1
    73    11    12    1
    74    37    40    1
    75    37    38    1
    76    40    41    1
    77    39    38    2
    78    41    42    1
    79    12    13    2
    80    29    35    1
    81    29    30    1
    82    35    34    1
    83    42    43    1
    84    43    44    1
    85    30    31    1
    86    30    33    1
    87    31    32    2
    88    34    33    1
