@<TRIPOS>MOLECULE
tmp/5adiA02.pdb
 164 161 0 0 0
SMALL
GASTEIGER

@<TRIPOS>ATOM
      1  N        123.0500  257.6350  346.7800 N.3    40  MET40      -0.1230
      2  CA       122.7890  257.0730  348.1080 C.3    40  MET40       0.1702
      3  C        122.3380  258.1190  349.1480 C.2    40  MET40       0.2592
      4  O        121.3280  257.9180  349.8270 O.2    40  MET40      -0.2718
      5  CB       123.9590  256.2270  348.6080 C.3    40  MET40       0.0401
      6  CG       123.5320  255.2490  349.7070 C.3    40  MET40       0.0596
      7  SD       124.8190  254.1180  350.2570 S.3    40  MET40      -0.1393
      8  CE       125.1490  253.1810  348.7650 C.3    40  MET40       0.0692
      9  N        123.0620  259.2310  349.2550 N.am   41  HIS41      -0.1976
     10  CA       122.6230  260.3590  350.0820 C.3    41  HIS41       0.1656
     11  C        122.6240  261.6520  349.2650 C.2    41  HIS41       0.2291
     12  O        123.6650  262.2910  349.1370 O.2    41  HIS41      -0.2864
     13  CB       123.5480  260.5810  351.2900 C.3    41  HIS41       0.0771
     14  CG       124.1830  259.3370  351.8310 C.ar   41  HIS41       0.0820
     15  ND1      123.5090  258.4410  352.6330 N.ar   41  HIS41      -0.2267
     16  CD2      125.4450  258.8570  351.7140 C.ar   41  HIS41       0.1154
     17  CE1      124.3200  257.4530  352.9720 C.ar   41  HIS41       0.1986
     18  NE2      125.5020  257.6830  352.4270 N.ar   41  HIS41      -0.2212
     19  N        112.2000  250.9850  352.9390 N.3   111  CYS111     -0.1235
     20  CA       111.9370  249.7740  353.7160 C.3   111  CYS111      0.1677
     21  C        110.8660  248.8580  353.1260 C.2   111  CYS111      0.2270
     22  O        109.6930  249.2210  353.0360 O.2   111  CYS111     -0.2867
     23  CB       111.5590  250.1080  355.1640 C.3   111  CYS111      0.0956
     24  SG       111.3620  248.6360  356.2070 S.3   111  CYS111     -0.0801
     25  N        127.2640  251.4830  363.9660 N.3   173  SER173     -0.1202
     26  CA       126.2420  251.6140  362.9220 C.3   173  SER173      0.2020
     27  C        125.1060  250.6070  363.1170 C.2   173  SER173      0.2618
     28  O        123.9690  250.8670  362.7420 O.2   173  SER173     -0.2717
     29  CB       126.8390  251.5410  361.5100 C.3   173  SER173      0.2103
     30  OG       127.5740  250.3520  361.3290 O.3   173  SER173     -0.2182
     31  N        125.4210  249.4580  363.7020 N.am  174  GLN174     -0.1979
     32  CA       124.4010  248.5410  364.2030 C.3   174  GLN174      0.1601
     33  C        124.8300  248.0890  365.5850 C.2   174  GLN174      0.2287
     34  O        126.0240  248.0680  365.8810 O.2   174  GLN174     -0.2864
     35  CB       124.2160  247.3160  363.3030 C.3   174  GLN174      0.0394
     36  CG       123.5820  247.6040  361.9470 C.3   174  GLN174      0.0908
     37  CD       123.5270  246.3740  361.0430 C.2   174  GLN174      0.2608
     38  OE1      123.2550  245.2600  361.4970 O.2   174  GLN174     -0.2717
     39  NE2      123.7920  246.5750  359.7580 N.am  174  GLN174     -0.0878
     40  N        127.6180  243.9650  365.2560 N.3   177  ARG177     -0.1245
     41  CA       128.3680  243.8420  364.0020 C.3   177  ARG177      0.1563
     42  C        129.7200  243.1890  364.2310 C.2   177  ARG177      0.2260
     43  O        130.2270  243.1510  365.3460 O.2   177  ARG177     -0.2867
     44  CB       128.6030  245.2060  363.3500 C.3   177  ARG177      0.0307
     45  CG       127.4070  245.7360  362.6090 C.3   177  ARG177      0.0489
     46  CD       127.7800  246.7690  361.6000 C.3   177  ARG177      0.2205
     47  NE       127.8200  246.1960  360.2660 N.pl3 177  ARG177     -0.0865
     48  CZ       127.9540  246.9200  359.1590 C.cat 177  ARG177      0.5346
     49  NH1      128.0410  248.2390  359.2410 N.pl3 177  ARG177      0.1354
     50  NH2      127.9960  246.3280  357.9750 N.pl3 177  ARG177      0.1354
     51  N        119.2000  242.3410  363.2740 N.3   261  PRO261     -0.2116
     52  CA       119.6590  243.5540  362.5950 C.3   261  PRO261      0.1372
     53  C        119.1690  244.7710  363.3460 C.2   261  PRO261      0.2244
     54  O        117.9740  245.0450  363.3500 O.2   261  PRO261     -0.2868
     55  CB       118.9740  243.4670  361.2270 C.3   261  PRO261      0.0268
     56  CG       117.7060  242.6870  361.4880 C.3   261  PRO261      0.0207
     57  CD       118.0210  241.7350  362.6230 C.3   261  PRO261      0.0892
     58  N        119.8320  248.6750  363.4880 N.3   263  VAL263     -0.1245
     59  CA       120.4870  249.8680  362.9700 C.3   263  VAL263      0.1561
     60  C        120.4780  250.9810  364.0170 C.2   263  VAL263      0.2260
     61  O        119.4440  251.2430  364.6420 O.2   263  VAL263     -0.2867
     62  CB       119.8210  250.3340  361.6550 C.3   263  VAL263      0.0252
     63  CG1      120.1260  251.7900  361.3630 C.3   263  VAL263      0.0019
     64  CG2      120.2720  249.4450  360.5030 C.3   263  VAL263      0.0019
     65  N        122.6430  254.1720  363.7500 N.3   265  ASN265     -0.1225
     66  CA       123.3200  255.4210  363.4160 C.3   265  ASN265      0.1785
     67  C        122.3920  256.4380  362.7710 C.2   265  ASN265      0.2597
     68  O        122.8430  257.4540  362.2490 O.2   265  ASN265     -0.2718
     69  CB       124.5410  255.1670  362.5200 C.3   265  ASN265      0.1169
     70  CG       124.1620  254.6040  361.1540 C.2   265  ASN265      0.2627
     71  OD1      123.0180  254.2360  360.9120 O.2   265  ASN265     -0.2716
     72  ND2      125.1370  254.5060  360.2710 N.am  265  ASN265     -0.0877
     73  N        121.0970  256.1600  362.7770 N.am  266  MET266     -0.1979
     74  CA       120.1690  257.0770  362.1100 C.3   266  MET266      0.1605
     75  C        119.5610  258.0960  363.0560 C.2   266  MET266      0.2287
     76  O        119.6400  257.9560  364.2790 O.2   266  MET266     -0.2864
     77  CB       119.0900  256.3230  361.3340 C.3   266  MET266      0.0413
     78  CG       119.6860  255.6040  360.1150 C.3   266  MET266      0.0598
     79  SD       118.4530  254.8870  359.0230 S.3   266  MET266     -0.1393
     80  CE       118.0880  256.3280  358.0080 C.3   266  MET266      0.0692
     81  N        117.0280  250.9960  366.3060 N.3   280  PHE280     -0.1241
     82  CA       115.8450  250.1800  366.0290 C.3   280  PHE280      0.1605
     83  C        116.2180  248.8560  365.3880 C.2   280  PHE280      0.2264
     84  O        117.2780  248.7260  364.7720 O.2   280  PHE280     -0.2867
     85  CB       114.8380  250.9260  365.1370 C.3   280  PHE280      0.0534
     86  CG       115.4190  251.4040  363.8310 C.ar  280  PHE280     -0.0203
     87  CD1      115.5180  250.5400  362.7480 C.ar  280  PHE280     -0.0042
     88  CD2      115.8740  252.7140  363.6940 C.ar  280  PHE280     -0.0042
     89  CE1      116.0600  250.9670  361.5660 C.ar  280  PHE280     -0.0003
     90  CE2      116.4100  253.1470  362.5140 C.ar  280  PHE280     -0.0003
     91  CZ       116.5010  252.2760  361.4420 C.ar  280  PHE280     -0.0000
     92  N        114.5230  245.0080  363.4980 N.3   282  GLY282     -0.1210
     93  CA       113.4500  244.1380  363.0430 C.3   282  GLY282      0.1956
     94  C        113.9960  242.7240  362.9490 C.2   282  GLY282      0.2612
     95  O        114.5670  242.2180  363.9050 O.2   282  GLY282     -0.2717
     96  N        113.8270  242.0980  361.7910 N.am  283  TRP283     -0.1962
     97  CA       114.5130  240.8530  361.4730 C.3   283  TRP283      0.1771
     98  C        115.0210  240.8830  360.0150 C.2   283  TRP283      0.2620
     99  O        114.5790  241.6890  359.1980 O.2   283  TRP283     -0.2715
    100  CB       113.5890  239.6510  361.7040 C.3   283  TRP283      0.0590
    101  CG       112.2620  239.7860  361.0430 C.ar  283  TRP283      0.0006
    102  CD1      111.9620  239.5360  359.7200 C.ar  283  TRP283      0.0946
    103  CD2      111.0390  240.2060  361.6600 C.ar  283  TRP283      0.0152
    104  NE1      110.6270  239.7730  359.4910 N.ar  283  TRP283     -0.2442
    105  CE2      110.0380  240.1870  360.6620 C.ar  283  TRP283      0.0810
    106  CE3      110.6950  240.6080  362.9590 C.ar  283  TRP283      0.0012
    107  CZ2      108.7100  240.5490  360.9270 C.ar  283  TRP283      0.0191
    108  CZ3      109.3730  240.9590  363.2210 C.ar  283  TRP283      0.0001
    109  CH2      108.3990  240.9310  362.2080 C.ar  283  TRP283      0.0015
    110  N        115.9460  240.0000  359.6900 N.am  284  TYR284     -0.1960
    111  CA       116.5830  240.0220  358.3780 C.3   284  TYR284      0.1771
    112  C        115.7210  239.5350  357.1970 C.2   284  TYR284      0.2619
    113  O        114.9080  238.6220  357.3340 O.2   284  TYR284     -0.2715
    114  CB       117.8360  239.1530  358.4240 C.3   284  TYR284      0.0574
    115  CG       119.0830  239.8810  358.8400 C.ar  284  TYR284     -0.0198
    116  CD1      119.6100  240.8940  358.0470 C.ar  284  TYR284     -0.0009
    117  CD2      119.7510  239.5500  360.0150 C.ar  284  TYR284     -0.0009
    118  CE1      120.7630  241.5590  358.4140 C.ar  284  TYR284      0.0417
    119  CE2      120.9090  240.2130  360.3880 C.ar  284  TYR284      0.0417
    120  CZ       121.4140  241.2100  359.5830 C.ar  284  TYR284      0.1957
    121  OH       122.5620  241.8850  359.9330 O.3   284  TYR284     -0.2866
    122  N        115.9160  240.1560  356.0340 N.am  285  MET285     -0.1977
    123  CA       115.6120  239.4870  354.7790 C.3   285  MET285      0.1605
    124  C        116.8760  238.7390  354.4340 C.2   285  MET285      0.2287
    125  O        117.9680  239.3060  354.5060 O.2   285  MET285     -0.2864
    126  CB       115.2770  240.4770  353.6760 C.3   285  MET285      0.0413
    127  CG       114.7190  239.8000  352.4130 C.3   285  MET285      0.0598
    128  SD       113.8470  240.9860  351.3710 S.3   285  MET285     -0.1393
    129  CE       115.2360  241.9680  350.8050 C.3   285  MET285      0.0692
    130  N        120.0160  240.0880  352.6200 N.3   288  GLU288     -0.1245
    131  CA       120.8730  241.0750  353.2740 C.3   288  GLU288      0.1567
    132  C        122.1870  240.4160  353.6850 C.2   288  GLU288      0.2260
    133  O        123.2700  240.9780  353.4900 O.2   288  GLU288     -0.2867
    134  CB       120.1890  241.6780  354.5040 C.3   288  GLU288      0.0388
    135  CG       119.0180  242.5860  354.1890 C.3   288  GLU288      0.1160
    136  CD       118.3840  243.1550  355.4430 C.2   288  GLU288      0.3649
    137  OE1      118.8350  244.2350  355.8800 O.co2 288  GLU288     -0.2457
    138  OE2      117.4390  242.5290  355.9880 O.co2 288  GLU288     -0.2457
    139  N        115.8600  250.6330  346.2150 N.3   374  TRP374     -0.1241
    140  CA       116.1280  249.9650  347.4840 C.3   374  TRP374      0.1605
    141  C        115.1750  248.8090  347.7360 C.2   374  TRP374      0.2264
    142  O        115.5700  247.8100  348.3310 O.2   374  TRP374     -0.2867
    143  CB       116.0810  250.9770  348.6500 C.3   374  TRP374      0.0550
    144  CG       117.3870  251.6970  348.8050 C.ar  374  TRP374      0.0003
    145  CD1      117.9870  252.5290  347.8900 C.ar  374  TRP374      0.0946
    146  CD2      118.2820  251.6080  349.9160 C.ar  374  TRP374      0.0152
    147  NE1      119.1880  252.9770  348.3820 N.ar  374  TRP374     -0.2442
    148  CE2      119.3950  252.4220  349.6220 C.ar  374  TRP374      0.0810
    149  CE3      118.2480  250.9220  351.1390 C.ar  374  TRP374      0.0012
    150  CZ2      120.4680  252.5660  350.5050 C.ar  374  TRP374      0.0191
    151  CZ3      119.3130  251.0710  352.0200 C.ar  374  TRP374      0.0001
    152  CH2      120.4060  251.8880  351.6940 C.ar  374  TRP374      0.0015
    153  N        119.6340  260.3350  357.6510 N.3   402  TYR402     -0.1241
    154  CA       121.0530  260.1070  357.8150 C.3   402  TYR402      0.1605
    155  C        121.6340  261.2270  358.6570 C.2   402  TYR402      0.2264
    156  O        121.0780  262.3180  358.7240 O.2   402  TYR402     -0.2867
    157  CB       121.7540  260.0480  356.4670 C.3   402  TYR402      0.0534
    158  CG       121.5210  258.7600  355.7200 C.ar  402  TYR402     -0.0201
    159  CD1      121.8130  257.5340  356.3060 C.ar  402  TYR402     -0.0009
    160  CD2      120.9970  258.7610  354.4340 C.ar  402  TYR402     -0.0009
    161  CE1      121.6040  256.3450  355.6220 C.ar  402  TYR402      0.0417
    162  CE2      120.7870  257.5750  353.7430 C.ar  402  TYR402      0.0417
    163  CZ       121.0950  256.3740  354.3410 C.ar  402  TYR402      0.1957
    164  OH       120.8960  255.1960  353.6590 O.3   402  TYR402     -0.2866
@<TRIPOS>BOND
     1   139   140    1
     2     1     2    1
     3   140   141    1
     4   140   143    1
     5   141   142    2
     6   145   147   ar
     7   145   144   ar
     8     2     5    1
     9     2     3    1
    10   147   148   ar
    11     5     6    1
    12   143   144    1
    13     8     7    1
    14   144   146   ar
    15    12    11    2
    16     3     9   am
    17     3     4    2
    18     9    10    1
    19    11    10    1
    20   148   146   ar
    21   148   150   ar
    22     6     7    1
    23   146   149   ar
    24    10    13    1
    25   150   152   ar
    26   129   128    1
    27   149   151   ar
    28    13    14    1
    29   128   127    1
    30   152   151   ar
    31    16    14   ar
    32    16    18   ar
    33    14    15   ar
    34   127   126    1
    35    18    17   ar
    36   130   131    1
    37    15    17   ar
    38    19    20    1
    39    22    21    2
    40    21    20    1
    41   131   132    1
    42   131   134    1
    43   133   132    2
    44   164   163    1
    45   126   123    1
    46    20    23    1
    47   162   163   ar
    48   162   160   ar
    49   135   134    1
    50   135   136    1
    51   163   161   ar
    52   160   158   ar
    53   124   125    2
    54   124   123    1
    55   123   122    1
    56    23    24    1
    57   136   137   ar
    58   136   138   ar
    59   161   159   ar
    60   158   159   ar
    61   158   157    1
    62   122   112   am
    63   157   154    1
    64   112   113    2
    65   112   111    1
    66   153   154    1
    67   154   155    1
    68    50    48    1
    69    80    79    1
    70   116   118   ar
    71   116   115   ar
    72   111   114    1
    73   111   110    1
    74   118   120   ar
    75   114   115    1
    76   155   156    2
    77   115   117   ar
    78    79    78    1
    79    48    49    1
    80    48    47    2
    81    99    98    2
    82   104   102   ar
    83   104   105   ar
    84   120   121    1
    85   120   119   ar
    86   110    98   am
    87   102   101   ar
    88    39    37   am
    89   117   119   ar
    90    98    97    1
    91    78    77    1
    92    47    46    1
    93    72    70   am
    94    64    62    1
    95   105   107   ar
    96   105   103   ar
    97    71    70    2
    98   107   109   ar
    99   101   103   ar
   100   101   100    1
   101    37    38    2
   102    37    36    1
   103    70    69    1
   104    55    56    1
   105    55    52    1
   106    30    29    1
   107    77    74    1
   108    63    62    1
   109    91    89   ar
   110    91    90   ar
   111    97   100    1
   112    97    96    1
   113    56    57    1
   114    29    26    1
   115    89    87   ar
   116    46    45    1
   117    62    59    1
   118   103   106   ar
   119    96    94   am
   120    36    35    1
   121    74    73    1
   122    74    75    1
   123   109   108   ar
   124    68    67    2
   125    90    88   ar
   126    69    66    1
   127    52    51    1
   128    52    53    1
   129    45    44    1
   130    57    51    1
   131    28    27    2
   132    87    86   ar
   133    67    73   am
   134    67    66    1
   135    26    27    1
   136    26    25    1
   137    94    93    1
   138    94    95    2
   139   106   108   ar
   140    59    58    1
   141    59    60    1
   142    93    92    1
   143    75    76    2
   144    27    31   am
   145    35    32    1
   146    53    54    2
   147    44    41    1
   148    66    65    1
   149    88    86   ar
   150    31    32    1
   151    86    85    1
   152    41    42    1
   153    41    40    1
   154    60    61    2
   155    32    33    1
   156    42    43    2
   157    84    83    2
   158    85    82    1
   159    83    82    1
   160    33    34    2
   161    82    81    1
