@<TRIPOS>MOLECULE
tmp/5adjA02.pdb
 189 184 0 0 0
SMALL
GASTEIGER

@<TRIPOS>ATOM
      1  N         17.3230   11.5120   45.3530 N.3    40  VAL40      -0.1231
      2  CA        17.0160   11.6480   43.9310 C.3    40  VAL40       0.1692
      3  C         18.1500   11.1500   43.0220 C.2    40  VAL40       0.2591
      4  O         17.9090   10.4120   42.0640 O.2    40  VAL40      -0.2718
      5  CB        16.6520   13.0920   43.5550 C.3    40  VAL40       0.0266
      6  CG1       16.4660   13.2100   42.0240 C.3    40  VAL40       0.0020
      7  CG2       15.4000   13.5360   44.3070 C.3    40  VAL40       0.0020
      8  N         19.3740   11.5650   43.3400 N.am   41  LEU41      -0.1980
      9  CA        20.5710   11.1850   42.5980 C.3    41  LEU41       0.1596
     10  C         21.6080   10.7200   43.6180 C.2    41  LEU41       0.2287
     11  O         22.3950   11.5290   44.1190 O.2    41  LEU41      -0.2864
     12  CB        21.1320   12.3870   41.8140 C.3    41  LEU41       0.0297
     13  CG        20.2060   13.2780   40.9660 C.3    41  LEU41       0.0022
     14  CD1       20.7970   14.6710   40.7170 C.3    41  LEU41       0.0001
     15  CD2       19.8820   12.6190   39.6420 C.3    41  LEU41       0.0001
     16  N          8.8320    5.3400   36.7210 N.3   108  CYS108     -0.1235
     17  CA         7.7880    5.6920   35.7710 C.3   108  CYS108      0.1677
     18  C          6.4800    4.9870   36.0960 C.2   108  CYS108      0.2270
     19  O          6.4210    3.7520   36.1410 O.2   108  CYS108     -0.2867
     20  CB         8.1950    5.3570   34.3430 C.3   108  CYS108      0.0956
     21  SG         6.8210    5.5410   33.2260 S.3   108  CYS108     -0.0801
     22  N         17.1910   19.5380   29.0270 N.3   170  SER170     -0.1202
     23  CA        16.7050   18.4360   29.8330 C.3   170  SER170      0.2020
     24  C         15.4410   17.8820   29.1990 C.2   170  SER170      0.2618
     25  O         15.1960   16.6770   29.2440 O.2   170  SER170     -0.2717
     26  CB        16.4280   18.8940   31.2620 C.3   170  SER170      0.2103
     27  OG        15.4930   19.9580   31.2760 O.3   170  SER170     -0.2182
     28  N         14.6410   18.7600   28.5970 N.am  171  GLN171     -0.1979
     29  CA        13.5570   18.2940   27.7370 C.3   171  GLN171      0.1601
     30  C         13.6010   19.0300   26.4100 C.2   171  GLN171      0.2287
     31  O         14.1970   20.1170   26.3160 O.2   171  GLN171     -0.2864
     32  CB        12.1910   18.5000   28.3730 C.3   171  GLN171      0.0394
     33  CG        12.0150   17.9160   29.7420 C.3   171  GLN171      0.0908
     34  CD        10.6140   18.1590   30.2710 C.2   171  GLN171      0.2608
     35  OE1        9.6860   18.4590   29.5030 O.2   171  GLN171     -0.2717
     36  NE2       10.4520   18.0400   31.5890 N.am  171  GLN171     -0.0878
     37  N         10.8280   23.2230   26.8780 N.3   174  ARG174     -0.1245
     38  CA        11.0780   23.8020   28.1960 C.3   174  ARG174      0.1563
     39  C         10.8520   25.3060   28.1310 C.2   174  ARG174      0.2260
     40  O         11.1470   25.9410   27.1130 O.2   174  ARG174     -0.2867
     41  CB        12.5310   23.5640   28.6160 C.3   174  ARG174      0.0307
     42  CG        12.9010   22.1140   28.9200 C.3   174  ARG174      0.0489
     43  CD        13.0830   21.9110   30.3930 C.3   174  ARG174      0.2205
     44  NE        11.7980   21.6860   31.0320 N.pl3 174  ARG174     -0.0865
     45  CZ        11.6070   21.5980   32.3440 C.cat 174  ARG174      0.5346
     46  NH1       12.6240   21.7340   33.1930 N.pl3 174  ARG174      0.1354
     47  NH2       10.3780   21.3790   32.8040 N.pl3 174  ARG174      0.1354
     48  N          5.7480   15.9200   27.0370 N.3   258  PRO258     -0.2116
     49  CA         6.8820   15.7410   27.9480 C.3   258  PRO258      0.1372
     50  C          7.9540   14.9260   27.2350 C.2   258  PRO258      0.2244
     51  O          7.7700   13.7370   27.0000 O.2   258  PRO258     -0.2868
     52  CB         6.2790   14.9490   29.1150 C.3   258  PRO258      0.0268
     53  CG         5.1090   14.2300   28.5340 C.3   258  PRO258      0.0207
     54  CD         4.6170   15.0270   27.3440 C.3   258  PRO258      0.0892
     55  N         11.7310   13.9870   27.4630 N.3   260  VAL260     -0.1245
     56  CA        12.9710   13.9860   28.2210 C.3   260  VAL260      0.1561
     57  C         14.1910   13.7140   27.3650 C.2   260  VAL260      0.2260
     58  O         14.2520   12.7150   26.6370 O.2   260  VAL260     -0.2867
     59  CB        12.8950   12.9720   29.3650 C.3   260  VAL260      0.0252
     60  CG1       14.2730   12.7020   29.9630 C.3   260  VAL260      0.0019
     61  CG2       11.9810   13.5300   30.4170 C.3   260  VAL260      0.0019
     62  N         17.7410   14.3380   28.4150 N.3   262  ASN262     -0.1225
     63  CA        19.0690   14.3920   29.0280 C.3   262  ASN262      0.1785
     64  C         19.5110   13.0500   29.6220 C.2   262  ASN262      0.2597
     65  O         20.5750   12.9490   30.2320 O.2   262  ASN262     -0.2718
     66  CB        19.1700   15.5210   30.0710 C.3   262  ASN262      0.1169
     67  CG        18.2070   15.3380   31.2520 C.2   262  ASN262      0.2627
     68  OD1       17.2950   14.5020   31.2200 O.2   262  ASN262     -0.2716
     69  ND2       18.4040   16.1450   32.2960 N.am  262  ASN262     -0.0877
     70  N         18.6970   12.0190   29.4360 N.am  263  MET263     -0.1979
     71  CA        19.0100   10.7110   30.0010 C.3   263  MET263      0.1605
     72  C         19.8240    9.8180   29.0710 C.2   263  MET263      0.2287
     73  O         19.7430    9.9120   27.8360 O.2   263  MET263     -0.2864
     74  CB        17.7340   10.0090   30.4410 C.3   263  MET263      0.0413
     75  CG        17.0600   10.7500   31.5780 C.3   263  MET263      0.0598
     76  SD        15.8240    9.7640   32.4050 S.3   263  MET263     -0.1393
     77  CE        16.8830    8.7680   33.4680 C.3   263  MET263      0.0692
     78  N         13.0960   10.7060   24.6300 N.3   277  PHE277     -0.1227
     79  CA        11.8520    9.9430   24.5840 C.3   277  PHE277      0.1736
     80  C         10.7190   10.8020   25.1380 C.2   277  PHE277      0.2596
     81  O         10.9460   11.7320   25.9210 O.2   277  PHE277     -0.2718
     82  CB        11.9820    8.6370   25.3720 C.3   277  PHE277      0.0547
     83  CG        12.3730    8.8390   26.8100 C.ar  277  PHE277     -0.0202
     84  CD1       11.4080    9.0940   27.7750 C.ar  277  PHE277     -0.0042
     85  CD2       13.7020    8.8010   27.1900 C.ar  277  PHE277     -0.0042
     86  CE1       11.7580    9.2830   29.1060 C.ar  277  PHE277     -0.0003
     87  CE2       14.0670    9.0030   28.5180 C.ar  277  PHE277     -0.0003
     88  CZ        13.0900    9.2450   29.4760 C.ar  277  PHE277     -0.0000
     89  N          9.5010   10.4980   24.7170 N.am  278  SER278     -0.1938
     90  CA         8.3470   11.2450   25.1700 C.3   278  SER278      0.2055
     91  C          7.1390   10.3420   25.3030 C.2   278  SER278      0.2644
     92  O          7.0300    9.2980   24.6200 O.2   278  SER278     -0.2714
     93  CB         8.0380   12.3590   24.1790 C.3   278  SER278      0.2130
     94  OG         7.7500   11.8220   22.9140 O.3   278  SER278     -0.2179
     95  N          6.2290   10.7480   26.1830 N.am  279  GLY279     -0.1939
     96  CA         4.9550   10.0670   26.3390 C.3   279  GLY279      0.2014
     97  C          3.8520   11.1040   26.3350 C.2   279  GLY279      0.2639
     98  O          3.7620   11.9200   25.4120 O.2   279  GLY279     -0.2714
     99  N          3.0070   11.0650   27.3640 N.am  280  TRP280     -0.1959
    100  CA         2.0830   12.1590   27.6580 C.3   280  TRP280      0.1771
    101  C          2.1300   12.4420   29.1480 C.2   280  TRP280      0.2620
    102  O          2.6720   11.6380   29.9230 O.2   280  TRP280     -0.2715
    103  CB         0.6510   11.8310   27.2220 C.3   280  TRP280      0.0590
    104  CG         0.1550   10.4760   27.6640 C.ar  280  TRP280      0.0006
    105  CD1       -0.3540   10.1320   28.9010 C.ar  280  TRP280      0.0946
    106  CD2        0.1110    9.2880   26.8680 C.ar  280  TRP280      0.0152
    107  NE1       -0.7100    8.7920   28.9050 N.ar  280  TRP280     -0.2442
    108  CE2       -0.4420    8.2600   27.6700 C.ar  280  TRP280      0.0810
    109  CE3        0.4810    8.9930   25.5510 C.ar  280  TRP280      0.0012
    110  CZ2       -0.6150    6.9650   27.1990 C.ar  280  TRP280      0.0191
    111  CZ3        0.2930    7.7130   25.0750 C.ar  280  TRP280      0.0001
    112  CH2       -0.2470    6.7090   25.8980 C.ar  280  TRP280      0.0015
    113  N          1.5580   13.5740   29.5580 N.am  281  TYR281     -0.1960
    114  CA         1.6070   13.9880   30.9570 C.3   281  TYR281      0.1771
    115  C          0.6290   13.2530   31.8800 C.2   281  TYR281      0.2619
    116  O         -0.4460   12.8280   31.4680 O.2   281  TYR281     -0.2715
    117  CB         1.3590   15.4940   31.0600 C.3   281  TYR281      0.0574
    118  CG         2.6100   16.3260   31.0320 C.ar  281  TYR281     -0.0198
    119  CD1        3.5280   16.2660   32.0820 C.ar  281  TYR281     -0.0009
    120  CD2        2.8710   17.1950   29.9670 C.ar  281  TYR281     -0.0009
    121  CE1        4.6700   17.0410   32.0700 C.ar  281  TYR281      0.0417
    122  CE2        4.0190   17.9820   29.9470 C.ar  281  TYR281      0.0417
    123  CZ         4.9030   17.9050   31.0040 C.ar  281  TYR281      0.1957
    124  OH         6.0440   18.6600   31.0080 O.3   281  TYR281     -0.2866
    125  N          1.0190   13.0990   33.1370 N.am  282  MET282     -0.1977
    126  CA         0.0480   12.9160   34.1960 C.3   282  MET282      0.1605
    127  C         -0.2320   14.3310   34.7000 C.2   282  MET282      0.2287
    128  O          0.6910   15.1530   34.8010 O.2   282  MET282     -0.2864
    129  CB         0.6180   12.0410   35.3110 C.3   282  MET282      0.0413
    130  CG        -0.3560   11.7620   36.4530 C.3   282  MET282      0.0598
    131  SD         0.2650   10.4410   37.5160 S.3   282  MET282     -0.1393
    132  CE         1.6710   11.2570   38.2630 C.3   282  MET282      0.0692
    133  N          1.9610   16.2400   37.3700 N.3   285  GLU285     -0.1245
    134  CA         3.2770   16.7540   36.9930 C.3   285  GLU285      0.1567
    135  C          3.2110   18.2460   36.6580 C.2   285  GLU285      0.2260
    136  O          4.0860   19.0250   37.0510 O.2   285  GLU285     -0.2867
    137  CB         3.8290   16.0280   35.7710 C.3   285  GLU285      0.0388
    138  CG         4.1600   14.6010   35.9690 C.3   285  GLU285      0.1160
    139  CD         4.5410   13.9530   34.6500 C.2   285  GLU285      0.3649
    140  OE1        5.7310   14.0840   34.2780 O.co2 285  GLU285     -0.2457
    141  OE2        3.6440   13.3650   33.9740 O.co2 285  GLU285     -0.2457
    142  N          3.4500   19.8480   40.4530 N.3   289  ARG289     -0.1245
    143  CA         4.8990   20.0280   40.5020 C.3   289  ARG289      0.1563
    144  C          5.3500   21.2990   39.7800 C.2   289  ARG289      0.2260
    145  O          5.9000   22.1830   40.4070 O.2   289  ARG289     -0.2867
    146  CB         5.6580   18.7860   39.9970 C.3   289  ARG289      0.0307
    147  CG         5.3850   17.4960   40.8160 C.3   289  ARG289      0.0489
    148  CD         5.6100   17.6980   42.3530 C.3   289  ARG289      0.2205
    149  NE         6.9250   18.2820   42.6530 N.pl3 289  ARG289     -0.0865
    150  CZ         8.0760   17.6110   42.5910 C.cat 289  ARG289      0.5346
    151  NH1        8.0830   16.3250   42.2530 N.pl3 289  ARG289      0.1354
    152  NH2        9.2200   18.2200   42.8580 N.pl3 289  ARG289      0.1354
    153  N          9.4560   26.3940   41.6120 N.3   296  ARG296     -0.1245
    154  CA         9.0470   26.4470   40.2030 C.3   296  ARG296      0.1563
    155  C          8.1810   27.6870   39.9700 C.2   296  ARG296      0.2260
    156  O          8.5540   28.7590   40.4400 O.2   296  ARG296     -0.2867
    157  CB         8.3450   25.1670   39.7640 C.3   296  ARG296      0.0307
    158  CG         9.2060   23.9080   39.8720 C.3   296  ARG296      0.0489
    159  CD        10.3890   23.8790   38.8950 C.3   296  ARG296      0.2205
    160  NE         9.9550   23.7680   37.4970 N.pl3 296  ARG296     -0.0865
    161  CZ         9.5790   22.6350   36.9100 C.cat 296  ARG296      0.5346
    162  NH1        9.5740   21.4900   37.5960 N.pl3 296  ARG296      0.1354
    163  NH2        9.1970   22.6440   35.6350 N.pl3 296  ARG296      0.1354
    164  N          8.3130    7.9730   44.0750 N.3   370  TRP370     -0.1241
    165  CA         8.0780    8.5370   42.7560 C.3   370  TRP370      0.1605
    166  C          6.7760    8.0560   42.1580 C.2   370  TRP370      0.2264
    167  O          6.1620    8.7620   41.3630 O.2   370  TRP370     -0.2867
    168  CB         9.2320    8.1790   41.8220 C.3   370  TRP370      0.0550
    169  CG        10.3730    9.1110   41.9710 C.ar  370  TRP370      0.0003
    170  CD1       11.1780    9.2470   43.0620 C.ar  370  TRP370      0.0946
    171  CD2       10.8430   10.0500   40.9960 C.ar  370  TRP370      0.0152
    172  NE1       12.1260   10.2140   42.8310 N.ar  370  TRP370     -0.2442
    173  CE2       11.9410   10.7300   41.5710 C.ar  370  TRP370      0.0810
    174  CE3       10.4450   10.3810   39.6880 C.ar  370  TRP370      0.0012
    175  CZ2       12.6510   11.7270   40.8850 C.ar  370  TRP370      0.0191
    176  CZ3       11.1470   11.3790   39.0040 C.ar  370  TRP370      0.0001
    177  CH2       12.2380   12.0370   39.6040 C.ar  370  TRP370      0.0015
    178  N         20.7660    8.6070   34.6050 N.3   398  TYR398     -0.1241
    179  CA        21.1260   10.0180   34.6150 C.3   398  TYR398      0.1605
    180  C         22.5440   10.1580   34.0990 C.2   398  TYR398      0.2264
    181  O         23.3460    9.2320   34.2190 O.2   398  TYR398     -0.2867
    182  CB        21.0740   10.5540   36.0320 C.3   398  TYR398      0.0534
    183  CG        19.6880   10.6150   36.5930 C.ar  398  TYR398     -0.0201
    184  CD1       18.7150   11.4270   36.0080 C.ar  398  TYR398     -0.0009
    185  CD2       19.3490    9.8870   37.7210 C.ar  398  TYR398     -0.0009
    186  CE1       17.4410   11.4940   36.5280 C.ar  398  TYR398      0.0417
    187  CE2       18.0860    9.9560   38.2530 C.ar  398  TYR398      0.0417
    188  CZ        17.1380   10.7570   37.6560 C.ar  398  TYR398      0.1957
    189  OH        15.8800   10.7990   38.2040 O.3   398  TYR398     -0.2866
@<TRIPOS>BOND
     1    94    93    1
     2    93    90    1
     3    79    78    1
     4    79    80    1
     5    79    82    1
     6    92    91    2
     7    89    80   am
     8    89    90    1
     9   111   109   ar
    10   111   112   ar
    11    80    81    2
    12    90    91    1
    13    91    95   am
    14    82    83    1
    15    98    97    2
    16   109   106   ar
    17   112   110   ar
    18    95    96    1
    19    31    30    2
    20    97    96    1
    21    97    99   am
    22    30    29    1
    23    58    57    2
    24    83    85   ar
    25    83    84   ar
    26   106   104   ar
    27   106   108   ar
    28    37    38    1
    29    51    50    2
    30    48    54    1
    31    48    49    1
    32    40    39    2
    33    85    87   ar
    34   110   108   ar
    35   103   100    1
    36   103   104    1
    37    50    49    1
    38    54    53    1
    39    99   100    1
    40    57    56    1
    41    55    56    1
    42   100   101    1
    43   104   105   ar
    44   108   107   ar
    45    29    32    1
    46    29    28    1
    47    84    86   ar
    48    73    72    2
    49    49    52    1
    50    39    38    1
    51    38    41    1
    52    56    59    1
    53    32    33    1
    54    62    63    1
    55    87    88   ar
    56    53    52    1
    57    28    24   am
    58    41    42    1
    59   105   107   ar
    60    42    43    1
    61    22    23    1
    62    63    64    1
    63    63    66    1
    64    72    71    1
    65    86    88   ar
    66   101   113   am
    67   101   102    2
    68    24    25    2
    69    24    23    1
    70    59    60    1
    71    59    61    1
    72    70    64   am
    73    70    71    1
    74    35    34    2
    75   113   114    1
    76    64    65    2
    77    33    34    1
    78    23    26    1
    79   122   120   ar
    80   122   123   ar
    81   120   118   ar
    82    71    74    1
    83    66    67    1
    84    34    36   am
    85    43    44    1
    86    74    75    1
    87   114   117    1
    88   114   115    1
    89   123   124    1
    90   123   121   ar
    91    44    45    2
    92   118   117    1
    93   118   119   ar
    94    68    67    2
    95    67    69   am
    96    26    27    1
    97   116   115    2
    98    75    76    1
    99   115   125   am
   100   121   119   ar
   101    45    47    1
   102    45    46    1
   103    76    77    1
   104   125   126    1
   105    21    20    1
   106   141   139   ar
   107   180   181    2
   108   180   179    1
   109   126   127    1
   110   126   129    1
   111   140   139   ar
   112    20    17    1
   113   178   179    1
   114   179   182    1
   115   139   138    1
   116   127   128    2
   117   129   130    1
   118   163   161    1
   119    17    18    1
   120    17    16    1
   121   137   138    1
   122   137   134    1
   123   184   186   ar
   124   184   183   ar
   125   182   183    1
   126    18    19    2
   127   130   131    1
   128   186   188   ar
   129   183   185   ar
   130   135   134    1
   131   135   136    2
   132   161   160    2
   133   161   162    1
   134   134   133    1
   135   160   159    1
   136   131   132    1
   137   188   189    1
   138   188   187   ar
   139   185   187   ar
   140   159   158    1
   141   176   177   ar
   142   176   174   ar
   143   177   175   ar
   144    15    13    1
   145   174   171   ar
   146   157   158    1
   147   157   154    1
   148   144   145    2
   149   144   143    1
   150   155   154    1
   151   155   156    2
   152   146   143    1
   153   146   147    1
   154   154   153    1
   155   142   143    1
   156    14    13    1
   157   147   148    1
   158   175   173   ar
   159    13    12    1
   160   171   173   ar
   161   171   169   ar
   162   167   166    2
   163   173   172   ar
   164    12     9    1
   165   168   169    1
   166   168   165    1
   167   169   170   ar
   168     6     5    1
   169     4     3    2
   170   166   165    1
   171   151   150    1
   172   148   149    1
   173   150   149    2
   174   150   152    1
   175     9     8    1
   176     9    10    1
   177   165   164    1
   178   172   170   ar
   179     3     8   am
   180     3     2    1
   181     5     2    1
   182     5     7    1
   183    10    11    2
   184     2     1    1
