@<TRIPOS>MOLECULE
tmp/5adlB03.pdb
 115 114 0 0 0
SMALL
GASTEIGER

@<TRIPOS>ATOM
      1  N          8.0290    9.1680   63.3820 N.3   108  CYS108     -0.1235
      2  CA         7.2330   10.1650   64.1180 C.3   108  CYS108      0.1677
      3  C          7.4860   11.6150   63.6930 C.2   108  CYS108      0.2270
      4  O          8.6030   12.1320   63.8410 O.2   108  CYS108     -0.2867
      5  CB         7.4810   10.0390   65.6280 C.3   108  CYS108      0.0956
      6  SG         6.4650   11.1570   66.6260 S.3   108  CYS108     -0.0801
      7  N         -4.6310    0.2950   70.5700 N.3   171  GLN171     -0.1245
      8  CA        -4.6720    1.6220   71.1830 C.3   171  GLN171      0.1566
      9  C         -5.6320    1.5560   72.3650 C.2   171  GLN171      0.2260
     10  O         -6.5760    0.7470   72.3480 O.2   171  GLN171     -0.2867
     11  CB        -5.1760    2.6820   70.1950 C.3   171  GLN171      0.0367
     12  CG        -4.3380    2.9060   68.9370 C.3   171  GLN171      0.0905
     13  CD        -4.9020    4.0530   68.0800 C.2   171  GLN171      0.2608
     14  OE1       -5.8990    4.6880   68.4480 O.2   171  GLN171     -0.2717
     15  NE2       -4.2650    4.3170   66.9380 N.am  171  GLN171     -0.0878
     16  N         -4.8140    9.7830   70.9150 N.3   258  PRO258     -0.2116
     17  CA        -4.1400    8.6980   70.1940 C.3   258  PRO258      0.1372
     18  C         -3.1570    8.0440   71.1530 C.2   258  PRO258      0.2244
     19  O         -2.1130    8.6190   71.4280 O.2   258  PRO258     -0.2868
     20  CB        -3.4050    9.4230   69.0620 C.3   258  PRO258      0.0268
     21  CG        -3.1260   10.8210   69.6040 C.3   258  PRO258      0.0207
     22  CD        -4.2090   11.1090   70.6560 C.3   258  PRO258      0.0892
     23  N         -1.2030    4.6210   71.6770 N.3   260  VAL260     -0.1245
     24  CA        -0.7480    3.3220   71.1960 C.3   260  VAL260      0.1561
     25  C         -0.2960    2.4320   72.3530 C.2   260  VAL260      0.2260
     26  O          0.4130    2.8970   73.2620 O.2   260  VAL260     -0.2867
     27  CB         0.3860    3.5240   70.1910 C.3   260  VAL260      0.0252
     28  CG1        1.0590    2.2130   69.8410 C.3   260  VAL260      0.0019
     29  CG2       -0.2020    4.1800   68.9450 C.3   260  VAL260      0.0019
     30  N          3.0940   -1.4890   71.3000 N.3   263  MET263     -0.1245
     31  CA         4.4950   -1.4580   70.8900 C.3   263  MET263      0.1570
     32  C          5.3880   -1.8400   72.0440 C.2   263  MET263      0.2261
     33  O          4.9790   -1.7870   73.2140 O.2   263  MET263     -0.2867
     34  CB         4.8960   -0.1070   70.3030 C.3   263  MET263      0.0387
     35  CG         4.2340    0.1650   68.9490 C.3   263  MET263      0.0595
     36  SD         4.9430    1.5600   68.0580 S.3   263  MET263     -0.1393
     37  CE         6.4090    0.8000   67.3360 C.3   263  MET263      0.0692
     38  N          1.7040    4.7300   75.2050 N.3   277  PHE277     -0.1227
     39  CA         2.0520    6.1460   75.1630 C.3   277  PHE277      0.1736
     40  C          1.0660    6.9100   74.3010 C.2   277  PHE277      0.2596
     41  O          0.4450    6.3350   73.3970 O.2   277  PHE277     -0.2718
     42  CB         3.4730    6.3320   74.6260 C.3   277  PHE277      0.0547
     43  CG         3.7050    5.6890   73.2870 C.ar  277  PHE277     -0.0202
     44  CD1        3.3900    6.3670   72.1110 C.ar  277  PHE277     -0.0042
     45  CD2        4.2560    4.4080   73.2000 C.ar  277  PHE277     -0.0042
     46  CE1        3.6210    5.7770   70.8780 C.ar  277  PHE277     -0.0003
     47  CE2        4.4830    3.8090   71.9650 C.ar  277  PHE277     -0.0003
     48  CZ         4.1670    4.4900   70.8060 C.ar  277  PHE277     -0.0000
     49  N          0.9280    8.2050   74.5730 N.am  278  SER278     -0.1938
     50  CA        -0.0200    9.0260   73.8250 C.3   278  SER278      0.2055
     51  C          0.4870   10.4390   73.6580 C.2   278  SER278      0.2644
     52  O          1.2760   10.9430   74.4780 O.2   278  SER278     -0.2714
     53  CB        -1.3670    9.0640   74.5320 C.3   278  SER278      0.2130
     54  OG        -1.2000    9.4090   75.9000 O.3   278  SER278     -0.2179
     55  N          0.0340   11.0790   72.5860 N.am  279  GLY279     -0.1939
     56  CA         0.3460   12.4750   72.3650 C.3   279  GLY279      0.2014
     57  C         -0.9290   13.1490   71.9270 C.2   279  GLY279      0.2639
     58  O         -1.9610   13.0520   72.6060 O.2   279  GLY279     -0.2714
     59  N         -0.8740   13.8320   70.7880 N.am  280  TRP280     -0.1959
     60  CA        -2.0970   14.3530   70.2170 C.3   280  TRP280      0.1771
     61  C         -2.1290   14.0530   68.7290 C.2   280  TRP280      0.2620
     62  O         -1.0890   13.7520   68.1270 O.2   280  TRP280     -0.2715
     63  CB        -2.2850   15.8470   70.5390 C.3   280  TRP280      0.0590
     64  CG        -1.1150   16.7140   70.1910 C.ar  280  TRP280      0.0006
     65  CD1       -0.7990   17.1980   68.9570 C.ar  280  TRP280      0.0946
     66  CD2       -0.1220   17.2310   71.0900 C.ar  280  TRP280      0.0152
     67  NE1        0.3310   17.9760   69.0290 N.ar  280  TRP280     -0.2442
     68  CE2        0.7700   18.0070   70.3290 C.ar  280  TRP280      0.0810
     69  CE3        0.1000   17.1100   72.4690 C.ar  280  TRP280      0.0012
     70  CZ2        1.8750   18.6620   70.8990 C.ar  280  TRP280      0.0191
     71  CZ3        1.1960   17.7680   73.0370 C.ar  280  TRP280      0.0001
     72  CH2        2.0670   18.5260   72.2530 C.ar  280  TRP280      0.0015
     73  N         -3.3240   14.1210   68.1480 N.am  281  TYR281     -0.1960
     74  CA        -3.5150   13.7570   66.7590 C.3   281  TYR281      0.1771
     75  C         -3.0300   14.8470   65.8180 C.2   281  TYR281      0.2619
     76  O         -3.1270   16.0480   66.1250 O.2   281  TYR281     -0.2715
     77  CB        -5.0050   13.5140   66.4850 C.3   281  TYR281      0.0574
     78  CG        -5.4100   12.0660   66.5460 C.ar  281  TYR281     -0.0198
     79  CD1       -4.8330   11.1310   65.6920 C.ar  281  TYR281     -0.0009
     80  CD2       -6.3640   11.6290   67.4570 C.ar  281  TYR281     -0.0009
     81  CE1       -5.1990    9.7930   65.7410 C.ar  281  TYR281      0.0417
     82  CE2       -6.7440   10.2980   67.5140 C.ar  281  TYR281      0.0417
     83  CZ        -6.1590    9.3820   66.6530 C.ar  281  TYR281      0.1957
     84  OH        -6.5380    8.0440   66.7080 O.3   281  TYR281     -0.2866
     85  N         -2.4980   14.4210   64.6770 N.am  282  MET282     -0.1977
     86  CA        -2.3300   15.3080   63.5430 C.3   282  MET282      0.1605
     87  C         -3.5910   15.0640   62.7290 C.2   282  MET282      0.2287
     88  O         -4.0230   13.9110   62.5790 O.2   282  MET282     -0.2864
     89  CB        -1.0780   14.9360   62.7390 C.3   282  MET282      0.0413
     90  CG        -0.8980   15.7780   61.4650 C.3   282  MET282      0.0598
     91  SD         0.7400   15.4930   60.7080 S.3   282  MET282     -0.1393
     92  CE         0.4750   13.8780   59.9410 C.3   282  MET282      0.0692
     93  N         -4.3840   12.0370   60.1780 N.3   285  GLU285     -0.1245
     94  CA        -4.5830   10.6760   60.6750 C.3   285  GLU285      0.1567
     95  C         -6.0630   10.3500   60.7800 C.2   285  GLU285      0.2260
     96  O         -6.4840    9.2120   60.4900 O.2   285  GLU285     -0.2867
     97  CB        -3.9650   10.5010   62.0620 C.3   285  GLU285      0.0388
     98  CG        -2.4800   10.8280   62.1490 C.3   285  GLU285      0.1160
     99  CD        -1.9850   10.7350   63.5840 C.2   285  GLU285      0.3649
    100  OE1       -1.8470    9.5960   64.0810 O.co2 285  GLU285     -0.2457
    101  OE2       -1.7560   11.7910   64.2170 O.co2 285  GLU285     -0.2457
    102  N          6.7540    7.8360   55.8720 N.3   370  TRP370     -0.1241
    103  CA         5.8600    8.0540   57.0110 C.3   370  TRP370      0.1605
    104  C          5.7830    9.5100   57.4400 C.2   370  TRP370      0.2264
    105  O          4.7460    9.9370   57.9690 O.2   370  TRP370     -0.2867
    106  CB         6.2520    7.1670   58.2040 C.3   370  TRP370      0.0550
    107  CG         5.7430    5.7390   58.0740 C.ar  370  TRP370      0.0003
    108  CD1        6.0770    4.8350   57.1100 C.ar  370  TRP370      0.0946
    109  CD2        4.8140    5.0750   58.9470 C.ar  370  TRP370      0.0152
    110  NE1        5.3990    3.6470   57.3190 N.ar  370  TRP370     -0.2442
    111  CE2        4.6230    3.7680   58.4450 C.ar  370  TRP370      0.0810
    112  CE3        4.1290    5.4600   60.1100 C.ar  370  TRP370      0.0012
    113  CZ2        3.7770    2.8340   59.0670 C.ar  370  TRP370      0.0191
    114  CZ3        3.2760    4.5370   60.7280 C.ar  370  TRP370      0.0001
    115  CH2        3.1130    3.2340   60.2050 C.ar  370  TRP370      0.0015
@<TRIPOS>BOND
     1   102   103    1
     2   103   104    1
     3   103   106    1
     4   108   110   ar
     5   108   107   ar
     6   110   111   ar
     7   104   105    2
     8   107   106    1
     9   107   109   ar
    10   111   109   ar
    11   111   113   ar
    12   109   112   ar
    13   113   115   ar
    14    92    91    1
    15   112   114   ar
    16    93    94    1
    17   115   114   ar
    18    96    95    2
    19    94    95    1
    20    94    97    1
    21    91    90    1
    22    90    89    1
    23    97    98    1
    24    98    99    1
    25    88    87    2
    26    87    86    1
    27    89    86    1
    28     1     2    1
    29    86    85    1
    30    99   100   ar
    31    99   101   ar
    32     3     4    2
    33     3     2    1
    34     2     5    1
    35    85    75   am
    36     5     6    1
    37    79    81   ar
    38    79    78   ar
    39    81    83   ar
    40    75    76    2
    41    75    74    1
    42    77    78    1
    43    77    74    1
    44    78    80   ar
    45    83    84    1
    46    83    82   ar
    47    74    73    1
    48    15    13   am
    49    37    36    1
    50    80    82   ar
    51    36    35    1
    52    13    14    2
    53    13    12    1
    54    62    61    2
    55    73    61   am
    56    61    60    1
    57    12    11    1
    58    29    27    1
    59    35    34    1
    60    65    67   ar
    61    65    64   ar
    62    67    68   ar
    63    20    21    1
    64    20    17    1
    65    21    22    1
    66    28    27    1
    67    27    24    1
    68    64    63    1
    69    64    66   ar
    70    17    16    1
    71    17    18    1
    72    11     8    1
    73    60    63    1
    74    60    59    1
    75    34    31    1
    76    68    70   ar
    77    68    66   ar
    78     7     8    1
    79    22    16    1
    80    59    57   am
    81    48    46   ar
    82    48    47   ar
    83    46    44   ar
    84    31    30    1
    85    31    32    1
    86    70    72   ar
    87    66    69   ar
    88    18    19    2
    89     8     9    1
    90    24    23    1
    91    24    25    1
    92    57    56    1
    93    57    58    2
    94    47    45   ar
    95    32    33    2
    96    44    43   ar
    97    72    71   ar
    98    10     9    2
    99    25    26    2
   100    56    55    1
   101    69    71   ar
   102    55    51   am
   103    45    43   ar
   104    43    42    1
   105    41    40    2
   106    51    50    1
   107    51    52    2
   108    50    53    1
   109    50    49    1
   110    40    49   am
   111    40    39    1
   112    53    54    1
   113    42    39    1
   114    39    38    1
