@<TRIPOS>MOLECULE
tmp/5admA02.pdb
 153 149 0 0 0
SMALL
GASTEIGER

@<TRIPOS>ATOM
      1  N         17.3390   11.5060   45.6190 N.3    40  VAL40      -0.1245
      2  CA        17.0750   11.6670   44.1870 C.3    40  VAL40       0.1561
      3  C         18.2280   11.1390   43.3390 C.2    40  VAL40       0.2260
      4  O         18.0120   10.4090   42.3750 O.2    40  VAL40      -0.2867
      5  CB        16.8140   13.1340   43.8030 C.3    40  VAL40       0.0252
      6  CG1       16.6110   13.2520   42.2860 C.3    40  VAL40       0.0019
      7  CG2       15.6030   13.6710   44.5470 C.3    40  VAL40       0.0019
      8  N          8.8610    5.3010   37.0030 N.3   109  CYS109     -0.1235
      9  CA         7.8250    5.6370   36.0260 C.3   109  CYS109      0.1677
     10  C          6.5070    4.9350   36.3240 C.2   109  CYS109      0.2270
     11  O          6.4340    3.6940   36.3420 O.2   109  CYS109     -0.2867
     12  CB         8.2720    5.2790   34.6090 C.3   109  CYS109      0.0956
     13  SG         6.9830    5.5180   33.3630 S.3   109  CYS109     -0.0801
     14  N         17.2440   19.6370   29.1640 N.3   171  SER171     -0.1202
     15  CA        16.7260   18.4940   29.9040 C.3   171  SER171      0.2020
     16  C         15.4500   17.9590   29.2700 C.2   171  SER171      0.2618
     17  O         15.1840   16.7590   29.3410 O.2   171  SER171     -0.2717
     18  CB        16.4540   18.8730   31.3530 C.3   171  SER171      0.2103
     19  OG        15.5580   19.9670   31.3990 O.3   171  SER171     -0.2182
     20  N         14.6480   18.8370   28.6680 N.am  172  GLN172     -0.1979
     21  CA        13.5500   18.3660   27.8120 C.3   172  GLN172      0.1601
     22  C         13.5910   19.1120   26.4760 C.2   172  GLN172      0.2287
     23  O         14.1960   20.1860   26.3730 O.2   172  GLN172     -0.2864
     24  CB        12.1850   18.5690   28.4730 C.3   172  GLN172      0.0394
     25  CG        12.0470   18.0100   29.8750 C.3   172  GLN172      0.0908
     26  CD        10.6990   18.3240   30.5060 C.2   172  GLN172      0.2608
     27  OE1       10.5590   18.2790   31.7250 O.2   172  GLN172     -0.2717
     28  NE2        9.7070   18.6420   29.6870 N.am  172  GLN172     -0.0878
     29  N         10.9350   23.3820   26.9590 N.3   175  ARG175     -0.1245
     30  CA        11.0740   23.9460   28.3070 C.3   175  ARG175      0.1563
     31  C         10.8680   25.4570   28.2610 C.2   175  ARG175      0.2260
     32  O         11.1040   26.0910   27.2280 O.2   175  ARG175     -0.2867
     33  CB        12.4610   23.6350   28.8840 C.3   175  ARG175      0.0307
     34  CG        12.7570   22.1380   29.0730 C.3   175  ARG175      0.0489
     35  CD        13.0570   21.8050   30.5170 C.3   175  ARG175      0.2205
     36  NE        11.9260   22.0990   31.3830 N.pl3 175  ARG175     -0.0865
     37  CZ        11.9480   21.9850   32.7080 C.cat 175  ARG175      0.5346
     38  NH1       13.0480   21.5870   33.3290 N.pl3 175  ARG175      0.1354
     39  NH2       10.8690   22.2810   33.4170 N.pl3 175  ARG175      0.1354
     40  N          5.8240   15.9870   27.1230 N.3   259  PRO259     -0.2116
     41  CA         6.9350   15.7830   28.0550 C.3   259  PRO259      0.1372
     42  C          7.9810   14.9110   27.3880 C.2   259  PRO259      0.2244
     43  O          7.8070   13.6880   27.2900 O.2   259  PRO259     -0.2868
     44  CB         6.2900   15.0060   29.2150 C.3   259  PRO259      0.0268
     45  CG         4.8760   14.7040   28.7850 C.3   259  PRO259      0.0207
     46  CD         4.7530   15.0050   27.3270 C.3   259  PRO259      0.0892
     47  N         11.7100   14.0490   27.6360 N.3   261  VAL261     -0.1245
     48  CA        12.9790   14.0580   28.3610 C.3   261  VAL261      0.1561
     49  C         14.1520   13.7630   27.4500 C.2   261  VAL261      0.2260
     50  O         14.1360   12.7750   26.6890 O.2   261  VAL261     -0.2867
     51  CB        12.9380   13.0490   29.5080 C.3   261  VAL261      0.0252
     52  CG1       14.2950   12.9390   30.1920 C.3   261  VAL261      0.0019
     53  CG2       11.9410   13.5440   30.4870 C.3   261  VAL261      0.0019
     54  N         17.7730   14.3740   28.3910 N.3   263  ASN263     -0.1225
     55  CA        19.1290   14.3850   28.9270 C.3   263  ASN263      0.1785
     56  C         19.5160   13.0740   29.5960 C.2   263  ASN263      0.2597
     57  O         20.5570   12.9920   30.2510 O.2   263  ASN263     -0.2718
     58  CB        19.3450   15.5740   29.8760 C.3   263  ASN263      0.1169
     59  CG        18.5420   15.4540   31.1590 C.2   263  ASN263      0.2627
     60  OD1       17.5920   14.6630   31.2580 O.2   263  ASN263     -0.2716
     61  ND2       18.9170   16.2490   32.1530 N.am  263  ASN263     -0.0877
     62  N         18.6880   12.0470   29.4320 N.am  264  MET264     -0.1979
     63  CA        19.0020   10.7670   30.0450 C.3   264  MET264      0.1605
     64  C         19.8230    9.8590   29.1460 C.2   264  MET264      0.2287
     65  O         19.7770    9.9540   27.9150 O.2   264  MET264     -0.2864
     66  CB        17.7430   10.0560   30.5180 C.3   264  MET264      0.0413
     67  CG        17.0740   10.8090   31.6590 C.3   264  MET264      0.0598
     68  SD        15.8130    9.8100   32.4370 S.3   264  MET264     -0.1393
     69  CE        16.8290    8.7790   33.5140 C.3   264  MET264      0.0692
     70  N         13.1150   10.7760   24.7170 N.3   278  PHE278     -0.1241
     71  CA        11.8670   10.0390   24.6390 C.3   278  PHE278      0.1605
     72  C         10.7310   10.8790   25.2220 C.2   278  PHE278      0.2264
     73  O         10.9600   11.8150   26.0030 O.2   278  PHE278     -0.2867
     74  CB        12.0010    8.7170   25.3910 C.3   278  PHE278      0.0534
     75  CG        12.3820    8.8820   26.8410 C.ar  278  PHE278     -0.0203
     76  CD1       11.4110    9.1240   27.8010 C.ar  278  PHE278     -0.0042
     77  CD2       13.7030    8.8120   27.2380 C.ar  278  PHE278     -0.0042
     78  CE1       11.7400    9.2590   29.1290 C.ar  278  PHE278     -0.0003
     79  CE2       14.0450    8.9540   28.5740 C.ar  278  PHE278     -0.0003
     80  CZ        13.0570    9.1850   29.5200 C.ar  278  PHE278     -0.0000
     81  N          6.2260   10.8310   26.3320 N.3   280  GLY280     -0.1210
     82  CA         4.9540   10.1400   26.4440 C.3   280  GLY280      0.1956
     83  C          3.8480   11.1710   26.4730 C.2   280  GLY280      0.2612
     84  O          3.7800   12.0200   25.5880 O.2   280  GLY280     -0.2717
     85  N          2.9770   11.0890   27.4800 N.am  281  TRP281     -0.1962
     86  CA         2.0330   12.1620   27.7740 C.3   281  TRP281      0.1771
     87  C          2.0960   12.4660   29.2650 C.2   281  TRP281      0.2620
     88  O          2.6510   11.6740   30.0290 O.2   281  TRP281     -0.2715
     89  CB         0.6120   11.8170   27.3230 C.3   281  TRP281      0.0590
     90  CG         0.0960   10.4830   27.7930 C.ar  281  TRP281      0.0006
     91  CD1       -0.4370   10.1840   29.0240 C.ar  281  TRP281      0.0946
     92  CD2        0.0340    9.2720   27.0200 C.ar  281  TRP281      0.0152
     93  NE1       -0.8130    8.8420   29.0620 N.ar  281  TRP281     -0.2442
     94  CE2       -0.5320    8.2700   27.8450 C.ar  281  TRP281      0.0810
     95  CE3        0.4170    8.9320   25.7190 C.ar  281  TRP281      0.0012
     96  CZ2       -0.7310    6.9630   27.3980 C.ar  281  TRP281      0.0191
     97  CZ3        0.2170    7.6400   25.2770 C.ar  281  TRP281      0.0001
     98  CH2       -0.3460    6.6650   26.1150 C.ar  281  TRP281      0.0015
     99  N          1.5530   13.6100   29.6810 N.am  282  TYR282     -0.1960
    100  CA         1.6670   14.0460   31.0760 C.3   282  TYR282      0.1771
    101  C          0.6690   13.3760   31.9990 C.2   282  TYR282      0.2619
    102  O         -0.4430   13.0180   31.5970 O.2   282  TYR282     -0.2715
    103  CB         1.4450   15.5560   31.2010 C.3   282  TYR282      0.0574
    104  CG         2.6970   16.3990   31.1720 C.ar  282  TYR282     -0.0198
    105  CD1        3.6120   16.3610   32.2200 C.ar  282  TYR282     -0.0009
    106  CD2        2.9530   17.2480   30.1050 C.ar  282  TYR282     -0.0009
    107  CE1        4.7520   17.1500   32.1960 C.ar  282  TYR282      0.0417
    108  CE2        4.1030   18.0440   30.0650 C.ar  282  TYR282      0.0417
    109  CZ         4.9860   17.9930   31.1150 C.ar  282  TYR282      0.1957
    110  OH         6.1190   18.7790   31.0970 O.3   282  TYR282     -0.2866
    111  N          1.0710   13.2250   33.2500 N.am  283  MET283     -0.1977
    112  CA         0.1150   13.0200   34.3160 C.3   283  MET283      0.1605
    113  C         -0.1590   14.4090   34.8910 C.2   283  MET283      0.2287
    114  O          0.7700   15.2230   35.0340 O.2   283  MET283     -0.2864
    115  CB         0.6920   12.0850   35.3860 C.3   283  MET283      0.0413
    116  CG        -0.3060   11.7350   36.4800 C.3   283  MET283      0.0598
    117  SD         0.3330   10.4630   37.5950 S.3   283  MET283     -0.1393
    118  CE         1.6580   11.3790   38.3900 C.3   283  MET283      0.0692
    119  N          1.9960   16.3320   37.5070 N.3   286  GLU286     -0.1245
    120  CA         3.3130   16.8240   37.1150 C.3   286  GLU286      0.1567
    121  C          3.2290   18.3130   36.7850 C.2   286  GLU286      0.2260
    122  O          4.1190   19.0840   37.1490 O.2   286  GLU286     -0.2867
    123  CB         3.8450   16.0870   35.8760 C.3   286  GLU286      0.0388
    124  CG         4.1810   14.6280   36.0500 C.3   286  GLU286      0.1160
    125  CD         4.6020   14.0320   34.7250 C.2   286  GLU286      0.3649
    126  OE1        5.7950   14.2080   34.3730 O.co2 286  GLU286     -0.2457
    127  OE2        3.7350   13.4340   34.0260 O.co2 286  GLU286     -0.2457
    128  N          8.3990    7.9480   44.2620 N.3   371  TRP371     -0.1241
    129  CA         8.1790    8.5830   42.9600 C.3   371  TRP371      0.1605
    130  C          6.8660    8.1500   42.3290 C.2   371  TRP371      0.2264
    131  O          6.2660    8.8820   41.5400 O.2   371  TRP371     -0.2867
    132  CB         9.3380    8.2580   42.0150 C.3   371  TRP371      0.0550
    133  CG        10.5050    9.1910   42.1770 C.ar  371  TRP371      0.0003
    134  CD1       11.3150    9.3250   43.2790 C.ar  371  TRP371      0.0946
    135  CD2       10.9960   10.1240   41.1950 C.ar  371  TRP371      0.0152
    136  NE1       12.2810   10.2890   43.0330 N.ar  371  TRP371     -0.2442
    137  CE2       12.1020   10.7960   41.7660 C.ar  371  TRP371      0.0810
    138  CE3       10.6080   10.4510   39.8890 C.ar  371  TRP371      0.0012
    139  CZ2       12.8260   11.7840   41.0710 C.ar  371  TRP371      0.0191
    140  CZ3       11.3230   11.4360   39.1940 C.ar  371  TRP371      0.0001
    141  CH2       12.4220   12.0880   39.7890 C.ar  371  TRP371      0.0015
    142  N         20.7450    8.7090   34.8050 N.3   399  TYR399     -0.1241
    143  CA        21.1710   10.1010   34.7680 C.3   399  TYR399      0.1605
    144  C         22.6060   10.1180   34.2730 C.2   399  TYR399      0.2264
    145  O         23.3210    9.1260   34.3890 O.2   399  TYR399     -0.2867
    146  CB        21.0940   10.7470   36.1440 C.3   399  TYR399      0.0534
    147  CG        19.7140   10.7320   36.7610 C.ar  399  TYR399     -0.0201
    148  CD1       18.6780   11.4970   36.2270 C.ar  399  TYR399     -0.0009
    149  CD2       19.4540    9.9720   37.8980 C.ar  399  TYR399     -0.0009
    150  CE1       17.4160   11.4930   36.8040 C.ar  399  TYR399      0.0417
    151  CE2       18.2070    9.9690   38.4870 C.ar  399  TYR399      0.0417
    152  CZ        17.1910   10.7220   37.9380 C.ar  399  TYR399      0.1957
    153  OH        15.9530   10.6850   38.5450 O.3   399  TYR399     -0.2866
@<TRIPOS>BOND
     1    71    70    1
     2    71    72    1
     3    71    74    1
     4    72    73    2
     5    97    95   ar
     6    97    98   ar
     7    74    75    1
     8    84    83    2
     9    95    92   ar
    10    98    96   ar
    11    81    82    1
    12    23    22    2
    13    82    83    1
    14    83    85   am
    15    22    21    1
    16    50    49    2
    17    75    77   ar
    18    75    76   ar
    19    29    30    1
    20    92    90   ar
    21    92    94   ar
    22    40    46    1
    23    40    41    1
    24    32    31    2
    25    77    79   ar
    26    43    42    2
    27    89    86    1
    28    89    90    1
    29    46    45    1
    30    42    41    1
    31    96    94   ar
    32    49    48    1
    33    85    86    1
    34    47    48    1
    35    86    87    1
    36    90    91   ar
    37    76    78   ar
    38    21    24    1
    39    21    20    1
    40    94    93   ar
    41    65    64    2
    42    41    44    1
    43    31    30    1
    44    30    33    1
    45    48    51    1
    46    54    55    1
    47    24    25    1
    48    79    80   ar
    49    20    16   am
    50    45    44    1
    51    33    34    1
    52    55    56    1
    53    55    58    1
    54    91    93   ar
    55    34    35    1
    56    78    80   ar
    57    64    63    1
    58    14    15    1
    59    87    99   am
    60    87    88    2
    61    16    17    2
    62    16    15    1
    63    62    56   am
    64    62    63    1
    65    51    52    1
    66    51    53    1
    67    56    57    2
    68    99   100    1
    69    28    26   am
    70    25    26    1
    71    58    59    1
    72    15    18    1
    73    63    66    1
    74   108   106   ar
    75   108   109   ar
    76   106   104   ar
    77    26    27    2
    78    35    36    1
    79    66    67    1
    80   100   103    1
    81   100   101    1
    82   110   109    1
    83   109   107   ar
    84    59    60    2
    85    59    61   am
    86   104   103    1
    87   104   105   ar
    88    18    19    1
    89    36    37    2
    90   102   101    2
    91    67    68    1
    92   101   111   am
    93   107   105   ar
    94    68    69    1
    95    37    38    1
    96    37    39    1
    97   111   112    1
    98    13    12    1
    99   127   125   ar
   100   144   145    2
   101   144   143    1
   102   112   113    1
   103   112   115    1
   104   126   125   ar
   105    12     9    1
   106   125   124    1
   107   143   142    1
   108   143   146    1
   109   113   114    2
   110   115   116    1
   111   123   124    1
   112   123   120    1
   113     9    10    1
   114     9     8    1
   115   146   147    1
   116   148   147   ar
   117   148   150   ar
   118    10    11    2
   119   116   117    1
   120   147   149   ar
   121   121   120    1
   122   121   122    2
   123   150   152   ar
   124   120   119    1
   125   117   118    1
   126   149   151   ar
   127   152   151   ar
   128   152   153    1
   129   140   141   ar
   130   140   138   ar
   131   141   139   ar
   132   138   135   ar
   133   139   137   ar
   134   135   137   ar
   135   135   133   ar
   136   131   130    2
   137   137   136   ar
   138   132   133    1
   139   132   129    1
   140   133   134   ar
   141     6     5    1
   142   130   129    1
   143     4     3    2
   144   129   128    1
   145   136   134   ar
   146     3     2    1
   147     5     2    1
   148     5     7    1
   149     2     1    1
