@<TRIPOS>MOLECULE
tmp/5adnB03.pdb
 154 150 0 0 0
SMALL
GASTEIGER

@<TRIPOS>ATOM
      1  N          6.0380   -3.5860   57.5230 N.3    39  LEU39      -0.1245
      2  CA         6.5560   -4.4050   58.6180 C.3    39  LEU39       0.1561
      3  C          7.8560   -5.1140   58.2520 C.2    39  LEU39       0.2260
      4  O          8.0820   -5.4490   57.0900 O.2    39  LEU39      -0.2867
      5  CB         5.5170   -5.4490   59.0330 C.3    39  LEU39       0.0270
      6  CG         4.1360   -4.9290   59.4430 C.3    39  LEU39       0.0019
      7  CD1        3.1020   -6.0480   59.3790 C.3    39  LEU39       0.0001
      8  CD2        4.1880   -4.3330   60.8270 C.3    39  LEU39       0.0001
      9  N          7.6490    9.1440   62.8790 N.3   108  CYS108     -0.1235
     10  CA         6.8250   10.1360   63.5760 C.3   108  CYS108      0.1677
     11  C          7.1100   11.5770   63.1530 C.2   108  CYS108      0.2270
     12  O          8.2180   12.0710   63.3650 O.2   108  CYS108     -0.2867
     13  CB         7.0100   10.0140   65.0980 C.3   108  CYS108      0.0956
     14  SG         6.0160   11.2110   66.0150 S.3   108  CYS108     -0.0801
     15  N         -4.9620   -2.5370   69.5200 N.3   170  SER170     -0.1202
     16  CA        -3.8780   -1.8120   68.8600 C.3   170  SER170      0.2020
     17  C         -3.8240   -0.3610   69.3350 C.2   170  SER170      0.2618
     18  O         -2.7740    0.2920   69.2900 O.2   170  SER170     -0.2717
     19  CB        -4.0590   -1.8650   67.3480 C.3   170  SER170      0.2103
     20  OG        -5.3390   -1.3790   67.0060 O.3   170  SER170     -0.2182
     21  N         -4.9650    0.1490   69.7870 N.am  171  GLN171     -0.1979
     22  CA        -5.0220    1.4690   70.4090 C.3   171  GLN171      0.1601
     23  C         -5.9190    1.3820   71.6370 C.2   171  GLN171      0.2287
     24  O         -6.7720    0.4920   71.7110 O.2   171  GLN171     -0.2864
     25  CB        -5.5890    2.5070   69.4370 C.3   171  GLN171      0.0394
     26  CG        -4.6790    2.8700   68.2680 C.3   171  GLN171      0.0908
     27  CD        -5.2410    4.0190   67.4230 C.2   171  GLN171      0.2608
     28  OE1       -5.0720    4.0420   66.2100 O.2   171  GLN171     -0.2717
     29  NE2       -5.9000    4.9740   68.0660 N.am  171  GLN171     -0.0878
     30  N        -10.6220    2.3850   70.0530 N.3   174  ARG174     -0.1245
     31  CA       -10.8280    1.8240   68.7140 C.3   174  ARG174      0.1563
     32  C        -12.3230    1.6170   68.5340 C.2   174  ARG174      0.2260
     33  O        -13.0170    1.3140   69.5100 O.2   174  ARG174     -0.2867
     34  CB       -10.1670    0.4410   68.6160 C.3   174  ARG174      0.0307
     35  CG        -8.6420    0.4170   68.6750 C.3   174  ARG174      0.0489
     36  CD        -8.0550    0.3590   67.2750 C.3   174  ARG174      0.2205
     37  NE        -8.1020    1.6690   66.6630 N.pl3 174  ARG174     -0.0865
     38  CZ        -7.8190    1.9150   65.3920 C.cat 174  ARG174      0.5346
     39  NH1       -7.4880    0.9190   64.5720 N.pl3 174  ARG174      0.1354
     40  NH2       -7.8850    3.1620   64.9420 N.pl3 174  ARG174      0.1354
     41  N         -5.1670    9.6620   70.2790 N.3   258  PRO258     -0.2116
     42  CA        -4.4960    8.5940   69.5360 C.3   258  PRO258      0.1372
     43  C         -3.4940    7.8980   70.4550 C.2   258  PRO258      0.2244
     44  O         -2.4150    8.4310   70.7320 O.2   258  PRO258     -0.2868
     45  CB        -3.7900    9.3500   68.3920 C.3   258  PRO258      0.0268
     46  CG        -3.4880   10.7200   68.9640 C.3   258  PRO258      0.0207
     47  CD        -4.4960   10.9690   70.1100 C.3   258  PRO258      0.0892
     48  N         -1.5230    4.5390   70.8980 N.3   260  VAL260     -0.1245
     49  CA        -1.0280    3.2830   70.3460 C.3   260  VAL260      0.1561
     50  C         -0.5540    2.3390   71.4490 C.2   260  VAL260      0.2260
     51  O          0.2370    2.7410   72.3120 O.2   260  VAL260     -0.2867
     52  CB         0.0970    3.5750   69.3570 C.3   260  VAL260      0.0252
     53  CG1        0.7750    2.2930   68.9000 C.3   260  VAL260      0.0019
     54  CG2       -0.4850    4.3250   68.1780 C.3   260  VAL260      0.0019
     55  N          0.0710   -1.4400   71.0720 N.3   262  ASN262     -0.1225
     56  CA         0.5840   -2.7750   70.7460 C.3   262  ASN262      0.1785
     57  C          2.0490   -2.7860   70.3190 C.2   262  ASN262      0.2597
     58  O          2.5420   -3.7990   69.8200 O.2   262  ASN262     -0.2718
     59  CB        -0.2680   -3.4220   69.6510 C.3   262  ASN262      0.1169
     60  CG        -0.2100   -2.6580   68.3610 C.2   262  ASN262      0.2627
     61  OD1        0.5190   -1.6700   68.2520 O.2   262  ASN262     -0.2716
     62  ND2       -0.9610   -3.1150   67.3600 N.am  262  ASN262     -0.0877
     63  N          2.7450   -1.6650   70.4930 N.am  263  MET263     -0.1979
     64  CA         4.1640   -1.6250   70.1330 C.3   263  MET263      0.1605
     65  C          5.0730   -1.9240   71.3230 C.2   263  MET263      0.2287
     66  O          4.6930   -1.7120   72.4810 O.2   263  MET263     -0.2864
     67  CB         4.5410   -0.2730   69.5090 C.3   263  MET263      0.0413
     68  CG         3.9260   -0.0590   68.1140 C.3   263  MET263      0.0598
     69  SD         4.5280    1.4650   67.4050 S.3   263  MET263     -0.1393
     70  CE         6.0990    0.8910   66.7450 C.3   263  MET263      0.0692
     71  N          1.3120    4.6130   74.4600 N.3   277  PHE277     -0.1241
     72  CA         1.6960    6.0190   74.4220 C.3   277  PHE277      0.1605
     73  C          0.6770    6.8090   73.5990 C.2   277  PHE277      0.2264
     74  O         -0.0160    6.2500   72.7460 O.2   277  PHE277     -0.2867
     75  CB         3.1050    6.1670   73.8350 C.3   277  PHE277      0.0534
     76  CG         3.2570    5.5780   72.4550 C.ar  277  PHE277     -0.0203
     77  CD1        2.8470    6.2880   71.3340 C.ar  277  PHE277     -0.0042
     78  CD2        3.8240    4.3200   72.2790 C.ar  277  PHE277     -0.0042
     79  CE1        3.0000    5.7500   70.0500 C.ar  277  PHE277     -0.0003
     80  CE2        3.9760    3.7720   70.9970 C.ar  277  PHE277     -0.0003
     81  CZ         3.5660    4.4920   69.8880 C.ar  277  PHE277     -0.0000
     82  N         -0.2830   10.9400   71.8190 N.3   279  GLY279     -0.1210
     83  CA         0.0220   12.3400   71.5870 C.3   279  GLY279      0.1956
     84  C         -1.2700   13.0640   71.2840 C.2   279  GLY279      0.2612
     85  O         -2.1930   13.0990   72.1110 O.2   279  GLY279     -0.2717
     86  N         -1.3410   13.6450   70.0940 N.am  280  TRP280     -0.1962
     87  CA        -2.5920   14.1890   69.5930 C.3   280  TRP280      0.1771
     88  C         -2.5900   13.9140   68.0920 C.2   280  TRP280      0.2620
     89  O         -1.5500   13.5390   67.5420 O.2   280  TRP280     -0.2715
     90  CB        -2.7700   15.6840   69.9500 C.3   280  TRP280      0.0590
     91  CG        -1.6150   16.5810   69.6190 C.ar  280  TRP280      0.0006
     92  CD1       -1.2870   17.0730   68.3820 C.ar  280  TRP280      0.0946
     93  CD2       -0.6570   17.1380   70.5380 C.ar  280  TRP280      0.0152
     94  NE1       -0.1730   17.8810   68.4760 N.ar  280  TRP280     -0.2442
     95  CE2        0.2330   17.9340   69.7860 C.ar  280  TRP280      0.0810
     96  CE3       -0.4630   17.0320   71.9210 C.ar  280  TRP280      0.0012
     97  CZ2        1.2990   18.6260   70.3730 C.ar  280  TRP280      0.0191
     98  CZ3        0.5980   17.7220   72.5040 C.ar  280  TRP280      0.0001
     99  CH2        1.4660   18.5020   71.7270 C.ar  280  TRP280      0.0015
    100  N         -3.7500   14.0270   67.4440 N.am  281  TYR281     -0.1960
    101  CA        -3.8720   13.6250   66.0470 C.3   281  TYR281      0.1771
    102  C         -3.3350   14.7010   65.1150 C.2   281  TYR281      0.2619
    103  O         -3.4030   15.8880   65.4410 O.2   281  TYR281     -0.2715
    104  CB        -5.3390   13.3760   65.7110 C.3   281  TYR281      0.0574
    105  CG        -5.7590   11.9280   65.8030 C.ar  281  TYR281     -0.0198
    106  CD1       -5.2160   10.9850   64.9510 C.ar  281  TYR281     -0.0009
    107  CD2       -6.7090   11.5090   66.7340 C.ar  281  TYR281     -0.0009
    108  CE1       -5.5970    9.6520   65.0110 C.ar  281  TYR281      0.0417
    109  CE2       -7.1000   10.1740   66.8060 C.ar  281  TYR281      0.0417
    110  CZ        -6.5380    9.2540   65.9340 C.ar  281  TYR281      0.1957
    111  OH        -6.9140    7.9230   65.9810 O.3   281  TYR281     -0.2866
    112  N         -2.7700   14.2870   63.9810 N.am  282  MET282     -0.1977
    113  CA        -2.5840   15.2030   62.8610 C.3   282  MET282      0.1605
    114  C         -3.8310   14.9460   62.0310 C.2   282  MET282      0.2287
    115  O         -4.2430   13.8000   61.8940 O.2   282  MET282     -0.2864
    116  CB        -1.3080   14.8850   62.0640 C.3   282  MET282      0.0413
    117  CG        -1.1630   15.7090   60.7510 C.3   282  MET282      0.0598
    118  SD         0.5100   15.5350   60.0910 S.3   282  MET282     -0.1393
    119  CE         0.3210   14.0250   59.1120 C.3   282  MET282      0.0692
    120  N         -4.6600   11.9260   59.5450 N.3   285  GLU285     -0.1245
    121  CA        -4.8180   10.5460   60.0290 C.3   285  GLU285      0.1567
    122  C         -6.2960   10.1890   60.0680 C.2   285  GLU285      0.2260
    123  O         -6.6980    9.0900   59.6730 O.2   285  GLU285     -0.2867
    124  CB        -4.2320   10.3830   61.4420 C.3   285  GLU285      0.0388
    125  CG        -2.7450   10.6460   61.5320 C.3   285  GLU285      0.1160
    126  CD        -2.2360   10.5490   62.9570 C.2   285  GLU285      0.3649
    127  OE1       -2.1430    9.4100   63.4660 O.co2 285  GLU285     -0.2457
    128  OE2       -1.9160   11.6010   63.5650 O.co2 285  GLU285     -0.2457
    129  N          6.3950    7.8870   55.3030 N.3   370  TRP370     -0.1241
    130  CA         5.5000    8.1260   56.4460 C.3   370  TRP370      0.1605
    131  C          5.4580    9.5840   56.8800 C.2   370  TRP370      0.2264
    132  O          4.4510   10.0450   57.4360 O.2   370  TRP370     -0.2867
    133  CB         5.9080    7.2620   57.6530 C.3   370  TRP370      0.0550
    134  CG         5.4300    5.8420   57.5430 C.ar  370  TRP370      0.0003
    135  CD1        5.7700    4.9280   56.5830 C.ar  370  TRP370      0.0946
    136  CD2        4.5070    5.1810   58.4180 C.ar  370  TRP370      0.0152
    137  NE1        5.1120    3.7390   56.8090 N.ar  370  TRP370     -0.2442
    138  CE2        4.3330    3.8670   57.9300 C.ar  370  TRP370      0.0810
    139  CE3        3.8230    5.5700   59.5760 C.ar  370  TRP370      0.0012
    140  CZ2        3.5020    2.9360   58.5640 C.ar  370  TRP370      0.0191
    141  CZ3        2.9900    4.6440   60.2030 C.ar  370  TRP370      0.0001
    142  CH2        2.8410    3.3430   59.6950 C.ar  370  TRP370      0.0015
    143  N          7.6870   -3.0280   66.3150 N.3   398  TYR398     -0.1241
    144  CA         6.5300   -3.8980   66.1800 C.3   398  TYR398      0.1605
    145  C          6.8120   -5.2180   66.8870 C.2   398  TYR398      0.2264
    146  O          7.9690   -5.6170   67.0190 O.2   398  TYR398     -0.2867
    147  CB         6.2180   -4.1400   64.7060 C.3   398  TYR398      0.0534
    148  CG         5.8650   -2.8840   63.9470 C.ar  398  TYR398     -0.0201
    149  CD1        4.7300   -2.1470   64.2690 C.ar  398  TYR398     -0.0009
    150  CD2        6.6530   -2.4470   62.8930 C.ar  398  TYR398     -0.0009
    151  CE1        4.3970   -1.0050   63.5620 C.ar  398  TYR398      0.0417
    152  CE2        6.3290   -1.3090   62.1810 C.ar  398  TYR398      0.0417
    153  CZ         5.1990   -0.5930   62.5170 C.ar  398  TYR398      0.1957
    154  OH         4.8770    0.5430   61.8100 O.3   398  TYR398     -0.2866
@<TRIPOS>BOND
     1   129   130    1
     2   130   131    1
     3   130   133    1
     4   135   137   ar
     5   135   134   ar
     6   137   138   ar
     7   131   132    2
     8     4     3    2
     9     1     2    1
    10   134   133    1
    11   134   136   ar
    12   138   136   ar
    13   138   140   ar
    14     3     2    1
    15   136   139   ar
    16   140   142   ar
    17     2     5    1
    18     5     6    1
    19   119   118    1
    20     7     6    1
    21     6     8    1
    22   120   121    1
    23   139   141   ar
    24   123   122    2
    25   142   141   ar
    26   121   122    1
    27   121   124    1
    28   118   117    1
    29   117   116    1
    30   124   125    1
    31   125   126    1
    32   154   153    1
    33   115   114    2
    34   114   113    1
    35   116   113    1
    36   152   153   ar
    37   152   150   ar
    38   153   151   ar
    39   113   112    1
    40     9    10    1
    41   150   148   ar
    42   126   127   ar
    43   126   128   ar
    44    11    12    2
    45    11    10    1
    46   151   149   ar
    47    10    13    1
    48   148   149   ar
    49   148   147    1
    50   112   102   am
    51    39    38    1
    52   147   144    1
    53    40    38    1
    54   106   108   ar
    55   106   105   ar
    56   108   110   ar
    57    13    14    1
    58   102   103    2
    59   102   101    1
    60    38    37    2
    61   104   105    1
    62   104   101    1
    63   105   107   ar
    64   110   111    1
    65   110   109   ar
    66   101   100    1
    67   144   143    1
    68   144   145    1
    69    28    27    2
    70    37    36    1
    71   107   109   ar
    72    70    69    1
    73   145   146    2
    74    20    19    1
    75    36    35    1
    76    19    16    1
    77    62    60   am
    78    69    68    1
    79    27    29   am
    80    27    26    1
    81   100    88   am
    82    89    88    2
    83    88    87    1
    84    68    67    1
    85    54    52    1
    86    61    60    2
    87    26    25    1
    88    60    59    1
    89    92    94   ar
    90    92    91   ar
    91    45    46    1
    92    45    42    1
    93    94    95   ar
    94    32    31    1
    95    32    33    2
    96    34    35    1
    97    34    31    1
    98    31    30    1
    99    16    17    1
   100    16    15    1
   101    53    52    1
   102    46    47    1
   103    18    17    2
   104    17    21   am
   105    52    49    1
   106    25    22    1
   107    67    64    1
   108    42    41    1
   109    42    43    1
   110    87    90    1
   111    87    86    1
   112    91    90    1
   113    91    93   ar
   114    59    56    1
   115    95    97   ar
   116    95    93   ar
   117    21    22    1
   118    58    57    2
   119    81    79   ar
   120    81    80   ar
   121    79    77   ar
   122    86    84   am
   123    47    41    1
   124    64    63    1
   125    64    65    1
   126    57    63   am
   127    57    56    1
   128    49    48    1
   129    49    50    1
   130    97    99   ar
   131    22    23    1
   132    43    44    2
   133    93    96   ar
   134    56    55    1
   135    80    78   ar
   136    84    83    1
   137    84    85    2
   138    65    66    2
   139    77    76   ar
   140    50    51    2
   141    83    82    1
   142    23    24    2
   143    99    98   ar
   144    96    98   ar
   145    78    76   ar
   146    76    75    1
   147    74    73    2
   148    73    72    1
   149    75    72    1
   150    72    71    1
