@<TRIPOS>MOLECULE
tmp/5adsA00.pdb
 170 169 0 0 0
SMALL
GASTEIGER

@<TRIPOS>ATOM
      1  N         10.4880   -2.3570   12.2020 N.3    80  HIS80      -0.1226
      2  CA        10.4400   -1.8490   13.5720 C.3    80  HIS80       0.1752
      3  C         11.5600   -2.4530   14.3760 C.2    80  HIS80       0.2597
      4  O         11.6670   -3.6900   14.4570 O.2    80  HIS80      -0.2718
      5  CB         9.0960   -2.1520   14.2410 C.3    80  HIS80       0.0759
      6  CG         9.0910   -1.8030   15.6820 C.ar   80  HIS80       0.0818
      7  ND1        8.8270   -0.5220   16.1270 N.ar   80  HIS80      -0.2268
      8  CD2        9.4360   -2.5280   16.7760 C.ar   80  HIS80       0.1154
      9  CE1        8.9830   -0.4880   17.4360 C.ar   80  HIS80       0.1986
     10  NE2        9.3480   -1.6830   17.8540 N.ar   80  HIS80      -0.2212
     11  N         12.3480   -1.5650   14.9790 N.am   81  GLY81      -0.1942
     12  CA        13.4080   -1.9350   15.9260 C.3    81  GLY81       0.2014
     13  C         13.1640   -1.2940   17.2700 C.2    81  GLY81       0.2640
     14  O         12.8850   -0.0800   17.3360 O.2    81  GLY81      -0.2714
     15  N         13.2490   -2.0970   18.3250 N.am   82  SER82      -0.1936
     16  CA        13.2170   -1.6110   19.7140 C.3    82  SER82       0.2040
     17  C         13.5630   -2.7820   20.6130 C.2    82  SER82       0.2485
     18  O         13.5820   -3.9320   20.1730 O.2    82  SER82      -0.2729
     19  CB        11.8410   -1.1030   20.1180 C.3    82  SER82       0.2129
     20  OG        10.8810   -2.1510   20.2400 O.3    82  SER82      -0.2179
     21  N         13.7780   -2.4960   21.8980 N.am   83  PRO83      -0.2715
     22  CA        14.0110   -3.5860   22.8190 C.3    83  PRO83       0.1536
     23  C         12.7440   -4.3980   23.1580 C.2    83  PRO83       0.2598
     24  O         12.8320   -5.3460   23.9200 O.2    83  PRO83      -0.2715
     25  CB        14.5400   -2.8350   24.0850 C.3    83  PRO83       0.0310
     26  CG        15.0670   -1.5250   23.5990 C.3    83  PRO83       0.0237
     27  CD        14.0510   -1.1770   22.5250 C.3    83  PRO83       0.0939
     28  N         11.5810   -4.0520   22.5930 N.am   84  PHE84      -0.1974
     29  CA        10.3030   -4.6330   23.0110 C.3    84  PHE84       0.1639
     30  C          9.7990   -5.7050   22.0360 C.2    84  PHE84       0.2290
     31  O          8.6610   -6.1390   22.1400 O.2    84  PHE84      -0.2864
     32  CB         9.2970   -3.5140   23.1390 C.3    84  PHE84       0.0560
     33  CG         9.7920   -2.4070   24.0290 C.ar   84  PHE84      -0.0200
     34  CD1       10.2480   -2.7060   25.3170 C.ar   84  PHE84      -0.0042
     35  CD2        9.9010   -1.1000   23.5680 C.ar   84  PHE84      -0.0042
     36  CE1       10.7520   -1.7170   26.1440 C.ar   84  PHE84      -0.0003
     37  CE2       10.4110   -0.1070   24.3950 C.ar   84  PHE84      -0.0003
     38  CZ        10.8270   -0.4140   25.6800 C.ar   84  PHE84      -0.0000
     39  N          8.1630   -8.9040   23.4030 N.3    87  ALA87      -0.1231
     40  CA         6.8270   -8.7100   23.9450 C.3    87  ALA87       0.1694
     41  C          5.7960   -8.4730   22.8400 C.2    87  ALA87       0.2591
     42  O          4.6440   -8.9490   22.9200 O.2    87  ALA87      -0.2718
     43  CB         6.8200   -7.5490   24.9020 C.3    87  ALA87       0.0304
     44  N          6.2220   -7.7400   21.8020 N.am   88  ILE88      -0.1980
     45  CA         5.3620   -7.4260   20.6660 C.3    88  ILE88       0.1595
     46  C          4.8520   -8.6610   19.9490 C.2    88  ILE88       0.2287
     47  O          3.6820   -8.7250   19.6070 O.2    88  ILE88      -0.2864
     48  CB         6.0690   -6.4350   19.6990 C.3    88  ILE88       0.0276
     49  CG1        6.2040   -5.0610   20.3980 C.3    88  ILE88       0.0022
     50  CG2        5.2720   -6.3080   18.4120 C.3    88  ILE88       0.0022
     51  CD1        7.2290   -4.1600   19.7790 C.3    88  ILE88       0.0001
     52  N          2.1030  -10.2890   22.3080 N.3    91  LYS91      -0.1231
     53  CA         0.9880   -9.5000   22.8000 C.3    91  LYS91       0.1693
     54  C          0.4480   -8.5850   21.7250 C.2    91  LYS91       0.2593
     55  O         -0.6340   -8.0370   21.9070 O.2    91  LYS91      -0.2718
     56  CB         1.4470   -8.6600   24.0070 C.3    91  LYS91       0.0285
     57  CG         2.0750   -9.4870   25.1320 C.3    91  LYS91       0.0035
     58  CD         1.8050   -8.8740   26.5070 C.3    91  LYS91       0.0206
     59  CE         2.6180   -9.5340   27.6210 C.3    91  LYS91       0.1093
     60  NZ         4.0530   -9.1150   27.6700 N.3    91  LYS91      -0.1314
     61  N          1.1900   -8.4230   20.6100 N.am   92  GLY92      -0.1942
     62  CA         0.8640   -7.4090   19.5860 C.3    92  GLY92       0.2014
     63  C          1.4070   -6.0590   19.9670 C.2    92  GLY92       0.2639
     64  O          1.8000   -5.8460   21.1060 O.2    92  GLY92      -0.2714
     65  N          1.4370   -5.1190   19.0300 N.am   93  PHE93      -0.1959
     66  CA         1.7810   -3.7500   19.3780 C.3    93  PHE93       0.1771
     67  C          0.6940   -3.2010   20.3230 C.2    93  PHE93       0.2619
     68  O         -0.4900   -3.5400   20.2190 O.2    93  PHE93      -0.2715
     69  CB         1.8930   -2.8480   18.1350 C.3    93  PHE93       0.0574
     70  CG         3.0860   -3.1480   17.2670 C.ar   93  PHE93      -0.0200
     71  CD1        4.3270   -2.6290   17.5950 C.ar   93  PHE93      -0.0042
     72  CD2        2.9680   -3.9610   16.1480 C.ar   93  PHE93      -0.0042
     73  CE1        5.4640   -2.9070   16.8000 C.ar   93  PHE93      -0.0003
     74  CE2        4.0690   -4.2330   15.3620 C.ar   93  PHE93      -0.0003
     75  CZ         5.3040   -3.7070   15.6740 C.ar   93  PHE93      -0.0000
     76  N          1.1180   -2.3620   21.2300 N.am   94  ASP94      -0.1971
     77  CA         0.1970   -1.7710   22.2220 C.3    94  ASP94       0.1709
     78  C          0.5990   -0.3370   22.4490 C.2    94  ASP94       0.2293
     79  O          1.6660   -0.0480   22.9960 O.2    94  ASP94      -0.2864
     80  CB         0.2260   -2.5580   23.5270 C.3    94  ASP94       0.1436
     81  CG        -0.8370   -2.0820   24.5180 C.2    94  ASP94       0.3671
     82  OD1       -1.3060   -0.9270   24.4020 O.co2  94  ASP94      -0.2456
     83  OD2       -1.2010   -2.8690   25.4040 O.co2  94  ASP94      -0.2456
     84  N          1.9410    1.2990   25.7080 N.3    97  HIS97      -0.1226
     85  CA         3.3880    1.2580   26.0540 C.3    97  HIS97       0.1752
     86  C          4.2470    2.1710   25.2420 C.2    97  HIS97       0.2595
     87  O          5.4500    2.1760   25.3890 O.2    97  HIS97      -0.2718
     88  CB         3.9460   -0.1490   25.8780 C.3    97  HIS97       0.0759
     89  CG         3.2480   -1.1670   26.7060 C.ar   97  HIS97       0.0818
     90  ND1        3.8080   -1.7050   27.8420 N.ar   97  HIS97      -0.2268
     91  CD2        2.0270   -1.7360   26.5760 C.ar   97  HIS97       0.1154
     92  CE1        2.9660   -2.5760   28.3680 C.ar   97  HIS97       0.1986
     93  NE2        1.8770   -2.6110   27.6220 N.ar   97  HIS97      -0.2212
     94  N          3.6380    2.9030   24.3270 N.am   98  ALA98      -0.1980
     95  CA         4.3770    3.6910   23.3710 C.3    98  ALA98       0.1597
     96  C          4.0730    5.1510   23.6800 C.2    98  ALA98       0.2287
     97  O          3.4890    5.8970   22.8650 O.2    98  ALA98      -0.2864
     98  CB         3.9610    3.2990   21.9590 C.3    98  ALA98       0.0319
     99  N          6.5310    7.1690   24.8810 N.3   100  ILE100     -0.1231
    100  CA         7.7940    7.8840   24.8090 C.3   100  ILE100      0.1692
    101  C          7.7140    8.8550   23.6200 C.2   100  ILE100      0.2593
    102  O          7.4320    8.4470   22.4820 O.2   100  ILE100     -0.2718
    103  CB         9.0110    6.9070   24.7150 C.3   100  ILE100      0.0266
    104  CG1        8.9610    5.8830   25.8670 C.3   100  ILE100      0.0019
    105  CG2       10.3310    7.6820   24.7360 C.3   100  ILE100      0.0020
    106  CD1       10.0370    4.8070   25.8330 C.3   100  ILE100      0.0001
    107  N          7.9500   10.1400   23.9000 N.am  101  GLY101     -0.1942
    108  CA         7.8680   11.1860   22.8990 C.3   101  GLY101      0.2014
    109  C          9.1080   11.2430   22.0440 C.2   101  GLY101      0.2639
    110  O         10.1490   11.7390   22.4700 O.2   101  GLY101     -0.2714
    111  N          9.0140   10.7450   20.8220 N.am  102  GLY102     -0.1939
    112  CA        10.0880   10.9450   19.8570 C.3   102  GLY102      0.2014
    113  C          9.7510   12.1550   18.9850 C.2   102  GLY102      0.2638
    114  O          8.8180   12.8900   19.2700 O.2   102  GLY102     -0.2714
    115  N         10.4730   12.3050   17.8970 N.am  103  MET103     -0.1976
    116  CA        10.2820   13.4380   16.9940 C.3   103  MET103      0.1605
    117  C          8.8420   13.6430   16.4940 C.2   103  MET103      0.2287
    118  O          8.4100   14.7900   16.2370 O.2   103  MET103     -0.2864
    119  CB        11.2170   13.2740   15.8240 C.3   103  MET103      0.0413
    120  CG        11.0720   14.3480   14.7800 C.3   103  MET103      0.0598
    121  SD        12.3860   14.0650   13.6230 S.3   103  MET103     -0.1393
    122  CE        13.6440   15.1670   14.2560 C.3   103  MET103      0.0692
    123  N          3.9010    7.3070   20.1440 N.3   107  GLY107     -0.1210
    124  CA         3.2190    6.4110   19.2190 C.3   107  GLY107      0.1956
    125  C          4.1600    5.2610   18.8670 C.2   107  GLY107      0.2612
    126  O          5.2180    5.1210   19.4630 O.2   107  GLY107     -0.2717
    127  N          3.7370    4.4510   17.9000 N.am  108  ILE108     -0.1965
    128  CA         4.4940    3.2680   17.5040 C.3   108  ILE108      0.1727
    129  C          5.2300    3.6180   16.1950 C.2   108  ILE108      0.2616
    130  O          4.5840    3.9730   15.2170 O.2   108  ILE108     -0.2715
    131  CB         3.5420    2.0630   17.3500 C.3   108  ILE108      0.0290
    132  CG1        2.7540    1.8020   18.6410 C.3   108  ILE108      0.0022
    133  CG2        4.3100    0.8260   16.8930 C.3   108  ILE108      0.0023
    134  CD1        1.4910    1.0120   18.4150 C.3   108  ILE108      0.0001
    135  N          6.5510    3.5220   16.1830 N.am  109  TYR109     -0.1974
    136  CA         7.3970    3.9870   15.1190 C.3   109  TYR109      0.1639
    137  C          7.8250    2.8200   14.1760 C.2   109  TYR109      0.2290
    138  O          8.1220    1.7140   14.6440 O.2   109  TYR109     -0.2864
    139  CB         8.6700    4.6310   15.6690 C.3   109  TYR109      0.0560
    140  CG         8.4350    6.0640   16.1650 C.ar  109  TYR109     -0.0198
    141  CD1        7.4940    6.3280   17.1490 C.ar  109  TYR109     -0.0009
    142  CD2        9.1620    7.1350   15.6480 C.ar  109  TYR109     -0.0009
    143  CE1        7.2730    7.6400   17.6000 C.ar  109  TYR109      0.0417
    144  CE2        8.9460    8.4330   16.1170 C.ar  109  TYR109      0.0417
    145  CZ         7.9920    8.6770   17.0720 C.ar  109  TYR109      0.1957
    146  OH         7.7170   10.0090   17.5480 O.3   109  TYR109     -0.2866
    147  N         17.6820    1.4330   17.0190 N.3   120  TYR120     -0.1241
    148  CA        16.8530    1.4080   18.2260 C.3   120  TYR120      0.1605
    149  C         16.7780    0.0640   18.9040 C.2   120  TYR120      0.2264
    150  O         16.1650   -0.0300   19.9650 O.2   120  TYR120     -0.2867
    151  CB        15.4270    1.8860   17.9150 C.3   120  TYR120      0.0534
    152  CG        15.4420    3.3450   17.6050 C.ar  120  TYR120     -0.0201
    153  CD1       15.4540    4.2880   18.6340 C.ar  120  TYR120     -0.0009
    154  CD2       15.5270    3.8010   16.3090 C.ar  120  TYR120     -0.0009
    155  CE1       15.4900    5.6550   18.3620 C.ar  120  TYR120      0.0417
    156  CE2       15.5840    5.1720   16.0230 C.ar  120  TYR120      0.0417
    157  CZ        15.5630    6.0850   17.0510 C.ar  120  TYR120      0.1957
    158  OH        15.6260    7.4290   16.7790 O.3   120  TYR120     -0.2866
    159  N         17.9190    0.3770   22.3280 N.3   123  GLY123     -0.1210
    160  CA        17.2350    1.4610   23.0160 C.3   123  GLY123      0.1956
    161  C         17.4700    2.7840   22.3070 C.2   123  GLY123      0.2611
    162  O         18.0180    2.8660   21.1900 O.2   123  GLY123     -0.2717
    163  N         17.0070    3.8500   22.9380 N.am  124  ILE124     -0.1979
    164  CA        17.1470    5.1680   22.3530 C.3   124  ILE124      0.1595
    165  C         18.6070    5.5130   22.1340 C.2   124  ILE124      0.2287
    166  O         19.4720    5.3740   23.0370 O.2   124  ILE124     -0.2864
    167  CB        16.4190    6.2260   23.2220 C.3   124  ILE124      0.0276
    168  CG1       14.9120    5.9790   23.1610 C.3   124  ILE124      0.0022
    169  CG2       16.7900    7.6490   22.7650 C.3   124  ILE124      0.0022
    170  CD1       14.1140    6.8310   24.1200 C.3   124  ILE124      0.0001
@<TRIPOS>BOND
     1     1     2    1
     2     2     5    1
     3     2     3    1
     4   121   122    1
     5   121   120    1
     6   137   138    2
     7   137   136    1
     8     5     6    1
     9     3     4    2
    10     3    11   am
    11   120   119    1
    12    11    12    1
    13   136   139    1
    14   136   135    1
    15   130   129    2
    16    74    75   ar
    17    74    72   ar
    18   142   144   ar
    19   142   140   ar
    20   139   140    1
    21    75    73   ar
    22     6     7   ar
    23     6     8   ar
    24   119   116    1
    25    12    13    1
    26   156   154   ar
    27   156   157   ar
    28   144   145   ar
    29     7     9   ar
    30    72    70   ar
    31   140   141   ar
    32   135   129   am
    33   129   128    1
    34   118   117    2
    35   154   152   ar
    36   117   116    1
    37     8    10   ar
    38   158   157    1
    39    73    71   ar
    40   133   131    1
    41   116   115    1
    42   147   148    1
    43   157   155   ar
    44   145   146    1
    45   145   143   ar
    46   141   143   ar
    47    70    71   ar
    48    70    69    1
    49    13    14    2
    50    13    15   am
    51   131   128    1
    52   131   132    1
    53     9    10   ar
    54   128   127    1
    55   152   151    1
    56   152   153   ar
    57   115   113   am
    58   127   125   am
    59   151   148    1
    60    69    66    1
    61   148   149    1
    62    15    16    1
    63   155   153   ar
    64    50    48    1
    65   134   132    1
    66   125   124    1
    67   125   126    2
    68   149   150    2
    69   113   114    2
    70   113   112    1
    71    65    66    1
    72    65    63   am
    73   124   123    1
    74    66    67    1
    75    62    63    1
    76    62    61    1
    77    47    46    2
    78    48    49    1
    79    48    45    1
    80    16    19    1
    81    16    17    1
    82    51    49    1
    83   112   111    1
    84    46    45    1
    85    63    64    2
    86    19    20    1
    87    18    17    2
    88    68    67    2
    89    67    76   am
    90    61    54   am
    91    17    21   am
    92    45    44    1
    93   111   109   am
    94   162   161    2
    95    76    77    1
    96    54    55    2
    97    54    53    1
    98    44    41   am
    99    21    27    1
   100    21    22    1
   101    98    95    1
   102    30    31    2
   103    30    29    1
   104   109   110    2
   105   109   108    1
   106   165   164    1
   107   165   166    2
   108    77    78    1
   109    77    80    1
   110   161   163   am
   111   161   160    1
   112    52    53    1
   113   159   160    1
   114   164   163    1
   115   164   167    1
   116    78    79    2
   117   102   101    2
   118    27    26    1
   119    28    29    1
   120    28    23   am
   121   169   167    1
   122    53    56    1
   123    22    23    1
   124    22    25    1
   125    41    42    2
   126    41    40    1
   127    97    96    2
   128   108   107    1
   129    29    32    1
   130    32    33    1
   131    23    24    2
   132   168   167    1
   133   168   170    1
   134    95    96    1
   135    95    94    1
   136    39    40    1
   137    80    81    1
   138    35    33   ar
   139    35    37   ar
   140    26    25    1
   141   101   107   am
   142   101   100    1
   143    40    43    1
   144    56    57    1
   145    33    34   ar
   146    94    86   am
   147    37    38   ar
   148    82    81   ar
   149    81    83   ar
   150   103   105    1
   151   103   100    1
   152   103   104    1
   153   100    99    1
   154    57    58    1
   155    86    87    2
   156    86    85    1
   157    34    36   ar
   158    38    36   ar
   159    84    85    1
   160   106   104    1
   161    88    85    1
   162    88    89    1
   163    58    59    1
   164    91    89   ar
   165    91    93   ar
   166    89    90   ar
   167    59    60    1
   168    93    92   ar
   169    90    92   ar
