@<TRIPOS>MOLECULE
tmp/5adzA01.pdb
 196 191 0 0 0
SMALL
GASTEIGER

@<TRIPOS>ATOM
      1  N         41.4690   66.3480   24.3190 N.3    16  TRP16      -0.1241
      2  CA        40.7750   65.2260   24.9260 C.3    16  TRP16       0.1605
      3  C         40.0120   64.3710   23.9120 C.2    16  TRP16       0.2264
      4  O         39.2840   64.8870   23.0690 O.2    16  TRP16      -0.2867
      5  CB        39.8180   65.6880   26.0180 C.3    16  TRP16       0.0550
      6  CG        39.0540   64.5410   26.6090 C.ar   16  TRP16       0.0003
      7  CD1       37.7630   64.2270   26.3590 C.ar   16  TRP16       0.0946
      8  CD2       39.5490   63.5230   27.4820 C.ar   16  TRP16       0.0152
      9  NE1       37.4090   63.0810   27.0150 N.ar   16  TRP16      -0.2442
     10  CE2       38.4810   62.6260   27.7190 C.ar   16  TRP16       0.0810
     11  CE3       40.7970   63.2720   28.0830 C.ar   16  TRP16       0.0012
     12  CZ2       38.6010   61.4960   28.5640 C.ar   16  TRP16       0.0191
     13  CZ3       40.9400   62.1350   28.8980 C.ar   16  TRP16       0.0001
     14  CH2       39.8430   61.2620   29.1290 C.ar   16  TRP16       0.0015
     15  N         30.8750   84.4790   29.2050 N.3    56  PHE56      -0.1241
     16  CA        32.2660   84.8790   28.9000 C.3    56  PHE56       0.1605
     17  C         32.4350   86.1760   28.0560 C.2    56  PHE56       0.2264
     18  O         33.5630   86.7070   27.9250 O.2    56  PHE56      -0.2867
     19  CB        32.9970   83.7110   28.2320 C.3    56  PHE56       0.0534
     20  CG        33.1030   82.4750   29.1050 C.ar   56  PHE56      -0.0203
     21  CD1       34.0590   82.4060   30.1160 C.ar   56  PHE56      -0.0042
     22  CD2       32.2250   81.3940   28.9330 C.ar   56  PHE56      -0.0042
     23  CE1       34.1470   81.2810   30.9260 C.ar   56  PHE56      -0.0003
     24  CE2       32.3180   80.2620   29.7360 C.ar   56  PHE56      -0.0003
     25  CZ        33.2800   80.2070   30.7360 C.ar   56  PHE56      -0.0000
     26  N         46.7470   65.8880   30.5540 N.3    97  HIS97      -0.1241
     27  CA        45.6860   66.8190   30.2580 C.3    97  HIS97       0.1621
     28  C         45.5870   68.0750   31.1220 C.2    97  HIS97       0.2264
     29  O         44.4760   68.6100   31.3540 O.2    97  HIS97      -0.2867
     30  CB        44.3810   66.0270   30.1450 C.3    97  HIS97       0.0745
     31  CG        44.2980   65.2940   28.8540 C.ar   97  HIS97       0.0817
     32  ND1       44.8270   64.0290   28.6800 N.ar   97  HIS97      -0.2268
     33  CD2       43.8690   65.6880   27.6390 C.ar   97  HIS97       0.1154
     34  CE1       44.7020   63.6680   27.4150 C.ar   97  HIS97       0.1986
     35  NE2       44.1200   64.6540   26.7660 N.ar   97  HIS97      -0.2212
     36  N         46.3800   64.6280   35.1650 N.3   149  VAL149     -0.1245
     37  CA        46.2060   66.0900   35.2540 C.3   149  VAL149      0.1561
     38  C         47.1220   66.6500   36.3450 C.2   149  VAL149      0.2260
     39  O         46.7630   67.5890   37.0490 O.2   149  VAL149     -0.2867
     40  CB        44.7200   66.4710   35.5200 C.3   149  VAL149      0.0252
     41  CG1       43.8320   66.0490   34.3470 C.3   149  VAL149      0.0019
     42  CG2       44.1760   65.8250   36.8030 C.3   149  VAL149      0.0019
     43  N         35.7710   59.5300   35.7770 N.3   211  ASP211     -0.1239
     44  CA        35.3520   60.2270   34.5300 C.3   211  ASP211      0.1674
     45  C         36.2290   59.9370   33.3190 C.2   211  ASP211      0.2266
     46  O         35.7420   60.0700   32.2080 O.2   211  ASP211     -0.2867
     47  CB        35.3260   61.7580   34.7240 C.3   211  ASP211      0.1410
     48  CG        34.4070   62.2130   35.8720 C.2   211  ASP211      0.3668
     49  OD1       33.6410   61.4190   36.4420 O.co2 211  ASP211     -0.2456
     50  OD2       34.4860   63.3930   36.2010 O.co2 211  ASP211     -0.2456
     51  N         28.7160   63.8620   32.3040 N.3   416  THR416     -0.1218
     52  CA        30.0050   63.7360   32.9470 C.3   416  THR416      0.1862
     53  C         31.1010   63.3720   31.9600 C.2   416  THR416      0.2287
     54  O         32.2090   63.8630   32.0700 O.2   416  THR416     -0.2866
     55  CB        29.9810   62.6830   34.0610 C.3   416  THR416      0.1770
     56  OG1       29.5970   61.4300   33.5310 O.3   416  THR416     -0.2211
     57  CG2       28.9820   63.0070   35.0770 C.3   416  THR416      0.0375
     58  N         31.8470   66.6950   29.2240 N.3   419  ILE419     -0.1231
     59  CA        32.3660   67.9470   29.7150 C.3   419  ILE419      0.1692
     60  C         33.8250   68.1650   29.3070 C.2   419  ILE419      0.2591
     61  O         34.2220   69.3080   28.9450 O.2   419  ILE419     -0.2718
     62  CB        32.1390   68.0180   31.2410 C.3   419  ILE419      0.0266
     63  CG1       30.6540   68.3770   31.4660 C.3   419  ILE419      0.0019
     64  CG2       33.0180   69.0600   31.9140 C.3   419  ILE419      0.0020
     65  CD1       30.1110   67.8250   32.7440 C.3   419  ILE419      0.0001
     66  N         34.6090   67.0890   29.3170 N.am  420  ALA420     -0.1980
     67  CA        36.0430   67.1960   29.0110 C.3   420  ALA420      0.1597
     68  C         36.3050   67.6550   27.5700 C.2   420  ALA420      0.2287
     69  O         37.3830   68.1740   27.2750 O.2   420  ALA420     -0.2864
     70  CB        36.7440   65.8750   29.3080 C.3   420  ALA420      0.0319
     71  N         34.6820   70.1010   26.2260 N.3   422  MET422     -0.1230
     72  CA        34.4150   71.5340   26.2310 C.3   422  MET422      0.1702
     73  C         35.6520   72.3880   26.2920 C.2   422  MET422      0.2592
     74  O         35.5820   73.5490   25.9770 O.2   422  MET422     -0.2718
     75  CB        33.4560   71.8870   27.3680 C.3   422  MET422      0.0401
     76  CG        32.1200   71.1750   27.1400 C.3   422  MET422      0.0596
     77  SD        30.9080   71.5370   28.4020 S.3   422  MET422     -0.1393
     78  CE        29.5090   70.5960   27.7910 C.3   422  MET422      0.0692
     79  N         36.7770   71.8280   26.7150 N.am  423  ARG423     -0.1980
     80  CA        38.0390   72.5560   26.6870 C.3   423  ARG423      0.1597
     81  C         38.3860   72.9840   25.3020 C.2   423  ARG423      0.2287
     82  O         38.7010   74.1450   25.0650 O.2   423  ARG423     -0.2864
     83  CB        39.2030   71.7290   27.2180 C.3   423  ARG423      0.0334
     84  CG        40.5670   72.3150   26.8460 C.3   423  ARG423      0.0492
     85  CD        41.6470   71.6460   27.6620 C.3   423  ARG423      0.2205
     86  NE        41.7110   72.1390   29.0390 N.pl3 423  ARG423     -0.0865
     87  CZ        42.2470   71.4710   30.0600 C.cat 423  ARG423      0.5346
     88  NH1       42.7570   70.2480   29.8930 N.pl3 423  ARG423      0.1354
     89  NH2       42.2770   72.0300   31.2550 N.pl3 423  ARG423      0.1354
     90  N         36.1500   75.6320   24.1270 N.3   426  GLY426     -0.1225
     91  CA        36.5770   76.8590   24.7700 C.3   426  GLY426      0.1811
     92  C         37.8160   77.4430   24.1270 C.2   426  GLY426      0.2280
     93  O         37.9040   78.6600   23.9210 O.2   426  GLY426     -0.2866
     94  N         38.7840   80.9860   25.4300 N.3   431  ILE431     -0.1231
     95  CA        38.3570   80.6260   26.7910 C.3   431  ILE431      0.1692
     96  C         39.2490   79.5090   27.2900 C.2   431  ILE431      0.2592
     97  O         39.2170   78.4230   26.7500 O.2   431  ILE431     -0.2718
     98  CB        36.8990   80.1170   26.8650 C.3   431  ILE431      0.0266
     99  CG1       35.9160   81.2420   26.5380 C.3   431  ILE431      0.0019
    100  CG2       36.6030   79.5590   28.2540 C.3   431  ILE431      0.0020
    101  CD1       34.5590   80.7420   26.1120 C.3   431  ILE431      0.0001
    102  N         40.0160   79.7760   28.3460 N.am  432  ILE432     -0.1966
    103  CA        40.8440   78.7390   28.9850 C.3   432  ILE432      0.1727
    104  C         40.3010   78.4160   30.3710 C.2   432  ILE432      0.2617
    105  O         39.5270   79.1870   30.9390 O.2   432  ILE432     -0.2715
    106  CB        42.3490   79.0870   28.9960 C.3   432  ILE432      0.0290
    107  CG1       42.6570   80.3910   29.7390 C.3   432  ILE432      0.0022
    108  CG2       42.8370   79.1650   27.5650 C.3   432  ILE432      0.0023
    109  CD1       44.1460   80.6430   29.8740 C.3   432  ILE432      0.0001
    110  N         40.6460   77.2360   30.8660 N.am  433  GLY433     -0.1940
    111  CA        40.2940   76.8480   32.2290 C.3   433  GLY433      0.2014
    112  C         40.7400   75.4480   32.5720 C.2   433  GLY433      0.2639
    113  O         41.4600   74.7980   31.7910 O.2   433  GLY433     -0.2714
    114  N         40.2910   74.9900   33.7380 N.am  434  GLU434     -0.1963
    115  CA        40.6890   73.7020   34.2810 C.3   434  GLU434      0.1733
    116  C         39.8370   73.4040   35.4970 C.2   434  GLU434      0.2617
    117  O         39.4330   74.3070   36.2330 O.2   434  GLU434     -0.2715
    118  CB        42.2210   73.7090   34.6500 C.3   434  GLU434      0.0429
    119  CG        42.8460   72.3470   35.0050 C.3   434  GLU434      0.1163
    120  CD        44.2850   72.1380   34.4880 C.2   434  GLU434      0.3649
    121  OE1       44.4680   72.0720   33.2470 O.co2 434  GLU434     -0.2457
    122  OE2       45.2510   72.0370   35.2980 O.co2 434  GLU434     -0.2457
    123  N         39.5860   72.1220   35.7190 N.am  435  SER435     -0.1950
    124  CA        38.9870   71.6720   36.9520 C.3   435  SER435      0.1924
    125  C         40.0800   71.4180   37.9930 C.2   435  SER435      0.2314
    126  O         41.2180   71.1280   37.6310 O.2   435  SER435     -0.2863
    127  CB        38.1170   70.4360   36.7330 C.3   435  SER435      0.2116
    128  OG        38.8560   69.2760   36.5670 O.3   435  SER435     -0.2180
    129  N         34.2570   82.4080   35.3550 N.3   470  LEU470     -0.1245
    130  CA        33.4100   81.3130   35.8050 C.3   470  LEU470      0.1561
    131  C         34.1710   80.6070   36.9300 C.2   470  LEU470      0.2260
    132  O         35.3760   80.3390   36.8310 O.2   470  LEU470     -0.2867
    133  CB        33.0580   80.3500   34.6790 C.3   470  LEU470      0.0270
    134  CG        32.1040   79.2060   35.0390 C.3   470  LEU470      0.0019
    135  CD1       30.7120   79.7110   35.3780 C.3   470  LEU470      0.0001
    136  CD2       32.0270   78.2330   33.8880 C.3   470  LEU470      0.0001
    137  N         34.8820   69.7610   44.1950 N.3   486  TYR486     -0.1241
    138  CA        35.4180   69.8040   42.8690 C.3   486  TYR486      0.1605
    139  C         34.9900   71.1380   42.2070 C.2   486  TYR486      0.2264
    140  O         33.8070   71.4880   42.1950 O.2   486  TYR486     -0.2867
    141  CB        34.9160   68.5500   42.1480 C.3   486  TYR486      0.0534
    142  CG        35.3370   68.4090   40.7260 C.ar  486  TYR486     -0.0201
    143  CD1       36.6760   68.2450   40.3780 C.ar  486  TYR486     -0.0009
    144  CD2       34.3980   68.4230   39.7170 C.ar  486  TYR486     -0.0009
    145  CE1       37.0620   68.1010   39.0540 C.ar  486  TYR486      0.0417
    146  CE2       34.7660   68.2910   38.3940 C.ar  486  TYR486      0.0417
    147  CZ        36.0980   68.1330   38.0640 C.ar  486  TYR486      0.1957
    148  OH        36.4330   68.0100   36.7340 O.3   486  TYR486     -0.2866
    149  N         35.4440   74.2610   39.0460 N.3   488  TYR488     -0.1227
    150  CA        35.7950   74.6410   37.6720 C.3   488  TYR488      0.1736
    151  C         36.1320   76.0960   37.7110 C.2   488  TYR488      0.2595
    152  O         35.5080   76.8440   38.3920 O.2   488  TYR488     -0.2718
    153  CB        34.6490   74.4730   36.6650 C.3   488  TYR488      0.0548
    154  CG        34.1700   73.0740   36.4090 C.ar  488  TYR488     -0.0200
    155  CD1       34.9210   72.1850   35.6960 C.ar  488  TYR488     -0.0009
    156  CD2       32.9130   72.6720   36.8310 C.ar  488  TYR488     -0.0009
    157  CE1       34.4560   70.9080   35.4350 C.ar  488  TYR488      0.0417
    158  CE2       32.4270   71.3960   36.5770 C.ar  488  TYR488      0.0417
    159  CZ        33.2040   70.5120   35.8840 C.ar  488  TYR488      0.1957
    160  OH        32.7240   69.2460   35.6580 O.3   488  TYR488     -0.2866
    161  N         37.0950   76.4580   36.9070 N.am  489  PHE489     -0.1962
    162  CA        37.6140   77.7850   36.8510 C.3   489  PHE489      0.1771
    163  C         37.8150   78.0180   35.3610 C.2   489  PHE489      0.2619
    164  O         38.3720   77.1580   34.6860 O.2   489  PHE489     -0.2715
    165  CB        38.9230   77.7820   37.6360 C.3   489  PHE489      0.0574
    166  CG        39.8630   78.8760   37.2730 C.ar  489  PHE489     -0.0200
    167  CD1       39.4240   80.1970   37.2100 C.ar  489  PHE489     -0.0042
    168  CD2       41.2230   78.5910   37.0460 C.ar  489  PHE489     -0.0042
    169  CE1       40.3090   81.2140   36.8940 C.ar  489  PHE489     -0.0003
    170  CE2       42.1140   79.6060   36.7350 C.ar  489  PHE489     -0.0003
    171  CZ        41.6530   80.9190   36.6560 C.ar  489  PHE489     -0.0000
    172  N         37.3050   79.1370   34.8500 N.am  490  ALA490     -0.1977
    173  CA        37.4100   79.4480   33.4330 C.3   490  ALA490      0.1597
    174  C         37.3240   80.9640   33.1720 C.2   490  ALA490      0.2287
    175  O         36.6170   81.6790   33.8520 O.2   490  ALA490     -0.2864
    176  CB        36.3320   78.7160   32.6520 C.3   490  ALA490      0.0319
    177  N         42.0400   63.2930   44.7150 N.3   524  HIS524     -0.1226
    178  CA        42.2610   62.1770   43.7340 C.3   524  HIS524      0.1752
    179  C         43.2100   62.5030   42.5740 C.2   524  HIS524      0.2596
    180  O         43.8560   61.5850   42.0310 O.2   524  HIS524     -0.2718
    181  CB        40.9200   61.5970   43.1780 C.3   524  HIS524      0.0759
    182  CG        40.1050   62.5580   42.3370 C.ar  524  HIS524      0.0818
    183  ND1       38.9450   63.1700   42.7780 N.ar  524  HIS524     -0.2268
    184  CD2       40.2670   62.9760   41.0650 C.ar  524  HIS524      0.1154
    185  CE1       38.4350   63.9300   41.8250 C.ar  524  HIS524      0.1986
    186  NE2       39.2290   63.8400   40.7750 N.ar  524  HIS524     -0.2212
    187  N         43.3140   63.7580   42.1490 N.am  525  HIS525     -0.1975
    188  CA        44.2500   64.0960   41.0620 C.3   525  HIS525      0.1656
    189  C         45.7310   63.7080   41.3130 C.2   525  HIS525      0.2291
    190  O         46.4460   63.3290   40.3890 O.2   525  HIS525     -0.2864
    191  CB        44.1570   65.6000   40.6970 C.3   525  HIS525      0.0771
    192  CG        42.9170   65.9390   39.9390 C.ar  525  HIS525      0.0820
    193  ND1       42.5290   67.2280   39.6750 N.ar  525  HIS525     -0.2267
    194  CD2       41.9910   65.1400   39.3580 C.ar  525  HIS525      0.1154
    195  CE1       41.4220   67.2090   38.9550 C.ar  525  HIS525      0.1986
    196  NE2       41.0760   65.9500   38.7570 N.ar  525  HIS525     -0.2212
@<TRIPOS>BOND
     1     4     3    2
     2     3     2    1
     3    93    92    2
     4    90    91    1
     5    92    91    1
     6     1     2    1
     7     2     5    1
     8    82    81    2
     9    81    80    1
    10    94    95    1
    11    74    73    2
    12     5     6    1
    13   101    99    1
    14    71    72    1
    15    72    73    1
    16    72    75    1
    17    73    79   am
    18     7     6   ar
    19     7     9   ar
    20    99    98    1
    21     6     8   ar
    22    80    79    1
    23    80    83    1
    24    97    96    2
    25    35    34   ar
    26    35    33   ar
    27    95    98    1
    28    95    96    1
    29    84    83    1
    30    84    85    1
    31    98   100    1
    32     9    10   ar
    33    76    75    1
    34    76    77    1
    35    69    68    2
    36    96   102   am
    37    34    32   ar
    38     8    10   ar
    39     8    11   ar
    40   108   106    1
    41    68    67    1
    42    33    31   ar
    43    85    86    1
    44    10    12   ar
    45    78    77    1
    46    18    17    2
    47    17    16    1
    48    11    13   ar
    49    19    16    1
    50    19    20    1
    51   102   103    1
    52    12    14   ar
    53    32    31   ar
    54    31    30    1
    55    13    14   ar
    56    16    15    1
    57    22    20   ar
    58    22    24   ar
    59    61    60    2
    60   103   106    1
    61   103   104    1
    62   106   107    1
    63    67    70    1
    64    67    66    1
    65    86    87    2
    66    20    21   ar
    67    58    59    1
    68    60    66   am
    69    60    59    1
    70    59    62    1
    71    24    25   ar
    72   107   109    1
    73    88    87    1
    74    87    89    1
    75    21    23   ar
    76    30    27    1
    77    27    26    1
    78    27    28    1
    79   104   110   am
    80   104   105    2
    81    25    23   ar
    82   110   111    1
    83    28    29    2
    84    62    63    1
    85    62    64    1
    86    63    65    1
    87   113   112    2
    88    53    54    2
    89    53    52    1
    90    46    45    2
    91   111   112    1
    92    51    52    1
    93   112   114   am
    94   176   173    1
    95    52    55    1
    96   174   173    1
    97   174   175    2
    98   121   120   ar
    99    45    44    1
   100   173   172    1
   101    56    55    1
   102   114   115    1
   103   136   134    1
   104    55    57    1
   105   115   118    1
   106   115   116    1
   107    41    40    1
   108   120   119    1
   109   120   122   ar
   110    44    47    1
   111    44    43    1
   112   118   119    1
   113   133   134    1
   114   133   130    1
   115   164   163    2
   116    47    48    1
   117   172   163   am
   118   134   135    1
   119    36    37    1
   120    37    40    1
   121    37    38    1
   122   129   130    1
   123   163   162    1
   124   157   155   ar
   125   157   159   ar
   126   116   123   am
   127   116   117    2
   128    40    42    1
   129   160   159    1
   130   155   154   ar
   131   123   124    1
   132   130   131    1
   133    48    50   ar
   134    48    49   ar
   135   159   158   ar
   136    38    39    2
   137   154   153    1
   138   154   156   ar
   139   128   127    1
   140   158   156   ar
   141   171   170   ar
   142   171   169   ar
   143   153   150    1
   144   127   124    1
   145   148   147    1
   146   170   168   ar
   147   132   131    2
   148   162   161    1
   149   162   165    1
   150   169   167   ar
   151   161   151   am
   152   124   125    1
   153   168   166   ar
   154   167   166   ar
   155   166   165    1
   156   126   125    2
   157   150   151    1
   158   150   149    1
   159   151   152    2
   160   147   146   ar
   161   147   145   ar
   162   146   144   ar
   163   196   195   ar
   164   196   194   ar
   165   195   193   ar
   166   145   143   ar
   167   194   192   ar
   168   193   192   ar
   169   144   142   ar
   170   192   191    1
   171   143   142   ar
   172   190   189    2
   173   191   188    1
   174   142   141    1
   175   186   184   ar
   176   186   185   ar
   177   188   189    1
   178   188   187    1
   179   184   182   ar
   180   185   183   ar
   181   180   179    2
   182   141   138    1
   183   187   179   am
   184   140   139    2
   185   139   138    1
   186   182   183   ar
   187   182   181    1
   188   179   178    1
   189   138   137    1
   190   181   178    1
   191   178   177    1
