@<TRIPOS>MOLECULE
tmp/5adzC01.pdb
 185 180 0 0 0
SMALL
GASTEIGER

@<TRIPOS>ATOM
      1  N         30.2890   77.7630  -23.5360 N.3    16  TRP16      -0.1241
      2  CA        29.4260   77.9660  -22.3980 C.3    16  TRP16       0.1605
      3  C         28.6230   76.7310  -22.0460 C.2    16  TRP16       0.2264
      4  O         28.0630   76.0770  -22.9040 O.2    16  TRP16      -0.2867
      5  CB        28.4520   79.1180  -22.6530 C.3    16  TRP16       0.0550
      6  CG        27.4560   79.2760  -21.5520 C.ar   16  TRP16       0.0003
      7  CD1       26.1230   78.9470  -21.5800 C.ar   16  TRP16       0.0946
      8  CD2       27.7180   79.7860  -20.2350 C.ar   16  TRP16       0.0152
      9  NE1       25.5430   79.2410  -20.3610 N.ar   16  TRP16      -0.2442
     10  CE2       26.4970   79.7690  -19.5310 C.ar   16  TRP16       0.0810
     11  CE3       28.8620   80.2910  -19.6010 C.ar   16  TRP16       0.0012
     12  CZ2       26.3980   80.1900  -18.2190 C.ar   16  TRP16       0.0191
     13  CZ3       28.7490   80.7140  -18.2930 C.ar   16  TRP16       0.0001
     14  CH2       27.5420   80.6570  -17.6130 C.ar   16  TRP16       0.0015
     15  N         34.9550   83.7060  -20.5050 N.3   109  HIS109     -0.1241
     16  CA        34.0340   83.6580  -21.6120 C.3   109  HIS109      0.1621
     17  C         34.0120   84.9400  -22.4000 C.2   109  HIS109      0.2264
     18  O         32.9640   85.3450  -22.8920 O.2   109  HIS109     -0.2867
     19  CB        32.6480   83.2690  -21.0960 C.3   109  HIS109      0.0745
     20  CG        32.5970   81.8350  -20.7090 C.ar  109  HIS109      0.0817
     21  ND1       32.3320   80.8470  -21.6170 N.ar  109  HIS109     -0.2268
     22  CD2       32.9170   81.2050  -19.5560 C.ar  109  HIS109      0.1154
     23  CE1       32.4320   79.6640  -21.0270 C.ar  109  HIS109      0.1986
     24  NE2       32.7960   79.8570  -19.7790 N.ar  109  HIS109     -0.2212
     25  N         34.0760   87.6630  -17.7550 N.3   161  VAL161     -0.1245
     26  CA        34.0250   88.2310  -19.0830 C.3   161  VAL161      0.1561
     27  C         34.9290   89.4490  -19.0980 C.2   161  VAL161      0.2260
     28  O         34.6260   90.3750  -19.7920 O.2   161  VAL161     -0.2867
     29  CB        32.5630   88.6180  -19.5510 C.3   161  VAL161      0.0252
     30  CG1       31.7180   87.4160  -19.8180 C.3   161  VAL161      0.0019
     31  CG2       31.8590   89.5340  -18.5410 C.3   161  VAL161      0.0019
     32  N         22.8230   86.2470  -14.5220 N.3   223  ASP223     -0.1239
     33  CA        22.5880   85.2730  -15.5910 C.3   223  ASP223      0.1674
     34  C         23.4950   84.0830  -15.5650 C.2   223  ASP223      0.2266
     35  O         23.1200   83.1010  -16.1690 O.2   223  ASP223     -0.2867
     36  CB        22.7070   85.9080  -16.9660 C.3   223  ASP223      0.1410
     37  CG        21.7340   87.0320  -17.1800 C.2   223  ASP223      0.3668
     38  OD1       20.8010   87.2480  -16.3580 O.co2 223  ASP223     -0.2456
     39  OD2       21.9450   87.7170  -18.1750 O.co2 223  ASP223     -0.2456
     40  N         16.5560   84.1910  -20.8880 N.3   407  THR407     -0.1218
     41  CA        17.7730   84.6350  -20.1920 C.3   407  THR407      0.1862
     42  C         18.8970   83.5940  -20.0940 C.2   407  THR407      0.2287
     43  O         19.9980   83.8850  -20.4460 O.2   407  THR407     -0.2866
     44  CB        17.4300   85.0840  -18.7750 C.3   407  THR407      0.1770
     45  OG1       16.3460   86.0270  -18.8330 O.3   407  THR407     -0.2211
     46  CG2       18.6220   85.6990  -18.1100 C.3   407  THR407      0.0375
     47  N         20.4230   82.2020  -23.8090 N.3   410  ILE410     -0.1231
     48  CA        21.0780   83.0940  -24.7310 C.3   410  ILE410      0.1692
     49  C         22.6170   82.9130  -24.7850 C.2   410  ILE410      0.2591
     50  O         23.2300   83.1250  -25.8150 O.2   410  ILE410     -0.2718
     51  CB        20.6780   84.5540  -24.4230 C.3   410  ILE410      0.0266
     52  CG1       19.2020   84.7600  -24.8370 C.3   410  ILE410      0.0019
     53  CG2       21.5690   85.5740  -25.1710 C.3   410  ILE410      0.0020
     54  CD1       18.5050   85.8880  -24.1140 C.3   410  ILE410      0.0001
     55  N         23.2400   82.5100  -23.6900 N.am  411  ALA411     -0.1980
     56  CA        24.6960   82.2890  -23.6860 C.3   411  ALA411      0.1597
     57  C         25.0770   81.0850  -24.6130 C.2   411  ALA411      0.2287
     58  O         26.1880   81.0750  -25.1430 O.2   411  ALA411     -0.2864
     59  CB        25.2380   82.1310  -22.2340 C.3   411  ALA411      0.0319
     60  N         23.8820   80.6690  -27.5890 N.3   413  MET413     -0.1230
     61  CA        23.9320   81.1570  -28.9580 C.3   413  MET413      0.1702
     62  C         25.2940   81.5180  -29.4650 C.2   413  MET413      0.2592
     63  O         25.5030   81.5590  -30.6840 O.2   413  MET413     -0.2718
     64  CB        22.9320   82.2890  -29.1650 C.3   413  MET413      0.0401
     65  CG        21.5290   81.7210  -29.0380 C.3   413  MET413      0.0596
     66  SD        20.3170   83.0040  -28.9080 S.3   413  MET413     -0.1393
     67  CE        18.9240   81.9260  -28.5440 C.3   413  MET413      0.0692
     68  N         26.2440   81.7730  -28.5870 N.am  414  ARG414     -0.1980
     69  CA        27.5860   81.9890  -29.0770 C.3   414  ARG414      0.1597
     70  C         28.0520   80.8290  -29.9010 C.2   414  ARG414      0.2287
     71  O         28.4860   81.0280  -31.0000 O.2   414  ARG414     -0.2864
     72  CB        28.5910   82.2670  -27.9680 C.3   414  ARG414      0.0334
     73  CG        30.0290   82.2150  -28.4720 C.3   414  ARG414      0.0492
     74  CD        31.0070   82.7950  -27.4780 C.3   414  ARG414      0.2205
     75  NE        31.0240   84.2540  -27.5260 N.pl3 414  ARG414     -0.0865
     76  CZ        31.4020   85.0690  -26.5370 C.cat 414  ARG414      0.5346
     77  NH1       31.7670   84.5890  -25.3630 N.pl3 414  ARG414      0.1354
     78  NH2       31.3910   86.3910  -26.7330 N.pl3 414  ARG414      0.1354
     79  N         26.5050   80.5240  -33.2670 N.3   417  GLY417     -0.1225
     80  CA        26.9480   81.4730  -34.2600 C.3   417  GLY417      0.1811
     81  C         28.3450   81.0900  -34.7240 C.2   417  GLY417      0.2280
     82  O         28.6760   81.2560  -35.8960 O.2   417  GLY417     -0.2866
     83  N         29.3450   83.4420  -37.3620 N.3   422  ILE422     -0.1231
     84  CA        28.8170   84.5840  -36.6050 C.3   422  ILE422      0.1692
     85  C         29.5240   84.7100  -35.2690 C.2   422  ILE422      0.2592
     86  O         29.5900   83.7510  -34.5030 O.2   422  ILE422     -0.2718
     87  CB        27.2890   84.5190  -36.4320 C.3   422  ILE422      0.0266
     88  CG1       26.6190   84.5000  -37.8000 C.3   422  ILE422      0.0019
     89  CG2       26.7960   85.7600  -35.6980 C.3   422  ILE422      0.0020
     90  CD1       25.1910   84.0230  -37.7690 C.3   422  ILE422      0.0001
     91  N         30.0670   85.8930  -35.0130 N.am  423  ILE423     -0.1966
     92  CA        30.7930   86.2000  -33.7780 C.3   423  ILE423      0.1727
     93  C         30.2650   87.4740  -33.1960 C.2   423  ILE423      0.2617
     94  O         29.7560   88.3290  -33.9100 O.2   423  ILE423     -0.2715
     95  CB        32.3440   86.3810  -33.9340 C.3   423  ILE423      0.0290
     96  CG1       32.7610   87.4230  -35.0010 C.3   423  ILE423      0.0022
     97  CG2       33.0130   85.0460  -34.1360 C.3   423  ILE423      0.0023
     98  CD1       34.2870   87.5400  -35.1420 C.3   423  ILE423      0.0001
     99  N         30.4180   87.5970  -31.8840 N.am  424  GLY424     -0.1940
    100  CA        29.9380   88.7680  -31.1640 C.3   424  GLY424      0.2014
    101  C         29.9940   88.6210  -29.6410 C.2   424  GLY424      0.2639
    102  O         30.3280   87.5620  -29.1010 O.2   424  GLY424     -0.2714
    103  N         29.6750   89.7040  -28.9520 N.am  425  GLU425     -0.1963
    104  CA        29.7680   89.7100  -27.5450 C.3   425  GLU425      0.1733
    105  C         28.7190   90.6580  -27.0020 C.2   425  GLU425      0.2617
    106  O         28.3800   91.6330  -27.6710 O.2   425  GLU425     -0.2715
    107  CB        31.2100   90.1420  -27.1690 C.3   425  GLU425      0.0429
    108  CG        31.5870   89.8330  -25.7180 C.3   425  GLU425      0.1163
    109  CD        33.0520   89.4390  -25.4880 C.2   425  GLU425      0.3649
    110  OE1       33.3940   88.2910  -25.7660 O.co2 425  GLU425     -0.2457
    111  OE2       33.8630   90.2450  -24.9800 O.co2 425  GLU425     -0.2457
    112  N         28.2240   90.3910  -25.7980 N.am  426  SER426     -0.1950
    113  CA        27.5570   91.4450  -25.0140 C.3   426  SER426      0.1924
    114  C         28.5690   92.3530  -24.2880 C.2   426  SER426      0.2314
    115  O         29.6750   91.9610  -24.0290 O.2   426  SER426     -0.2863
    116  CB        26.5570   90.8650  -24.0170 C.3   426  SER426      0.2116
    117  OG        27.1800   90.0620  -23.0140 O.3   426  SER426     -0.2180
    118  N         24.3980   93.0870  -36.4470 N.3   461  LEU461     -0.1245
    119  CA        23.4630   93.1910  -35.3630 C.3   461  LEU461      0.1561
    120  C         24.0470   94.1230  -34.2660 C.2   461  LEU461      0.2260
    121  O         25.1940   94.0050  -33.8770 O.2   461  LEU461     -0.2867
    122  CB        23.1490   91.8290  -34.7910 C.3   461  LEU461      0.0270
    123  CG        22.0980   91.8190  -33.6910 C.3   461  LEU461      0.0019
    124  CD1       20.7270   92.0110  -34.3100 C.3   461  LEU461      0.0001
    125  CD2       22.1480   90.5070  -32.9370 C.3   461  LEU461      0.0001
    126  N         22.7090   97.4370  -21.5750 N.3   477  TYR477     -0.1241
    127  CA        23.3230   96.2600  -22.0640 C.3   477  TYR477      0.1605
    128  C         23.1030   96.1600  -23.5720 C.2   477  TYR477      0.2264
    129  O         21.9860   96.3360  -24.0890 O.2   477  TYR477     -0.2867
    130  CB        22.6720   95.1260  -21.3160 C.3   477  TYR477      0.0534
    131  CG        23.2340   93.7740  -21.5320 C.ar  477  TYR477     -0.0201
    132  CD1       24.4570   93.4060  -20.9960 C.ar  477  TYR477     -0.0009
    133  CD2       22.4880   92.8190  -22.1760 C.ar  477  TYR477     -0.0009
    134  CE1       24.9440   92.1140  -21.1530 C.ar  477  TYR477      0.0417
    135  CE2       22.9550   91.5290  -22.3350 C.ar  477  TYR477      0.0417
    136  CZ        24.1810   91.1770  -21.8240 C.ar  477  TYR477      0.1957
    137  OH        24.5900   89.8920  -22.0310 O.3   477  TYR477     -0.2866
    138  N         24.0380   93.9630  -27.2640 N.3   479  TYR479     -0.1227
    139  CA        24.6820   92.9340  -28.0950 C.3   479  TYR479      0.1736
    140  C         25.2200   93.5150  -29.4200 C.2   479  TYR479      0.2595
    141  O         24.7360   94.5290  -29.9730 O.2   479  TYR479     -0.2718
    142  CB        23.7370   91.8370  -28.4450 C.3   479  TYR479      0.0548
    143  CG        23.0810   91.1830  -27.2890 C.ar  479  TYR479     -0.0200
    144  CD1       23.7230   90.1780  -26.5880 C.ar  479  TYR479     -0.0009
    145  CD2       21.7620   91.4950  -26.9460 C.ar  479  TYR479     -0.0009
    146  CE1       23.0890   89.5290  -25.5470 C.ar  479  TYR479      0.0417
    147  CE2       21.1340   90.8620  -25.9080 C.ar  479  TYR479      0.0417
    148  CZ        21.8020   89.8810  -25.2120 C.ar  479  TYR479      0.1957
    149  OH        21.1960   89.2310  -24.1900 O.3   479  TYR479     -0.2866
    150  N         26.2450   92.8500  -29.9160 N.am  480  PHE480     -0.1962
    151  CA        26.7360   93.0770  -31.2470 C.3   480  PHE480      0.1771
    152  C         27.2430   91.7680  -31.8260 C.2   480  PHE480      0.2619
    153  O         27.8780   90.9830  -31.1270 O.2   480  PHE480     -0.2715
    154  CB        27.6770   94.2820  -31.2200 C.3   480  PHE480      0.0574
    155  CG        29.0470   94.0440  -31.7190 C.ar  480  PHE480     -0.0200
    156  CD1       29.3380   94.2290  -33.0470 C.ar  480  PHE480     -0.0042
    157  CD2       30.0680   93.7730  -30.8380 C.ar  480  PHE480     -0.0042
    158  CE1       30.6280   94.0740  -33.5130 C.ar  480  PHE480     -0.0003
    159  CE2       31.3590   93.6020  -31.2880 C.ar  480  PHE480     -0.0003
    160  CZ        31.6410   93.7690  -32.6340 C.ar  480  PHE480     -0.0000
    161  N         26.8220   91.4830  -33.0600 N.am  481  ALA481     -0.1977
    162  CA        27.2580   90.3050  -33.8240 C.3   481  ALA481      0.1597
    163  C         27.4330   90.6240  -35.3160 C.2   481  ALA481      0.2287
    164  O         26.7960   91.5080  -35.8630 O.2   481  ALA481     -0.2864
    165  CB        26.2760   89.1820  -33.6660 C.3   481  ALA481      0.0319
    166  N         28.5900   96.0040  -14.2330 N.3   515  HIS515     -0.1226
    167  CA        28.8190   94.7580  -13.5130 C.3   515  HIS515      0.1752
    168  C         29.9080   93.8030  -13.9950 C.2   515  HIS515      0.2596
    169  O         30.3350   92.9840  -13.2070 O.2   515  HIS515     -0.2718
    170  CB        27.5100   93.9850  -13.3610 C.3   515  HIS515      0.0759
    171  CG        26.9380   93.4850  -14.6390 C.ar  515  HIS515      0.0818
    172  ND1       25.9920   94.1730  -15.3680 N.ar  515  HIS515     -0.2268
    173  CD2       27.0850   92.2990  -15.2630 C.ar  515  HIS515      0.1154
    174  CE1       25.6250   93.4650  -16.4160 C.ar  515  HIS515      0.1986
    175  NE2       26.2650   92.3160  -16.3710 N.ar  515  HIS515     -0.2212
    176  N         30.3490   93.8850  -15.2460 N.am  516  HIS516     -0.1975
    177  CA        31.3380   92.9440  -15.7510 C.3   516  HIS516      0.1656
    178  C         32.6950   93.0740  -15.0440 C.2   516  HIS516      0.2291
    179  O         33.3540   92.0480  -14.7820 O.2   516  HIS516     -0.2864
    180  CB        31.4530   92.9780  -17.2720 C.3   516  HIS516      0.0771
    181  CG        30.3020   92.3070  -17.9870 C.ar  516  HIS516      0.0820
    182  ND1       30.1130   92.3900  -19.3440 N.ar  516  HIS516     -0.2267
    183  CD2       29.2930   91.5270  -17.5290 C.ar  516  HIS516      0.1154
    184  CE1       29.0550   91.6870  -19.6950 C.ar  516  HIS516      0.1986
    185  NE2       28.5530   91.1280  -18.6130 N.ar  516  HIS516     -0.2212
@<TRIPOS>BOND
     1    88    90    1
     2    88    87    1
     3    83    84    1
     4    84    87    1
     5    84    85    1
     6   118   119    1
     7    87    89    1
     8    82    81    2
     9   164   163    2
    10   119   122    1
    11   119   120    1
    12   163   162    1
    13    85    91   am
    14    85    86    2
    15    98    96    1
    16    91    92    1
    17    96    95    1
    18   122   123    1
    19    81    80    1
    20   124   123    1
    21   120   121    2
    22    80    79    1
    23    97    95    1
    24    95    92    1
    25    94    93    2
    26   162   165    1
    27   162   161    1
    28    92    93    1
    29   123   125    1
    30   158   156   ar
    31   158   160   ar
    32    93    99   am
    33   161   152   am
    34   156   155   ar
    35   160   159   ar
    36    99   100    1
    37   152   151    1
    38   152   153    2
    39   155   154    1
    40   155   157   ar
    41   159   157   ar
    42   151   154    1
    43   151   150    1
    44   100   101    1
    45    71    70    2
    46    63    62    2
    47   141   140    2
    48   150   140   am
    49    70    69    1
    50   101   102    2
    51   101   103   am
    52    62    61    1
    53    62    68   am
    54   140   139    1
    55    64    65    1
    56    64    61    1
    57    69    68    1
    58    69    72    1
    59    65    66    1
    60    61    60    1
    61   103   104    1
    62    66    67    1
    63    73    72    1
    64    73    74    1
    65   142   139    1
    66   142   143    1
    67   139   138    1
    68   106   105    2
    69   104   107    1
    70   104   105    1
    71    75    74    1
    72    75    76    2
    73   143   145   ar
    74   143   144   ar
    75   107   108    1
    76   105   112   am
    77   145   147   ar
    78    78    76    1
    79   144   146   ar
    80    76    77    1
    81   147   148   ar
    82    50    49    2
    83   112   113    1
    84   110   109   ar
    85   108   109    1
    86   146   148   ar
    87   109   111   ar
    88   148   149    1
    89    53    51    1
    90    58    57    2
    91   113   114    1
    92   113   116    1
    93    52    51    1
    94    52    54    1
    95    49    48    1
    96    49    55   am
    97    48    51    1
    98    48    47    1
    99    57    56    1
   100   114   115    2
   101   129   128    2
   102   116   117    1
   103    55    56    1
   104    56    59    1
   105   128   127    1
   106     1     2    1
   107     4     3    2
   108    18    17    2
   109     5     2    1
   110     5     6    1
   111    17    16    1
   112     2     3    1
   113   135   133   ar
   114   135   136   ar
   115   133   131   ar
   116   127   126    1
   117   127   130    1
   118   137   136    1
   119   136   134   ar
   120    21    23   ar
   121    21    20   ar
   122    16    19    1
   123    16    15    1
   124     7     6   ar
   125     7     9   ar
   126     6     8   ar
   127   131   130    1
   128   131   132   ar
   129   134   132   ar
   130    19    20    1
   131    23    24   ar
   132    40    41    1
   133    20    22   ar
   134    43    42    2
   135     9    10   ar
   136     8    11   ar
   137     8    10   ar
   138    41    42    1
   139    41    44    1
   140    30    29    1
   141    28    27    2
   142    24    22   ar
   143   184   182   ar
   144   184   185   ar
   145    11    13   ar
   146    29    26    1
   147    29    31    1
   148    10    12   ar
   149   182   181   ar
   150    27    26    1
   151    26    25    1
   152    45    44    1
   153    44    46    1
   154   185   183   ar
   155    13    14   ar
   156    12    14   ar
   157    39    37   ar
   158   181   183   ar
   159   181   180    1
   160   180   177    1
   161    37    36    1
   162    37    38   ar
   163    36    33    1
   164   174   175   ar
   165   174   172   ar
   166   175   173   ar
   167    35    34    2
   168   177   176    1
   169   177   178    1
   170    33    34    1
   171    33    32    1
   172   172   171   ar
   173   173   171   ar
   174   176   168   am
   175   178   179    2
   176   171   170    1
   177   166   167    1
   178   168   167    1
   179   168   169    2
   180   167   170    1
