@<TRIPOS>MOLECULE
tmp/5ae6B03.pdb
 114 107 0 0 0
SMALL
GASTEIGER

@<TRIPOS>ATOM
      1  N         21.1770  -83.0470  -41.4230 N.3   122  ASN122     -0.1240
      2  CA        19.7950  -82.5940  -41.4140 C.3   122  ASN122      0.1653
      3  C         19.5460  -81.6340  -40.2360 C.2   122  ASN122      0.2266
      4  O         19.4730  -82.0570  -39.0790 O.2   122  ASN122     -0.2867
      5  CB        18.8740  -83.8240  -41.3710 C.3   122  ASN122      0.1155
      6  CG        17.3980  -83.4690  -41.3080 C.2   122  ASN122      0.2627
      7  OD1       17.0210  -82.3430  -40.9980 O.2   122  ASN122     -0.2716
      8  ND2       16.5510  -84.4540  -41.5940 N.am  122  ASN122     -0.0877
      9  N         16.8480  -79.7830  -39.5320 N.3   124  THR124     -0.1203
     10  CA        15.5050  -79.9540  -38.9670 C.3   124  THR124      0.1994
     11  C         15.4890  -81.0550  -37.9120 C.2   124  THR124      0.2617
     12  O         14.8330  -80.9210  -36.8780 O.2   124  THR124     -0.2717
     13  CB        14.4770  -80.2690  -40.0660 C.3   124  THR124      0.1784
     14  OG1       14.6100  -79.3040  -41.1060 O.3   124  THR124     -0.2211
     15  CG2       13.0650  -80.1940  -39.5330 C.3   124  THR124      0.0376
     16  N         16.2360  -82.1260  -38.1780 N.am  125  LEU125     -0.1979
     17  CA        16.4110  -83.2240  -37.2340 C.3   125  LEU125      0.1596
     18  C         16.9890  -82.7710  -35.8820 C.2   125  LEU125      0.2287
     19  O         16.4390  -83.0980  -34.8290 O.2   125  LEU125     -0.2864
     20  CB        17.3160  -84.3010  -37.8580 C.3   125  LEU125      0.0297
     21  CG        17.6220  -85.5610  -37.0520 C.3   125  LEU125      0.0022
     22  CD1       16.3610  -86.3990  -36.8510 C.3   125  LEU125      0.0001
     23  CD2       18.7080  -86.3670  -37.7390 C.3   125  LEU125      0.0001
     24  N         14.6110  -80.6560  -33.9290 N.3   128  GLN128     -0.1245
     25  CA        13.4580  -81.4040  -33.4020 C.3   128  GLN128      0.1566
     26  C         13.8460  -82.2570  -32.1970 C.2   128  GLN128      0.2260
     27  O         13.1080  -82.3250  -31.2060 O.2   128  GLN128     -0.2867
     28  CB        12.7600  -82.2570  -34.4790 C.3   128  GLN128      0.0367
     29  CG        11.6350  -83.1020  -33.8900 C.3   128  GLN128      0.0905
     30  CD        10.7070  -83.7450  -34.9020 C.2   128  GLN128      0.2608
     31  OE1       11.1120  -84.1430  -35.9930 O.2   128  GLN128     -0.2717
     32  NE2        9.4490  -83.8850  -34.5160 N.am  128  GLN128     -0.0878
     33  N          7.0600  -90.7320  -31.0970 N.3   382  TRP382     -0.1241
     34  CA         7.4010  -90.2350  -32.4360 C.3   382  TRP382      0.1605
     35  C          8.6300  -90.9440  -33.0400 C.2   382  TRP382      0.2264
     36  O          8.8240  -90.9230  -34.2580 O.2   382  TRP382     -0.2867
     37  CB         7.6720  -88.7300  -32.4440 C.3   382  TRP382      0.0550
     38  CG         6.5240  -87.8290  -32.0780 C.ar  382  TRP382      0.0003
     39  CD1        5.1820  -88.1420  -32.0410 C.ar  382  TRP382      0.0946
     40  CD2        6.6190  -86.4420  -31.7330 C.ar  382  TRP382      0.0152
     41  NE1        4.4520  -87.0380  -31.6710 N.ar  382  TRP382     -0.2442
     42  CE2        5.3040  -85.9820  -31.4780 C.ar  382  TRP382      0.0810
     43  CE3        7.6880  -85.5430  -31.6070 C.ar  382  TRP382      0.0012
     44  CZ2        5.0330  -84.6620  -31.1040 C.ar  382  TRP382      0.0191
     45  CZ3        7.4170  -84.2290  -31.2380 C.ar  382  TRP382      0.0001
     46  CH2        6.1010  -83.8040  -30.9860 C.ar  382  TRP382      0.0015
     47  N         11.8480  -90.2920  -33.0700 N.3   384  ILE384     -0.1245
     48  CA        12.8760  -89.4420  -33.6720 C.3   384  ILE384      0.1561
     49  C         14.2900  -89.9350  -33.3000 C.2   384  ILE384      0.2260
     50  O         15.2430  -89.6760  -34.0280 O.2   384  ILE384     -0.2867
     51  CB        12.6380  -87.9450  -33.3170 C.3   384  ILE384      0.0252
     52  CG1       11.2630  -87.4810  -33.8310 C.3   384  ILE384      0.0019
     53  CG2       13.7300  -87.0350  -33.8720 C.3   384  ILE384      0.0019
     54  CD1       11.0020  -87.7120  -35.3180 C.3   384  ILE384      0.0001
     55  N         14.8300  -92.4110  -35.8860 N.3   387  GLU387     -0.1245
     56  CA        14.9520  -91.6770  -37.1470 C.3   387  GLU387      0.1567
     57  C         16.3260  -91.0250  -37.3270 C.2   387  GLU387      0.2260
     58  O         16.8930  -91.0410  -38.4280 O.2   387  GLU387     -0.2867
     59  CB        13.8390  -90.6360  -37.2860 C.3   387  GLU387      0.0388
     60  CG        13.8550  -89.8720  -38.6060 C.3   387  GLU387      0.1160
     61  CD        13.6250  -90.7550  -39.8290 C.2   387  GLU387      0.3649
     62  OE1       12.9930  -91.8160  -39.6940 O.co2 387  GLU387     -0.2457
     63  OE2       14.0740  -90.3830  -40.9340 O.co2 387  GLU387     -0.2457
     64  N         19.0400  -91.9320  -40.2280 N.3   391  GLU391     -0.1245
     65  CA        19.5110  -90.8550  -41.1030 C.3   391  GLU391      0.1567
     66  C         21.0310  -90.6870  -41.0410 C.2   391  GLU391      0.2260
     67  O         21.6550  -90.3050  -42.0300 O.2   391  GLU391     -0.2867
     68  CB        18.8120  -89.5230  -40.7790 C.3   391  GLU391      0.0388
     69  CG        17.3520  -89.4630  -41.2170 C.3   391  GLU391      0.1160
     70  CD        16.7390  -88.0660  -41.1780 C.2   391  GLU391      0.3649
     71  OE1       17.4550  -87.0520  -41.3810 O.co2 391  GLU391     -0.2457
     72  OE2       15.5110  -87.9840  -40.9610 O.co2 391  GLU391     -0.2457
     73  N         15.3420  -99.1460  -45.0530 N.3   564  ARG564     -0.1245
     74  CA        15.7520  -97.7540  -45.2570 C.3   564  ARG564      0.1563
     75  C         17.0880  -97.7440  -45.9780 C.2   564  ARG564      0.2260
     76  O         17.8770  -98.6860  -45.8540 O.2   564  ARG564     -0.2867
     77  CB        15.8930  -97.0090  -43.9290 C.3   564  ARG564      0.0307
     78  CG        14.5930  -96.7870  -43.1570 C.3   564  ARG564      0.0489
     79  CD        13.6500  -95.8170  -43.8610 C.3   564  ARG564      0.2205
     80  NE        14.1810  -94.4570  -43.8810 N.pl3 564  ARG564     -0.0865
     81  CZ        13.9690  -93.5490  -42.9280 C.cat 564  ARG564      0.5346
     82  NH1       13.2240  -93.8430  -41.8740 N.pl3 564  ARG564      0.1354
     83  NH2       14.5080  -92.3400  -43.0300 N.pl3 564  ARG564      0.1354
     84  N         17.4450  -91.1170  -50.1620 N.3   672  PRO672     -0.2116
     85  CA        17.7020  -89.7330  -49.7800 C.3   672  PRO672      0.1372
     86  C         19.1180  -89.3300  -50.2210 C.2   672  PRO672      0.2244
     87  O         19.9370  -90.1970  -50.5550 O.2   672  PRO672     -0.2868
     88  CB        17.5910  -89.7640  -48.2510 C.3   672  PRO672      0.0268
     89  CG        17.9430  -91.1610  -47.8730 C.3   672  PRO672      0.0207
     90  CD        17.4040  -92.0160  -48.9900 C.3   672  PRO672      0.0892
     91  N         20.4610  -82.0030  -46.7410 N.3   699  ARG699     -0.1231
     92  CA        19.8990  -83.3200  -46.9480 C.3   699  ARG699      0.1694
     93  C         18.6000  -83.1520  -47.7160 C.2   699  ARG699      0.2592
     94  O         17.7780  -82.3010  -47.3760 O.2   699  ARG699     -0.2718
     95  CB        19.6350  -84.0130  -45.6120 C.3   699  ARG699      0.0321
     96  CG        19.2020  -85.4700  -45.7480 C.3   699  ARG699      0.0489
     97  CD        18.8420  -86.0610  -44.4010 C.3   699  ARG699      0.2205
     98  NE        18.4300  -87.4580  -44.5170 N.pl3 699  ARG699     -0.0865
     99  CZ        19.2230  -88.5000  -44.2890 C.cat 699  ARG699      0.5346
    100  NH1       20.4940  -88.3320  -43.9320 N.pl3 699  ARG699      0.1354
    101  NH2       18.7380  -89.7240  -44.4300 N.pl3 699  ARG699      0.1354
    102  N         18.4290  -83.9620  -48.7600 N.am  700  LEU700     -0.1966
    103  CA        17.2100  -83.9600  -49.5520 C.3   700  LEU700      0.1728
    104  C         16.3980  -85.2370  -49.3180 C.2   700  LEU700      0.2616
    105  O         16.9560  -86.3060  -49.0590 O.2   700  LEU700     -0.2715
    106  CB        17.5390  -83.8080  -51.0400 C.3   700  LEU700      0.0311
    107  CG        18.4830  -82.6850  -51.4740 C.3   700  LEU700      0.0022
    108  CD1       18.7450  -82.8120  -52.9590 C.3   700  LEU700      0.0001
    109  CD2       17.9230  -81.3040  -51.1390 C.3   700  LEU700      0.0001
    110  N         15.0780  -85.1080  -49.4130 N.am  701  ALA701     -0.1977
    111  CA        14.1490  -86.2230  -49.2420 C.3   701  ALA701      0.1597
    112  C         14.3540  -87.2810  -50.3280 C.2   701  ALA701      0.2287
    113  O         14.9630  -86.9980  -51.3620 O.2   701  ALA701     -0.2864
    114  CB        12.7090  -85.7070  -49.2660 C.3   701  ALA701      0.0319
@<TRIPOS>BOND
     1   108   107    1
     2   107   109    1
     3   107   106    1
     4   113   112    2
     5   106   103    1
     6    87    86    2
     7   112   111    1
     8    86    85    1
     9    84    85    1
    10    84    90    1
    11    85    88    1
    12   103   104    1
    13   103   102    1
    14   110   104   am
    15   110   111    1
    16   104   105    2
    17   114   111    1
    18    90    89    1
    19   102    93   am
    20    88    89    1
    21    93    94    2
    22    93    92    1
    23    92    91    1
    24    92    95    1
    25    75    76    2
    26    75    74    1
    27    96    95    1
    28    96    97    1
    29    74    73    1
    30    74    77    1
    31    98    97    1
    32    98    99    2
    33   101    99    1
    34    99   100    1
    35    77    78    1
    36    80    79    1
    37    80    81    2
    38    79    78    1
    39    83    81    1
    40    81    82    1
    41    67    66    2
    42     8     6   am
    43     1     2    1
    44     2     5    1
    45     2     3    1
    46    71    70   ar
    47     5     6    1
    48     6     7    2
    49    69    70    1
    50    69    68    1
    51    70    72   ar
    52    14    13    1
    53    65    66    1
    54    65    68    1
    55    65    64    1
    56    63    61   ar
    57     3     4    2
    58    13    15    1
    59    13    10    1
    60    61    62   ar
    61    61    60    1
    62     9    10    1
    63    10    11    1
    64    60    59    1
    65    58    57    2
    66    16    11   am
    67    16    17    1
    68    11    12    2
    69    20    17    1
    70    20    21    1
    71    23    21    1
    72    57    56    1
    73    59    56    1
    74    17    18    1
    75    56    55    1
    76    21    22    1
    77    31    30    2
    78    18    19    2
    79    54    52    1
    80    30    32   am
    81    30    29    1
    82    28    29    1
    83    28    25    1
    84    36    35    2
    85    50    49    2
    86    24    25    1
    87    53    51    1
    88    52    51    1
    89    48    51    1
    90    48    49    1
    91    48    47    1
    92    25    26    1
    93    35    34    1
    94    37    34    1
    95    37    38    1
    96    34    33    1
    97    26    27    2
    98    38    39   ar
    99    38    40   ar
   100    39    41   ar
   101    40    43   ar
   102    40    42   ar
   103    41    42   ar
   104    43    45   ar
   105    42    44   ar
   106    45    46   ar
   107    44    46   ar
