@<TRIPOS>MOLECULE
tmp/5ae6B08.pdb
 126 120 0 0 0
SMALL
GASTEIGER

@<TRIPOS>ATOM
      1  N         40.0270  -87.1210  -13.8280 N.3    13  GLN13      -0.1231
      2  CA        38.7590  -86.8090  -13.1730 C.3    13  GLN13       0.1683
      3  C         38.9160  -86.1320  -11.8200 C.2    13  GLN13       0.2434
      4  O         39.7680  -86.5190  -11.0230 O.2    13  GLN13      -0.2733
      5  CB        37.8800  -88.0560  -13.0740 C.3    13  GLN13       0.0380
      6  CG        36.9860  -88.2120  -14.2930 C.3    13  GLN13       0.0905
      7  CD        36.0380  -89.3770  -14.1880 C.2    13  GLN13       0.2608
      8  OE1       36.4190  -90.4660  -13.7680 O.2    13  GLN13      -0.2717
      9  NE2       34.7950  -89.1600  -14.5770 N.am   13  GLN13      -0.0878
     10  N         38.0940  -85.1030  -11.5560 N.am   14  PRO14      -0.2729
     11  CA        38.1340  -84.4470  -10.2490 C.3    14  PRO14       0.1401
     12  C         37.5130  -85.3100   -9.1440 C.2    14  PRO14       0.2269
     13  O         36.8820  -86.3280   -9.4260 O.2    14  PRO14      -0.2865
     14  CB        37.2890  -83.1870  -10.4620 C.3    14  PRO14       0.0296
     15  CG        36.3730  -83.5180  -11.5830 C.3    14  PRO14       0.0237
     16  CD        37.0800  -84.5190  -12.4500 C.3    14  PRO14       0.0939
     17  N         34.7870  -84.6230   -6.6700 N.3    16  LEU16      -0.1245
     18  CA        33.7500  -83.6820   -6.2900 C.3    16  LEU16       0.1561
     19  C         33.0970  -84.0650   -4.9680 C.2    16  LEU16       0.2260
     20  O         32.9290  -85.2540   -4.6760 O.2    16  LEU16      -0.2867
     21  CB        32.6980  -83.5900   -7.3920 C.3    16  LEU16       0.0270
     22  CG        33.2130  -83.1460   -8.7680 C.3    16  LEU16       0.0019
     23  CD1       32.0820  -83.2030   -9.7890 C.3    16  LEU16       0.0001
     24  CD2       33.8330  -81.7550   -8.7240 C.3    16  LEU16       0.0001
     25  N         27.3210  -83.3640   -6.2450 N.3    21  LEU21      -0.1245
     26  CA        26.8150  -84.4950   -7.0270 C.3    21  LEU21       0.1561
     27  C         25.3850  -84.9070   -6.6470 C.2    21  LEU21       0.2260
     28  O         24.7960  -85.7630   -7.3050 O.2    21  LEU21      -0.2867
     29  CB        27.7570  -85.6950   -6.8760 C.3    21  LEU21       0.0270
     30  CG        29.1830  -85.5980   -7.4340 C.3    21  LEU21       0.0019
     31  CD1       30.1100  -86.5340   -6.6620 C.3    21  LEU21       0.0001
     32  CD2       29.1850  -85.9420   -8.9120 C.3    21  LEU21       0.0001
     33  N         22.8340  -78.0740  -12.4200 N.3    86  TRP86      -0.1241
     34  CA        23.5250  -79.1350  -13.1720 C.3    86  TRP86       0.1605
     35  C         22.5440  -80.2110  -13.6640 C.2    86  TRP86       0.2264
     36  O         22.1820  -81.1430  -12.9350 O.2    86  TRP86      -0.2867
     37  CB        24.6800  -79.7270  -12.3520 C.3    86  TRP86       0.0550
     38  CG        25.4620  -80.8160  -13.0440 C.ar   86  TRP86       0.0003
     39  CD1       25.3910  -81.1810  -14.3580 C.ar   86  TRP86       0.0946
     40  CD2       26.4710  -81.6430  -12.4520 C.ar   86  TRP86       0.0152
     41  NE1       26.2770  -82.1920  -14.6160 N.ar   86  TRP86      -0.2442
     42  CE2       26.9510  -82.5010  -13.4640 C.ar   86  TRP86       0.0810
     43  CE3       27.0140  -81.7450  -11.1580 C.ar   86  TRP86       0.0012
     44  CZ2       27.9470  -83.4570  -13.2280 C.ar   86  TRP86       0.0191
     45  CZ3       27.9960  -82.6980  -10.9220 C.ar   86  TRP86       0.0001
     46  CH2       28.4550  -83.5420  -11.9570 C.ar   86  TRP86       0.0015
     47  N         20.8940  -87.0930  -15.2110 N.3    95  ARG95      -0.1245
     48  CA        20.9860  -86.4740  -13.8750 C.3    95  ARG95       0.1563
     49  C         19.6230  -86.0010  -13.3590 C.2    95  ARG95       0.2260
     50  O         19.5530  -85.2360  -12.3940 O.2    95  ARG95      -0.2867
     51  CB        22.0320  -85.3350  -13.8200 C.3    95  ARG95       0.0307
     52  CG        23.4430  -85.7710  -14.1890 C.3    95  ARG95       0.0489
     53  CD        24.5120  -84.8000  -13.6990 C.3    95  ARG95       0.2205
     54  NE        24.6300  -84.7820  -12.2430 N.pl3  95  ARG95      -0.0865
     55  CZ        25.2890  -85.6890  -11.5220 C.cat  95  ARG95       0.5346
     56  NH1       25.9090  -86.6990  -12.1190 N.pl3  95  ARG95       0.1354
     57  NH2       25.3280  -85.5850  -10.1980 N.pl3  95  ARG95       0.1354
     58  N         36.0170  -87.5970  -25.6340 N.3   165  ARG165     -0.1245
     59  CA        34.6840  -86.9650  -25.6370 C.3   165  ARG165      0.1563
     60  C         34.2440  -86.4130  -26.9930 C.2   165  ARG165      0.2260
     61  O         33.1830  -85.7930  -27.0900 O.2   165  ARG165     -0.2867
     62  CB        34.6030  -85.8410  -24.5930 C.3   165  ARG165      0.0307
     63  CG        34.8930  -86.2720  -23.1640 C.3   165  ARG165      0.0489
     64  CD        34.6710  -85.1400  -22.1790 C.3   165  ARG165      0.2205
     65  NE        33.2670  -84.7460  -22.0970 N.pl3 165  ARG165     -0.0865
     66  CZ        32.8030  -83.7780  -21.3100 C.cat 165  ARG165      0.5346
     67  NH1       33.6380  -83.0880  -20.5420 N.pl3 165  ARG165      0.1354
     68  NH2       31.5020  -83.4870  -21.3060 N.pl3 165  ARG165      0.1354
     69  N         43.1860  -82.4530  -18.3970 N.3   220  ARG220     -0.1245
     70  CA        42.4220  -81.2370  -18.7100 C.3   220  ARG220      0.1563
     71  C         42.3540  -80.2670  -17.5120 C.2   220  ARG220      0.2260
     72  O         42.3260  -79.0480  -17.6870 O.2   220  ARG220     -0.2867
     73  CB        41.0020  -81.6220  -19.1480 C.3   220  ARG220      0.0307
     74  CG        40.2920  -82.4790  -18.1170 C.3   220  ARG220      0.0489
     75  CD        38.9780  -83.0700  -18.5900 C.3   220  ARG220      0.2205
     76  NE        38.4020  -83.8880  -17.5330 N.pl3 220  ARG220     -0.0865
     77  CZ        37.1040  -84.1150  -17.3680 C.cat 220  ARG220      0.5346
     78  NH1       36.2040  -83.5920  -18.1980 N.pl3 220  ARG220      0.1354
     79  NH2       36.7080  -84.8780  -16.3640 N.pl3 220  ARG220      0.1354
     80  N         37.7670  -76.2060  -17.8740 N.3   256  TYR256     -0.1241
     81  CA        38.8360  -76.4870  -16.8920 C.3   256  TYR256      0.1605
     82  C         40.1580  -75.8420  -17.2670 C.2   256  TYR256      0.2264
     83  O         40.9250  -75.4260  -16.4020 O.2   256  TYR256     -0.2867
     84  CB        39.1250  -77.9870  -16.8120 C.3   256  TYR256      0.0534
     85  CG        38.0060  -78.8380  -16.2880 C.ar  256  TYR256     -0.0201
     86  CD1       37.5660  -78.7210  -14.9650 C.ar  256  TYR256     -0.0009
     87  CD2       37.3940  -79.7740  -17.1100 C.ar  256  TYR256     -0.0009
     88  CE1       36.5370  -79.5140  -14.4900 C.ar  256  TYR256      0.0417
     89  CE2       36.3690  -80.5700  -16.6420 C.ar  256  TYR256      0.0417
     90  CZ        35.9430  -80.4470  -15.3370 C.ar  256  TYR256      0.1957
     91  OH        34.9100  -81.2550  -14.8880 O.3   256  TYR256     -0.2866
     92  N         32.6670  -75.3640  -15.3650 N.3   290  ASP290     -0.1225
     93  CA        32.6290  -76.8180  -15.3640 C.3   290  ASP290      0.1805
     94  C         32.8510  -77.3200  -13.9220 C.2   290  ASP290      0.2598
     95  O         33.1840  -76.5350  -13.0280 O.2   290  ASP290     -0.2718
     96  CB        33.6650  -77.3910  -16.3240 C.3   290  ASP290      0.1424
     97  CG        33.2710  -78.7540  -16.8430 C.2   290  ASP290      0.3668
     98  OD1       32.4950  -79.4590  -16.1360 O.co2 290  ASP290     -0.2456
     99  OD2       33.7240  -79.1180  -17.9530 O.co2 290  ASP290     -0.2456
    100  N         32.6820  -78.6230  -13.7090 N.am  291  CYS291     -0.1970
    101  CA        32.7040  -79.1970  -12.3680 C.3   291  CYS291      0.1712
    102  C         34.0540  -79.8440  -12.0010 C.2   291  CYS291      0.2296
    103  O         34.3440  -80.9450  -12.4780 O.2   291  CYS291     -0.2864
    104  CB        31.5860  -80.2440  -12.2570 C.3   291  CYS291      0.0983
    105  SG        30.0320  -79.7870  -13.0750 S.3   291  CYS291     -0.0798
    106  N         26.6090  -89.8960  -20.7170 N.3   428  TYR428     -0.1241
    107  CA        25.5930  -88.9420  -20.2390 C.3   428  TYR428      0.1605
    108  C         24.1570  -89.3580  -20.6070 C.2   428  TYR428      0.2264
    109  O         23.3840  -88.5750  -21.1780 O.2   428  TYR428     -0.2867
    110  CB        25.9190  -87.5280  -20.7320 C.3   428  TYR428      0.0534
    111  CG        27.1740  -86.9980  -20.0920 C.ar  428  TYR428     -0.0201
    112  CD1       27.1350  -86.4490  -18.8130 C.ar  428  TYR428     -0.0009
    113  CD2       28.4100  -87.0700  -20.7490 C.ar  428  TYR428     -0.0009
    114  CE1       28.2840  -85.9700  -18.2050 C.ar  428  TYR428      0.0417
    115  CE2       29.5700  -86.5960  -20.1450 C.ar  428  TYR428      0.0417
    116  CZ        29.4910  -86.0440  -18.8720 C.ar  428  TYR428      0.1957
    117  OH        30.6150  -85.5780  -18.2400 O.3   428  TYR428     -0.2866
    118  N         34.7920  -89.6920  -21.0030 N.3   491  GLU491     -0.1245
    119  CA        35.0960  -88.5130  -20.2120 C.3   491  GLU491      0.1567
    120  C         36.1770  -88.8780  -19.1790 C.2   491  GLU491      0.2260
    121  O         36.0530  -89.8770  -18.4750 O.2   491  GLU491     -0.2867
    122  CB        33.8010  -87.9940  -19.5480 C.3   491  GLU491      0.0388
    123  CG        33.9780  -86.9090  -18.4930 C.3   491  GLU491      0.1160
    124  CD        34.1130  -87.4650  -17.0810 C.2   491  GLU491      0.3649
    125  OE1       33.4550  -88.4890  -16.7760 O.co2 491  GLU491     -0.2457
    126  OE2       34.8670  -86.8800  -16.2670 O.co2 491  GLU491     -0.2457
@<TRIPOS>BOND
     1    61    60    2
     2    60    59    1
     3    59    58    1
     4    59    62    1
     5    62    63    1
     6    63    64    1
     7    64    65    1
     8    65    66    2
     9    66    68    1
    10    66    67    1
    11   109   108    2
    12   118   119    1
    13   113   115   ar
    14   113   111   ar
    15   110   107    1
    16   110   111    1
    17   106   107    1
    18   108   107    1
    19   119   122    1
    20   119   120    1
    21   115   116   ar
    22   111   112   ar
    23   122   123    1
    24   120   121    2
    25    73    70    1
    26    73    74    1
    27   116   117    1
    28   116   114   ar
    29   112   114   ar
    30    70    69    1
    31    70    71    1
    32    75    74    1
    33    75    76    1
    34   123   124    1
    35    78    77    1
    36    99    97   ar
    37    80    81    1
    38    72    71    2
    39    76    77    2
    40    77    79    1
    41    82    81    1
    42    82    83    2
    43    87    89   ar
    44    87    85   ar
    45   124   125   ar
    46   124   126   ar
    47    81    84    1
    48    97    96    1
    49    97    98   ar
    50    84    85    1
    51    89    90   ar
    52    96    93    1
    53    85    86   ar
    54    92    93    1
    55    93    94    1
    56    90    91    1
    57    90    88   ar
    58    47    48    1
    59    86    88   ar
    60    41    39   ar
    61    41    42   ar
    62     9     7   am
    63    39    38   ar
    64     6     7    1
    65     6     5    1
    66    52    51    1
    67    52    53    1
    68     7     8    2
    69    94   100   am
    70    94    95    2
    71    48    51    1
    72    48    49    1
    73     1     2    1
    74   100   101    1
    75    53    54    1
    76    35    34    1
    77    35    36    2
    78    42    44   ar
    79    42    40   ar
    80    49    50    2
    81    44    46   ar
    82     2     5    1
    83     2     3    1
    84    34    33    1
    85    34    37    1
    86   105   104    1
    87    38    40   ar
    88    38    37    1
    89   103   102    2
    90    40    43   ar
    91    16    15    1
    92    16    10    1
    93   101   104    1
    94   101   102    1
    95    54    55    2
    96    56    55    1
    97    46    45   ar
    98     3    10   am
    99     3     4    2
   100    15    14    1
   101    10    11    1
   102    55    57    1
   103    43    45   ar
   104    14    11    1
   105    11    12    1
   106    23    22    1
   107    13    12    2
   108    32    30    1
   109    22    24    1
   110    22    21    1
   111    30    29    1
   112    30    31    1
   113    21    18    1
   114    28    27    2
   115    26    29    1
   116    26    27    1
   117    26    25    1
   118    17    18    1
   119    18    19    1
   120    19    20    2
