@<TRIPOS>MOLECULE
tmp/5ae6B05.pdb
 121 114 0 0 0
SMALL
GASTEIGER

@<TRIPOS>ATOM
      1  N          8.3610  -89.3920  -27.1560 N.3   380  ASP380     -0.1225
      2  CA         9.1750  -90.6000  -27.3140 C.3   380  ASP380      0.1805
      3  C          8.6270  -91.4860  -28.4260 C.2   380  ASP380      0.2597
      4  O          9.3910  -91.9880  -29.2540 O.2   380  ASP380     -0.2718
      5  CB         9.2640  -91.4090  -26.0150 C.3   380  ASP380      0.1424
      6  CG        10.0870  -92.6760  -26.1860 C.2   380  ASP380      0.3668
      7  OD1       11.3260  -92.5640  -26.3150 O.co2 380  ASP380     -0.2456
      8  OD2        9.4980  -93.7800  -26.2210 O.co2 380  ASP380     -0.2456
      9  N          7.3020  -91.6570  -28.4500 N.am  381  ALA381     -0.1979
     10  CA         6.6380  -92.5090  -29.4460 C.3   381  ALA381      0.1597
     11  C          6.7500  -92.0160  -30.8940 C.2   381  ALA381      0.2287
     12  O          6.5730  -92.8090  -31.8210 O.2   381  ALA381     -0.2864
     13  CB         5.1770  -92.7710  -29.0680 C.3   381  ALA381      0.0319
     14  N          9.4610  -91.5500  -32.1890 N.3   383  ASN383     -0.1240
     15  CA        10.6200  -92.3380  -32.6490 C.3   383  ASN383      0.1653
     16  C         11.6130  -91.5280  -33.4950 C.2   383  ASN383      0.2266
     17  O         12.1450  -92.0100  -34.5060 O.2   383  ASN383     -0.2867
     18  CB        10.1600  -93.6110  -33.3890 C.3   383  ASN383      0.1155
     19  CG         9.7390  -94.7190  -32.4360 C.2   383  ASN383      0.2627
     20  OD1       10.2920  -94.8470  -31.3390 O.2   383  ASN383     -0.2716
     21  ND2        8.7580  -95.5280  -32.8540 N.am  383  ASN383     -0.0877
     22  N         15.1480  -93.2700  -33.1830 N.3   386  TYR386     -0.1241
     23  CA        15.2910  -94.2050  -34.3030 C.3   386  TYR386      0.1605
     24  C         15.5950  -93.4740  -35.6060 C.2   386  TYR386      0.2264
     25  O         16.5140  -93.8660  -36.3370 O.2   386  TYR386     -0.2867
     26  CB        14.0260  -95.0580  -34.4760 C.3   386  TYR386      0.0534
     27  CG        13.9080  -95.6820  -35.8490 C.ar  386  TYR386     -0.0201
     28  CD1       14.5940  -96.8550  -36.1640 C.ar  386  TYR386     -0.0009
     29  CD2       13.1260  -95.0850  -36.8400 C.ar  386  TYR386     -0.0009
     30  CE1       14.4980  -97.4250  -37.4270 C.ar  386  TYR386      0.0417
     31  CE2       13.0230  -95.6470  -38.1040 C.ar  386  TYR386      0.0417
     32  CZ        13.7050  -96.8200  -38.3920 C.ar  386  TYR386      0.1957
     33  OH        13.6090  -97.3780  -39.6530 O.3   386  TYR386     -0.2866
     34  N         25.4790 -107.6880  -29.4330 N.3   419  ASN419     -0.1240
     35  CA        24.3590 -107.6930  -28.4770 C.3   419  ASN419      0.1653
     36  C         24.2770 -106.3910  -27.6750 C.2   419  ASN419      0.2266
     37  O         23.8430 -106.3720  -26.5140 O.2   419  ASN419     -0.2867
     38  CB        24.4230 -108.9150  -27.5460 C.3   419  ASN419      0.1155
     39  CG        23.1250 -109.1300  -26.7750 C.2   419  ASN419      0.2627
     40  OD1       22.0320 -108.9540  -27.3110 O.2   419  ASN419     -0.2716
     41  ND2       23.2490 -109.5080  -25.5130 N.am  419  ASN419     -0.0877
     42  N         13.4690  -96.0580  -22.3900 N.3   433  PRO433     -0.2102
     43  CA        12.2360  -96.8670  -22.3340 C.3   433  PRO433      0.1504
     44  C         12.5120  -98.3520  -22.6230 C.2   433  PRO433      0.2576
     45  O         11.9120  -99.2440  -22.0060 O.2   433  PRO433     -0.2718
     46  CB        11.3550  -96.2460  -23.4280 C.3   433  PRO433      0.0282
     47  CG        12.2990  -95.5290  -24.3340 C.3   433  PRO433      0.0208
     48  CD        13.3830  -95.0110  -23.4250 C.3   433  PRO433      0.0893
     49  N         13.4460  -98.5920  -23.5310 N.am  434  TYR434     -0.1963
     50  CA        13.8500  -99.9250  -23.9610 C.3   434  TYR434      0.1771
     51  C         15.1960  -99.7340  -24.6570 C.2   434  TYR434      0.2619
     52  O         15.6070  -98.5900  -24.9080 O.2   434  TYR434     -0.2715
     53  CB        12.8190 -100.4900  -24.9570 C.3   434  TYR434      0.0574
     54  CG        12.4830  -99.5170  -26.0750 C.ar  434  TYR434     -0.0198
     55  CD1       13.2930  -99.4210  -27.2030 C.ar  434  TYR434     -0.0009
     56  CD2       11.3670  -98.6810  -25.9950 C.ar  434  TYR434     -0.0009
     57  CE1       13.0130  -98.5200  -28.2170 C.ar  434  TYR434      0.0417
     58  CE2       11.0700  -97.7770  -27.0080 C.ar  434  TYR434      0.0417
     59  CZ        11.9000  -97.7030  -28.1150 C.ar  434  TYR434      0.1957
     60  OH        11.6380  -96.8200  -29.1300 O.3   434  TYR434     -0.2866
     61  N         15.8750 -100.8360  -24.9760 N.am  435  LEU435     -0.1963
     62  CA        17.0630 -100.7950  -25.8280 C.3   435  LEU435      0.1728
     63  C         17.0130 -101.9830  -26.7770 C.2   435  LEU435      0.2616
     64  O         17.1050 -103.1240  -26.3370 O.2   435  LEU435     -0.2715
     65  CB        18.3450 -100.8430  -24.9950 C.3   435  LEU435      0.0311
     66  CG        18.5420  -99.7620  -23.9340 C.3   435  LEU435      0.0022
     67  CD1       19.5530 -100.2170  -22.8870 C.3   435  LEU435      0.0001
     68  CD2       18.9510  -98.4420  -24.5820 C.3   435  LEU435      0.0001
     69  N         16.8510 -101.7150  -28.0690 N.am  436  ILE436     -0.1963
     70  CA        16.7520 -102.7770  -29.0500 C.3   436  ILE436      0.1727
     71  C         18.1410 -103.1020  -29.6250 C.2   436  ILE436      0.2616
     72  O         18.6450 -102.3960  -30.5010 O.2   436  ILE436     -0.2715
     73  CB        15.7630 -102.4300  -30.1880 C.3   436  ILE436      0.0290
     74  CG1       14.4490 -101.8530  -29.6320 C.3   436  ILE436      0.0022
     75  CG2       15.4910 -103.6710  -31.0360 C.3   436  ILE436      0.0023
     76  CD1       13.6100 -101.0980  -30.6510 C.3   436  ILE436      0.0001
     77  N         18.7490 -104.1740  -29.1230 N.am  437  SER437     -0.1950
     78  CA        20.0700 -104.6260  -29.5890 C.3   437  SER437      0.1924
     79  C         20.0600 -104.9910  -31.0790 C.2   437  SER437      0.2314
     80  O         18.9940 -105.2890  -31.6300 O.2   437  SER437     -0.2863
     81  CB        20.5380 -105.8260  -28.7590 C.3   437  SER437      0.2116
     82  OG        19.8500 -107.0000  -29.1560 O.3   437  SER437     -0.2180
     83  N         18.5490 -108.5430  -31.1720 N.3   440  GLU440     -0.1245
     84  CA        17.0880 -108.6130  -31.0780 C.3   440  GLU440      0.1567
     85  C         16.4830 -108.1460  -32.3930 C.2   440  GLU440      0.2260
     86  O         15.5520 -108.7640  -32.8970 O.2   440  GLU440     -0.2867
     87  CB        16.5370 -107.7990  -29.9070 C.3   440  GLU440      0.0388
     88  CG        15.0390 -108.0050  -29.6810 C.3   440  GLU440      0.1160
     89  CD        14.3950 -106.9330  -28.8110 C.2   440  GLU440      0.3649
     90  OE1       15.0490 -106.4330  -27.8700 O.co2 440  GLU440     -0.2457
     91  OE2       13.2230 -106.5840  -29.0680 O.co2 440  GLU440     -0.2457
     92  N         14.0180 -109.9890  -35.0330 N.3   444  LYS444     -0.1245
     93  CA        12.7200 -109.3830  -35.3420 C.3   444  LYS444      0.1561
     94  C         12.5090 -109.2530  -36.8490 C.2   444  LYS444      0.2260
     95  O         11.3900 -109.3920  -37.3360 O.2   444  LYS444     -0.2867
     96  CB        12.5810 -107.9960  -34.7020 C.3   444  LYS444      0.0271
     97  CG        12.4690 -107.9620  -33.1840 C.3   444  LYS444      0.0035
     98  CD        11.1570 -108.5450  -32.6800 C.3   444  LYS444      0.0206
     99  CE        10.6970 -107.8380  -31.4140 C.3   444  LYS444      0.1093
    100  NZ        10.0980 -106.5090  -31.7300 N.3   444  LYS444     -0.1314
    101  N         16.8420  -97.2360  -30.0970 N.3   551  SER551     -0.1217
    102  CA        16.3540  -98.1210  -31.1520 C.3   551  SER551      0.1889
    103  C         17.4960  -98.4640  -32.1040 C.2   551  SER551      0.2288
    104  O         17.2670  -98.7400  -33.2760 O.2   551  SER551     -0.2866
    105  CB        15.2120  -97.4510  -31.9300 C.3   551  SER551      0.2089
    106  OG        14.2220  -96.9460  -31.0550 O.3   551  SER551     -0.2183
    107  N         17.3980 -101.6410  -34.5470 N.3   554  VAL554     -0.1245
    108  CA        16.4270 -101.5500  -35.6550 C.3   554  VAL554      0.1561
    109  C         16.8760 -100.5910  -36.7440 C.2   554  VAL554      0.2260
    110  O         16.6740 -100.8580  -37.9290 O.2   554  VAL554     -0.2867
    111  CB        15.0160 -101.1500  -35.1740 C.3   554  VAL554      0.0252
    112  CG1       14.0310 -101.1380  -36.3400 C.3   554  VAL554      0.0019
    113  CG2       14.5320 -102.1180  -34.1140 C.3   554  VAL554      0.0019
    114  N         17.3830 -102.0520  -40.3570 N.3   558  ASP558     -0.1239
    115  CA        16.5650 -101.4480  -41.4160 C.3   558  ASP558      0.1674
    116  C         17.4390 -100.9540  -42.5640 C.2   558  ASP558      0.2266
    117  O         17.0390 -101.0280  -43.7210 O.2   558  ASP558     -0.2867
    118  CB        15.6840 -100.3060  -40.8840 C.3   558  ASP558      0.1410
    119  CG        14.4740 -100.8060  -40.0940 C.2   558  ASP558      0.3668
    120  OD1       14.2980 -102.0320  -39.9280 O.co2 558  ASP558     -0.2456
    121  OD2       13.6890  -99.9660  -39.6270 O.co2 558  ASP558     -0.2456
@<TRIPOS>BOND
     1   117   116    2
     2   116   115    1
     3   115   118    1
     4   115   114    1
     5   118   119    1
     6   119   120   ar
     7   119   121   ar
     8    33    32    1
     9    32    31   ar
    10    32    30   ar
    11    31    29   ar
    12   110   109    2
    13    30    28   ar
    14    95    94    2
    15    94    93    1
    16    29    27   ar
    17   109   108    1
    18   112   111    1
    19    25    24    2
    20    28    27   ar
    21    27    26    1
    22   108   111    1
    23   108   107    1
    24    24    23    1
    25    93    92    1
    26    93    96    1
    27   111   113    1
    28    96    97    1
    29    17    16    2
    30    26    23    1
    31    23    22    1
    32    16    15    1
    33    18    15    1
    34    18    19    1
    35   104   103    2
    36    97    98    1
    37    86    85    2
    38    21    19   am
    39    98    99    1
    40    15    14    1
    41    19    20    2
    42    85    84    1
    43   103   102    1
    44   105   102    1
    45   105   106    1
    46    12    11    2
    47   100    99    1
    48    80    79    2
    49    83    84    1
    50   102   101    1
    51    79    78    1
    52    84    87    1
    53    75    73    1
    54    11    10    1
    55    76    74    1
    56    72    71    2
    57    73    74    1
    58    73    70    1
    59    87    88    1
    60    88    89    1
    61    71    77   am
    62    71    70    1
    63    78    77    1
    64    78    81    1
    65    10    13    1
    66    10     9    1
    67    34    35    1
    68     4     3    2
    69    82    81    1
    70    60    59    1
    71    91    89   ar
    72    70    69    1
    73    89    90   ar
    74    35    36    1
    75    35    38    1
    76     9     3   am
    77     3     2    1
    78    57    59   ar
    79    57    55   ar
    80    59    58   ar
    81    69    63   am
    82    36    37    2
    83    38    39    1
    84     2     1    1
    85     2     5    1
    86    40    39    2
    87    55    54   ar
    88    58    56   ar
    89    63    64    2
    90    63    62    1
    91    39    41   am
    92     7     6   ar
    93     8     6   ar
    94     6     5    1
    95    54    56   ar
    96    54    53    1
    97    62    65    1
    98    62    61    1
    99    65    66    1
   100    61    51   am
   101    53    50    1
   102    52    51    2
   103    51    50    1
   104    68    66    1
   105    47    46    1
   106    47    48    1
   107    50    49    1
   108    66    67    1
   109    49    44   am
   110    46    43    1
   111    48    42    1
   112    44    43    1
   113    44    45    2
   114    42    43    1
