@<TRIPOS>MOLECULE
tmp/5ae6A02.pdb
 128 124 0 0 0
SMALL
GASTEIGER

@<TRIPOS>ATOM
      1  N         16.0520  -30.2130   -1.9610 N.3   122  ASN122     -0.1240
      2  CA        14.7800  -30.9230   -2.0240 C.3   122  ASN122      0.1653
      3  C         14.7520  -31.8900   -3.2110 C.2   122  ASN122      0.2266
      4  O         14.6530  -31.4690   -4.3650 O.2   122  ASN122     -0.2867
      5  CB        13.6240  -29.9100   -2.0840 C.3   122  ASN122      0.1155
      6  CG        12.2540  -30.5660   -2.2180 C.2   122  ASN122      0.2627
      7  OD1       12.1390  -31.7670   -2.4620 O.2   122  ASN122     -0.2716
      8  ND2       11.2010  -29.7670   -2.0510 N.am  122  ASN122     -0.0877
      9  N         12.4340  -34.2130   -4.0580 N.3   124  THR124     -0.1203
     10  CA        11.1040  -34.2500   -4.6780 C.3   124  THR124      0.1994
     11  C         10.9720  -33.1170   -5.6910 C.2   124  THR124      0.2617
     12  O         10.4670  -33.3220   -6.7930 O.2   124  THR124     -0.2717
     13  CB         9.9850  -34.1800   -3.6060 C.3   124  THR124      0.1784
     14  OG1       10.2540  -35.1460   -2.5790 O.3   124  THR124     -0.2211
     15  CG2        8.6150  -34.4670   -4.2080 C.3   124  THR124      0.0376
     16  N         11.4690  -31.9360   -5.3260 N.am  125  LEU125     -0.1979
     17  CA        11.4760  -30.7730   -6.2140 C.3   125  LEU125      0.1596
     18  C         12.1840  -31.0610   -7.5470 C.2   125  LEU125      0.2287
     19  O         11.6200  -30.8180   -8.6190 O.2   125  LEU125     -0.2864
     20  CB        12.1260  -29.5710   -5.5220 C.3   125  LEU125      0.0297
     21  CG        12.2990  -28.3010   -6.3510 C.3   125  LEU125      0.0022
     22  CD1       10.9680  -27.5660   -6.5380 C.3   125  LEU125      0.0001
     23  CD2       13.3410  -27.3900   -5.7060 C.3   125  LEU125      0.0001
     24  N         10.1540  -33.5320   -9.7230 N.3   128  GLN128     -0.1245
     25  CA         8.9530  -32.9230  -10.3250 C.3   128  GLN128      0.1566
     26  C          9.2930  -31.9960  -11.4940 C.2   128  GLN128      0.2260
     27  O          8.6010  -31.9950  -12.5160 O.2   128  GLN128     -0.2867
     28  CB         8.0860  -32.1810   -9.2830 C.3   128  GLN128      0.0367
     29  CG         6.8340  -31.5490   -9.8980 C.3   128  GLN128      0.0905
     30  CD         5.7370  -31.2080   -8.9000 C.2   128  GLN128      0.2608
     31  OE1        5.9930  -30.7540   -7.7870 O.2   128  GLN128     -0.2717
     32  NE2        4.4940  -31.4090   -9.3170 N.am  128  GLN128     -0.0878
     33  N          1.4030  -23.8370  -15.3820 N.3   381  ALA381     -0.1231
     34  CA         0.5340  -23.1160  -14.4480 C.3   381  ALA381      0.1694
     35  C          0.6690  -23.6110  -13.0030 C.2   381  ALA381      0.2592
     36  O          0.2660  -22.9150  -12.0750 O.2   381  ALA381     -0.2718
     37  CB        -0.9210  -23.1610  -14.9100 C.3   381  ALA381      0.0304
     38  N          1.2470  -24.7990  -12.8110 N.am  382  TRP382     -0.1962
     39  CA         1.5760  -25.2750  -11.4610 C.3   382  TRP382      0.1771
     40  C          2.5840  -24.3530  -10.7590 C.2   382  TRP382      0.2620
     41  O          2.6680  -24.3380   -9.5330 O.2   382  TRP382     -0.2715
     42  CB         2.1310  -26.7020  -11.4880 C.3   382  TRP382      0.0590
     43  CG         1.1310  -27.7730  -11.8140 C.ar  382  TRP382      0.0006
     44  CD1       -0.2340  -27.6690  -11.7830 C.ar  382  TRP382      0.0946
     45  CD2        1.4200  -29.1240  -12.1950 C.ar  382  TRP382      0.0152
     46  NE1       -0.8090  -28.8690  -12.1310 N.ar  382  TRP382     -0.2442
     47  CE2        0.1810  -29.7800  -12.3890 C.ar  382  TRP382      0.0810
     48  CE3        2.6060  -29.8430  -12.3980 C.ar  382  TRP382      0.0012
     49  CZ2        0.0940  -31.1220  -12.7760 C.ar  382  TRP382      0.0191
     50  CZ3        2.5210  -31.1760  -12.7820 C.ar  382  TRP382      0.0001
     51  CH2        1.2710  -31.8020  -12.9660 C.ar  382  TRP382      0.0015
     52  N          3.3400  -23.5960  -11.5510 N.am  383  ASN383     -0.1958
     53  CA         4.3360  -22.6470  -11.0520 C.3   383  ASN383      0.1819
     54  C          5.4100  -23.3060  -10.1900 C.2   383  ASN383      0.2621
     55  O          5.8090  -22.7690   -9.1530 O.2   383  ASN383     -0.2715
     56  CB         3.6710  -21.4870  -10.3040 C.3   383  ASN383      0.1195
     57  CG         3.1130  -20.4340  -11.2350 C.2   383  ASN383      0.2630
     58  OD1        3.6890  -20.1480  -12.2950 O.2   383  ASN383     -0.2716
     59  ND2        1.9780  -19.8330  -10.8350 N.am  383  ASN383     -0.0877
     60  N          5.8850  -24.4680  -10.6380 N.am  384  ILE384     -0.1977
     61  CA         6.9830  -25.1590   -9.9650 C.3   384  ILE384      0.1596
     62  C          8.3130  -24.4490  -10.2530 C.2   384  ILE384      0.2287
     63  O          9.2720  -24.5980   -9.4990 O.2   384  ILE384     -0.2864
     64  CB         7.0160  -26.6730  -10.3130 C.3   384  ILE384      0.0276
     65  CG1        5.7100  -27.3640   -9.8790 C.3   384  ILE384      0.0022
     66  CG2        8.2190  -27.3740   -9.6850 C.3   384  ILE384      0.0022
     67  CD1        5.3890  -27.2880   -8.3920 C.3   384  ILE384      0.0001
     68  N          8.6100  -21.1060  -10.2370 N.3   386  TYR386     -0.1227
     69  CA         8.5660  -20.1510   -9.1390 C.3   386  TYR386      0.1736
     70  C          8.9510  -20.8390   -7.8270 C.2   386  TYR386      0.2595
     71  O          9.7920  -20.3380   -7.0830 O.2   386  TYR386     -0.2718
     72  CB         7.1710  -19.4950   -9.0290 C.3   386  TYR386      0.0548
     73  CG         6.8980  -18.9300   -7.6610 C.ar  386  TYR386     -0.0200
     74  CD1        7.3560  -17.6620   -7.3070 C.ar  386  TYR386     -0.0009
     75  CD2        6.2140  -19.6750   -6.7040 C.ar  386  TYR386     -0.0009
     76  CE1        7.1250  -17.1420   -6.0410 C.ar  386  TYR386      0.0417
     77  CE2        5.9840  -19.1690   -5.4340 C.ar  386  TYR386      0.0417
     78  CZ         6.4400  -17.9000   -5.1090 C.ar  386  TYR386      0.1957
     79  OH         6.2150  -17.3920   -3.8480 O.3   386  TYR386     -0.2866
     80  N          8.3510  -21.9990   -7.5740 N.am  387  GLU387     -0.1979
     81  CA         8.5770  -22.7420   -6.3490 C.3   387  GLU387      0.1602
     82  C         10.0390  -23.1650   -6.1590 C.2   387  GLU387      0.2287
     83  O         10.5890  -23.0180   -5.0630 O.2   387  GLU387     -0.2864
     84  CB         7.6440  -23.9510   -6.2800 C.3   387  GLU387      0.0415
     85  CG         7.7390  -24.7690   -5.0000 C.3   387  GLU387      0.1163
     86  CD         7.4110  -23.9780   -3.7320 C.2   387  GLU387      0.3649
     87  OE1        6.7980  -22.8920   -3.8170 O.co2 387  GLU387     -0.2457
     88  OE2        7.7720  -24.4490   -2.6350 O.co2 387  GLU387     -0.2457
     89  N         12.4630  -21.8490   -3.0560 N.3   391  GLU391     -0.1245
     90  CA        13.0800  -22.7950   -2.1350 C.3   391  GLU391      0.1567
     91  C         14.6160  -22.7190   -2.1360 C.2   391  GLU391      0.2260
     92  O         15.2610  -23.1340   -1.1670 O.2   391  GLU391     -0.2867
     93  CB        12.6150  -24.2180   -2.4470 C.3   391  GLU391      0.0388
     94  CG        11.1510  -24.4830   -2.1310 C.3   391  GLU391      0.1160
     95  CD        10.7660  -25.9420   -2.2610 C.2   391  GLU391      0.3649
     96  OE1       11.6160  -26.8230   -2.0160 O.co2 391  GLU391     -0.2457
     97  OE2        9.5930  -26.2180   -2.5940 O.co2 391  GLU391     -0.2457
     98  N         10.5110  -23.1180    6.6360 N.3   667  PRO667     -0.2116
     99  CA        11.0130  -24.4460    6.2970 C.3   667  PRO667      0.1372
    100  C         12.4480  -24.5990    6.8160 C.2   667  PRO667      0.2244
    101  O         13.0830  -23.5930    7.1530 O.2   667  PRO667     -0.2868
    102  CB        10.9860  -24.4470    4.7640 C.3   667  PRO667      0.0268
    103  CG        11.1010  -23.0150    4.3740 C.3   667  PRO667      0.0207
    104  CD        10.4020  -22.2410    5.4530 C.3   667  PRO667      0.0892
    105  N         15.3110  -31.4130    3.3040 N.3   694  ARG694     -0.1231
    106  CA        14.5390  -30.2020    3.5110 C.3   694  ARG694      0.1694
    107  C         13.2500  -30.6130    4.1980 C.2   694  ARG694      0.2592
    108  O         12.6230  -31.5970    3.7950 O.2   694  ARG694     -0.2718
    109  CB        14.2240  -29.5250    2.1810 C.3   694  ARG694      0.0321
    110  CG        13.4680  -28.2170    2.3330 C.3   694  ARG694      0.0489
    111  CD        13.0720  -27.6360    0.9910 C.3   694  ARG694      0.2205
    112  NE        12.4080  -26.3510    1.1550 N.pl3 694  ARG694     -0.0865
    113  CZ        12.9850  -25.1690    0.9670 C.cat 694  ARG694      0.5346
    114  NH1       14.2600  -25.0860    0.5800 N.pl3 694  ARG694      0.1354
    115  NH2       12.2800  -24.0660    1.1540 N.pl3 694  ARG694      0.1354
    116  N         12.8670  -29.8810    5.2420 N.am  695  LEU695     -0.1966
    117  CA        11.6170  -30.1640    5.9610 C.3   695  LEU695      0.1728
    118  C         10.6150  -29.0400    5.7520 C.2   695  LEU695      0.2616
    119  O         11.0000  -27.8870    5.5810 O.2   695  LEU695     -0.2715
    120  CB        11.8740  -30.3710    7.4560 C.3   695  LEU695      0.0311
    121  CG        12.9100  -31.4050    7.8980 C.3   695  LEU695      0.0022
    122  CD1       13.1910  -31.2280    9.3810 C.3   695  LEU695      0.0001
    123  CD2       12.4550  -32.8280    7.5980 C.3   695  LEU695      0.0001
    124  N          9.3290  -29.3880    5.7680 N.am  696  ALA696     -0.1977
    125  CA         8.2500  -28.4230    5.5330 C.3   696  ALA696      0.1597
    126  C          8.1550  -27.3790    6.6520 C.2   696  ALA696      0.2287
    127  O          8.6640  -27.6020    7.7500 O.2   696  ALA696     -0.2864
    128  CB         6.9250  -29.1490    5.3550 C.3   696  ALA696      0.0319
@<TRIPOS>BOND
     1    33    34    1
     2    37    34    1
     3    34    35    1
     4    35    38   am
     5    35    36    2
     6    51    50   ar
     7    51    49   ar
     8    38    39    1
     9    50    48   ar
    10    49    47   ar
    11    27    26    2
    12    48    45   ar
    13    47    45   ar
    14    47    46   ar
    15    58    57    2
    16    45    43   ar
    17    46    44   ar
    18    43    44   ar
    19    43    42    1
    20    52    53    1
    21    52    40   am
    22    26    25    1
    23    42    39    1
    24    39    40    1
    25    57    59   am
    26    57    56    1
    27    53    56    1
    28    53    54    1
    29    40    41    2
    30    60    54   am
    31    60    61    1
    32    25    24    1
    33    25    28    1
    34    64    61    1
    35    64    65    1
    36    64    66    1
    37    62    61    1
    38    62    63    2
    39    68    69    1
    40    54    55    2
    41    29    28    1
    42    29    30    1
    43    65    67    1
    44    32    30   am
    45    69    72    1
    46    69    70    1
    47    72    73    1
    48    30    31    2
    49    19    18    2
    50    70    80   am
    51    70    71    2
    52    73    74   ar
    53    73    75   ar
    54    80    81    1
    55    18    17    1
    56    74    76   ar
    57    12    11    2
    58    75    77   ar
    59    22    21    1
    60    21    23    1
    61    21    20    1
    62    81    84    1
    63    81    82    1
    64    84    85    1
    65    17    20    1
    66    17    16    1
    67    82    83    2
    68    76    78   ar
    69    11    16   am
    70    11    10    1
    71    77    78   ar
    72    78    79    1
    73    85    86    1
    74    10     9    1
    75    10    13    1
    76     4     3    2
    77    15    13    1
    78    87    86   ar
    79    86    88   ar
    80    13    14    1
    81     3     2    1
    82    89    90    1
    83    97    95   ar
    84     7     6    2
    85    93    90    1
    86    93    94    1
    87    95    94    1
    88    95    96   ar
    89     6     5    1
    90     6     8   am
    91    91    90    1
    92    91    92    2
    93     5     2    1
    94     2     1    1
    95   114   113    1
    96   113   115    1
    97   113   112    2
    98   111   112    1
    99   111   110    1
   100   109   110    1
   101   109   106    1
   102   105   106    1
   103   106   107    1
   104   108   107    2
   105   107   116   am
   106   103   102    1
   107   103   104    1
   108   102    99    1
   109   116   117    1
   110   128   125    1
   111   104    98    1
   112   125   124    1
   113   125   126    1
   114   119   118    2
   115   118   124   am
   116   118   117    1
   117   117   120    1
   118    99    98    1
   119    99   100    1
   120   126   127    2
   121   100   101    2
   122   120   121    1
   123   123   121    1
   124   121   122    1
