@<TRIPOS>MOLECULE
tmp/5ae6A04.pdb
 99 92 0 0 0
SMALL
GASTEIGER

@<TRIPOS>ATOM
      1  N          2.9230  -25.8220  -16.6490 N.3   380  ASP380     -0.1225
      2  CA         3.5080  -24.4950  -16.4300 C.3   380  ASP380      0.1805
      3  C          2.7350  -23.7200  -15.3540 C.2   380  ASP380      0.2597
      4  O          3.3410  -23.0450  -14.5130 O.2   380  ASP380     -0.2718
      5  CB         3.5650  -23.6820  -17.7230 C.3   380  ASP380      0.1424
      6  CG         4.1300  -22.2800  -17.5070 C.2   380  ASP380      0.3668
      7  OD1        5.3710  -22.1380  -17.3700 O.co2 380  ASP380     -0.2456
      8  OD2        3.3290  -21.3220  -17.4600 O.co2 380  ASP380     -0.2456
      9  N          1.4030  -23.8370  -15.3820 N.am  381  ALA381     -0.1979
     10  CA         0.5340  -23.1160  -14.4480 C.3   381  ALA381      0.1597
     11  C          0.6690  -23.6110  -13.0030 C.2   381  ALA381      0.2287
     12  O          0.2660  -22.9150  -12.0750 O.2   381  ALA381     -0.2864
     13  CB        -0.9210  -23.1610  -14.9100 C.3   381  ALA381      0.0319
     14  N          3.3400  -23.5960  -11.5510 N.3   383  ASN383     -0.1240
     15  CA         4.3360  -22.6470  -11.0520 C.3   383  ASN383      0.1653
     16  C          5.4100  -23.3060  -10.1900 C.2   383  ASN383      0.2266
     17  O          5.8090  -22.7690   -9.1530 O.2   383  ASN383     -0.2867
     18  CB         3.6710  -21.4870  -10.3040 C.3   383  ASN383      0.1155
     19  CG         3.1130  -20.4340  -11.2350 C.2   383  ASN383      0.2627
     20  OD1        3.6890  -20.1480  -12.2950 O.2   383  ASN383     -0.2716
     21  ND2        1.9780  -19.8330  -10.8350 N.am  383  ASN383     -0.0877
     22  N          8.6100  -21.1060  -10.2370 N.3   386  TYR386     -0.1241
     23  CA         8.5660  -20.1510   -9.1390 C.3   386  TYR386      0.1605
     24  C          8.9510  -20.8390   -7.8270 C.2   386  TYR386      0.2264
     25  O          9.7920  -20.3380   -7.0830 O.2   386  TYR386     -0.2867
     26  CB         7.1710  -19.4950   -9.0290 C.3   386  TYR386      0.0534
     27  CG         6.8980  -18.9300   -7.6610 C.ar  386  TYR386     -0.0201
     28  CD1        7.3560  -17.6620   -7.3070 C.ar  386  TYR386     -0.0009
     29  CD2        6.2140  -19.6750   -6.7040 C.ar  386  TYR386     -0.0009
     30  CE1        7.1250  -17.1420   -6.0410 C.ar  386  TYR386      0.0417
     31  CE2        5.9840  -19.1690   -5.4340 C.ar  386  TYR386      0.0417
     32  CZ         6.4400  -17.9000   -5.1090 C.ar  386  TYR386      0.1957
     33  OH         6.2150  -17.3920   -3.8480 O.3   386  TYR386     -0.2866
     34  N          7.0240  -18.3130  -21.0710 N.3   433  PRO433     -0.2102
     35  CA         5.6770  -17.7560  -21.2610 C.3   433  PRO433      0.1504
     36  C          5.6350  -16.2650  -20.9220 C.2   433  PRO433      0.2575
     37  O          4.8150  -15.5330  -21.4610 O.2   433  PRO433     -0.2718
     38  CB         4.8190  -18.5470  -20.2690 C.3   433  PRO433      0.0282
     39  CG         5.7810  -19.0780  -19.2550 C.3   433  PRO433      0.0208
     40  CD         7.0460  -19.3390  -20.0130 C.3   433  PRO433      0.0893
     41  N          6.5450  -15.8530  -20.0370 N.am  434  TYR434     -0.1977
     42  CA         6.6780  -14.4910  -19.5220 C.3   434  TYR434      0.1639
     43  C          7.9870  -14.4670  -18.7340 C.2   434  TYR434      0.2290
     44  O          8.5090  -15.5260  -18.3610 O.2   434  TYR434     -0.2864
     45  CB         5.5250  -14.1580  -18.5760 C.3   434  TYR434      0.0560
     46  CG         5.3280  -15.1920  -17.4880 C.ar  434  TYR434     -0.0198
     47  CD1        6.1880  -15.2540  -16.3950 C.ar  434  TYR434     -0.0009
     48  CD2        4.2860  -16.1180  -17.5590 C.ar  434  TYR434     -0.0009
     49  CE1        6.0210  -16.2060  -15.4040 C.ar  434  TYR434      0.0417
     50  CE2        4.1080  -17.0720  -16.5680 C.ar  434  TYR434      0.0417
     51  CZ         4.9790  -17.1060  -15.4890 C.ar  434  TYR434      0.1957
     52  OH         4.8150  -18.0470  -14.4990 O.3   434  TYR434     -0.2866
     53  N          9.2260  -12.3040  -15.3380 N.3   436  ILE436     -0.1245
     54  CA         8.8870  -11.3060  -14.3230 C.3   436  ILE436      0.1561
     55  C         10.1560  -10.7630  -13.6550 C.2   436  ILE436      0.2260
     56  O         10.7270  -11.4110  -12.7700 O.2   436  ILE436     -0.2867
     57  CB         7.8990  -11.8420  -13.2580 C.3   436  ILE436      0.0252
     58  CG1        6.7260  -12.5910  -13.9090 C.3   436  ILE436      0.0019
     59  CG2        7.3910  -10.6930  -12.3900 C.3   436  ILE436      0.0019
     60  CD1        5.7970  -13.2980  -12.9300 C.3   436  ILE436      0.0001
     61  N          9.5050   -5.2610  -11.9750 N.3   440  GLU440     -0.1245
     62  CA         8.0600   -5.4760  -12.0790 C.3   440  GLU440      0.1567
     63  C          7.4870   -6.1400  -10.8290 C.2   440  GLU440      0.2260
     64  O          6.3750   -5.8180  -10.4050 O.2   440  GLU440     -0.2867
     65  CB         7.6870   -6.2950  -13.3190 C.3   440  GLU440      0.0388
     66  CG         6.1720   -6.3950  -13.5300 C.3   440  GLU440      0.1160
     67  CD         5.7410   -7.6040  -14.3550 C.2   440  GLU440      0.3649
     68  OE1        6.5820   -8.1930  -15.0670 O.co2 440  GLU440     -0.2457
     69  OE2        4.5440   -7.9680  -14.2900 O.co2 440  GLU440     -0.2457
     70  N          4.6020   -4.6930   -8.3270 N.3   444  LYS444     -0.1245
     71  CA         3.4500   -5.5570   -8.0390 C.3   444  LYS444      0.1561
     72  C          3.3150   -5.9400   -6.5670 C.2   444  LYS444      0.2260
     73  O          2.2440   -6.3590   -6.1340 O.2   444  LYS444     -0.2867
     74  CB         3.4760   -6.8270   -8.8980 C.3   444  LYS444      0.0271
     75  CG         3.0600   -6.6040  -10.3440 C.3   444  LYS444      0.0035
     76  CD         2.2230   -7.7600  -10.8790 C.3   444  LYS444      0.0206
     77  CE         3.0520   -9.0130  -11.1210 C.3   444  LYS444      0.1093
     78  NZ         2.2420  -10.0680  -11.7860 N.3   444  LYS444     -0.1314
     79  N          9.7640  -16.8310  -13.1910 N.3   551  SER551     -0.1217
     80  CA         9.0690  -16.0800  -12.1360 C.3   551  SER551      0.1889
     81  C         10.0730  -15.4890  -11.1460 C.2   551  SER551      0.2288
     82  O          9.7650  -15.3170   -9.9610 O.2   551  SER551     -0.2866
     83  CB         8.0730  -16.9820  -11.4000 C.3   551  SER551      0.2089
     84  OG         7.0870  -17.5030  -12.2800 O.3   551  SER551     -0.2183
     85  N          9.4690  -12.3790   -8.7380 N.3   554  VAL554     -0.1245
     86  CA         8.4600  -12.6570   -7.7220 C.3   554  VAL554      0.1561
     87  C          9.0200  -13.5750   -6.6460 C.2   554  VAL554      0.2260
     88  O          8.6960  -13.4230   -5.4680 O.2   554  VAL554     -0.2867
     89  CB         7.1610  -13.2400   -8.3190 C.3   554  VAL554      0.0252
     90  CG1        6.0870  -13.3590   -7.2510 C.3   554  VAL554      0.0019
     91  CG2        6.6440  -12.3460   -9.4330 C.3   554  VAL554      0.0019
     92  N          9.2030  -12.0780   -2.9700 N.3   558  ASP558     -0.1239
     93  CA         8.4590  -12.8110   -1.9400 C.3   558  ASP558      0.1674
     94  C          9.3760  -13.1730   -0.7730 C.2   558  ASP558      0.2266
     95  O          8.9320  -13.2550    0.3770 O.2   558  ASP558     -0.2867
     96  CB         7.8330  -14.0950   -2.5010 C.3   558  ASP558      0.1410
     97  CG         6.5730  -13.8410   -3.3290 C.2   558  ASP558      0.3668
     98  OD1        6.1030  -12.6840   -3.4030 O.co2 558  ASP558     -0.2456
     99  OD2        6.0540  -14.8180   -3.9130 O.co2 558  ASP558     -0.2456
@<TRIPOS>BOND
     1    37    36    2
     2    35    34    1
     3    35    36    1
     4    35    38    1
     5    34    40    1
     6    36    41   am
     7    38    39    1
     8    41    42    1
     9    40    39    1
    10    42    43    1
    11    42    45    1
    12    43    44    2
    13    45    46    1
    14     5     6    1
    15     5     2    1
    16    48    46   ar
    17    48    50   ar
    18     6     8   ar
    19     6     7   ar
    20    46    47   ar
    21     1     2    1
    22    50    51   ar
    23     2     3    1
    24    47    49   ar
    25    51    49   ar
    26    51    52    1
    27     9     3   am
    28     9    10    1
    29     3     4    2
    30    53    54    1
    31    68    67   ar
    32    13    10    1
    33    10    11    1
    34    67    69   ar
    35    67    66    1
    36    54    55    1
    37    54    57    1
    38    58    57    1
    39    58    60    1
    40    55    56    2
    41    66    65    1
    42    65    62    1
    43    57    59    1
    44    79    80    1
    45    11    12    2
    46    20    19    2
    47    84    83    1
    48    80    83    1
    49    80    81    1
    50    62    61    1
    51    62    63    1
    52    78    77    1
    53    14    15    1
    54    19    21   am
    55    19    18    1
    56    81    82    2
    57    77    76    1
    58    15    18    1
    59    15    16    1
    60    76    75    1
    61    63    64    2
    62    75    74    1
    63    22    23    1
    64    16    17    2
    65    91    89    1
    66    23    26    1
    67    23    24    1
    68    26    27    1
    69    74    71    1
    70    85    86    1
    71    70    71    1
    72    89    86    1
    73    89    90    1
    74    71    72    1
    75    24    25    2
    76    86    87    1
    77    27    28   ar
    78    27    29   ar
    79    28    30   ar
    80    29    31   ar
    81    87    88    2
    82    72    73    2
    83    30    32   ar
    84    31    32   ar
    85    32    33    1
    86    99    97   ar
    87    98    97   ar
    88    97    96    1
    89    92    93    1
    90    96    93    1
    91    93    94    1
    92    94    95    2
