@<TRIPOS>MOLECULE
tmp/5ae6B07.pdb
 131 126 0 0 0
SMALL
GASTEIGER

@<TRIPOS>ATOM
      1  N         22.8340  -78.0740  -12.4200 N.3    86  TRP86      -0.1241
      2  CA        23.5250  -79.1350  -13.1720 C.3    86  TRP86       0.1605
      3  C         22.5440  -80.2110  -13.6640 C.2    86  TRP86       0.2264
      4  O         22.1820  -81.1430  -12.9350 O.2    86  TRP86      -0.2867
      5  CB        24.6800  -79.7270  -12.3520 C.3    86  TRP86       0.0550
      6  CG        25.4620  -80.8160  -13.0440 C.ar   86  TRP86       0.0003
      7  CD1       25.3910  -81.1810  -14.3580 C.ar   86  TRP86       0.0946
      8  CD2       26.4710  -81.6430  -12.4520 C.ar   86  TRP86       0.0152
      9  NE1       26.2770  -82.1920  -14.6160 N.ar   86  TRP86      -0.2442
     10  CE2       26.9510  -82.5010  -13.4640 C.ar   86  TRP86       0.0810
     11  CE3       27.0140  -81.7450  -11.1580 C.ar   86  TRP86       0.0012
     12  CZ2       27.9470  -83.4570  -13.2280 C.ar   86  TRP86       0.0191
     13  CZ3       27.9960  -82.6980  -10.9220 C.ar   86  TRP86       0.0001
     14  CH2       28.4550  -83.5420  -11.9570 C.ar   86  TRP86       0.0015
     15  N         21.8870  -82.5990  -17.2510 N.3    88  GLU88      -0.1245
     16  CA        22.5110  -83.0280  -18.5110 C.3    88  GLU88       0.1567
     17  C         21.4390  -83.3310  -19.5580 C.2    88  GLU88       0.2260
     18  O         20.3710  -83.8650  -19.2270 O.2    88  GLU88      -0.2867
     19  CB        23.4330  -84.2360  -18.3070 C.3    88  GLU88       0.0388
     20  CG        24.5950  -84.0190  -17.3430 C.3    88  GLU88       0.1160
     21  CD        25.7690  -83.2370  -17.9360 C.2    88  GLU88       0.3649
     22  OE1       25.8640  -83.1080  -19.1730 O.co2  88  GLU88      -0.2457
     23  OE2       26.6180  -82.7510  -17.1540 O.co2  88  GLU88      -0.2457
     24  N         23.3320  -78.3270  -19.1810 N.3   151  TYR151     -0.1241
     25  CA        24.7400  -78.2290  -19.5550 C.3   151  TYR151      0.1605
     26  C         24.9830  -78.8460  -20.9410 C.2   151  TYR151      0.2264
     27  O         25.6550  -79.8720  -21.0660 O.2   151  TYR151     -0.2867
     28  CB        25.6210  -78.9190  -18.5030 C.3   151  TYR151      0.0534
     29  CG        25.8520  -78.1490  -17.2110 C.ar  151  TYR151     -0.0201
     30  CD1       25.5040  -76.8020  -17.0860 C.ar  151  TYR151     -0.0009
     31  CD2       26.4770  -78.7620  -16.1310 C.ar  151  TYR151     -0.0009
     32  CE1       25.7460  -76.1020  -15.9090 C.ar  151  TYR151      0.0417
     33  CE2       26.7290  -78.0740  -14.9500 C.ar  151  TYR151      0.0417
     34  CZ        26.3650  -76.7420  -14.8440 C.ar  151  TYR151      0.1957
     35  OH        26.6110  -76.0610  -13.6700 O.3   151  TYR151     -0.2866
     36  N         36.0170  -87.5970  -25.6340 N.3   165  ARG165     -0.1245
     37  CA        34.6840  -86.9650  -25.6370 C.3   165  ARG165      0.1563
     38  C         34.2440  -86.4130  -26.9930 C.2   165  ARG165      0.2260
     39  O         33.1830  -85.7930  -27.0900 O.2   165  ARG165     -0.2867
     40  CB        34.6030  -85.8410  -24.5930 C.3   165  ARG165      0.0307
     41  CG        34.8930  -86.2720  -23.1640 C.3   165  ARG165      0.0489
     42  CD        34.6710  -85.1400  -22.1790 C.3   165  ARG165      0.2205
     43  NE        33.2670  -84.7460  -22.0970 N.pl3 165  ARG165     -0.0865
     44  CZ        32.8030  -83.7780  -21.3100 C.cat 165  ARG165      0.5346
     45  NH1       33.6380  -83.0880  -20.5420 N.pl3 165  ARG165      0.1354
     46  NH2       31.5020  -83.4870  -21.3060 N.pl3 165  ARG165      0.1354
     47  N         29.0720  -75.2350  -24.3290 N.3   205  LYS205     -0.1231
     48  CA        30.2930  -75.6340  -23.6430 C.3   205  LYS205      0.1693
     49  C         31.2360  -76.3250  -24.6370 C.2   205  LYS205      0.2592
     50  O         30.7660  -76.8450  -25.6400 O.2   205  LYS205     -0.2718
     51  CB        29.9380  -76.5700  -22.4770 C.3   205  LYS205      0.0285
     52  CG        29.3010  -77.8840  -22.9050 C.3   205  LYS205      0.0035
     53  CD        29.0140  -78.7790  -21.7210 C.3   205  LYS205      0.0206
     54  CE        28.7250  -80.1980  -22.1760 C.3   205  LYS205      0.1093
     55  NZ        28.1500  -80.9820  -21.0650 N.3   205  LYS205     -0.1314
     56  N         32.5530  -76.3450  -24.3910 N.am  206  HIS206     -0.1976
     57  CA        33.2060  -75.7700  -23.2160 C.3   206  HIS206      0.1656
     58  C         34.1390  -74.6340  -23.6670 C.2   206  HIS206      0.2291
     59  O         34.9920  -74.8320  -24.5370 O.2   206  HIS206     -0.2864
     60  CB        34.0460  -76.8350  -22.4990 C.3   206  HIS206      0.0771
     61  CG        33.3150  -78.1110  -22.2100 C.ar  206  HIS206      0.0820
     62  ND1       33.0620  -79.0600  -23.1750 N.ar  206  HIS206     -0.2267
     63  CD2       32.8150  -78.6090  -21.0530 C.ar  206  HIS206      0.1154
     64  CE1       32.4250  -80.0830  -22.6290 C.ar  206  HIS206      0.1986
     65  NE2       32.2600  -79.8330  -21.3440 N.ar  206  HIS206     -0.2212
     66  N         43.1860  -82.4530  -18.3970 N.3   220  ARG220     -0.1245
     67  CA        42.4220  -81.2370  -18.7100 C.3   220  ARG220      0.1563
     68  C         42.3540  -80.2670  -17.5120 C.2   220  ARG220      0.2260
     69  O         42.3260  -79.0480  -17.6870 O.2   220  ARG220     -0.2867
     70  CB        41.0020  -81.6220  -19.1480 C.3   220  ARG220      0.0307
     71  CG        40.2920  -82.4790  -18.1170 C.3   220  ARG220      0.0489
     72  CD        38.9780  -83.0700  -18.5900 C.3   220  ARG220      0.2205
     73  NE        38.4020  -83.8880  -17.5330 N.pl3 220  ARG220     -0.0865
     74  CZ        37.1040  -84.1150  -17.3680 C.cat 220  ARG220      0.5346
     75  NH1       36.2040  -83.5920  -18.1980 N.pl3 220  ARG220      0.1354
     76  NH2       36.7080  -84.8780  -16.3640 N.pl3 220  ARG220      0.1354
     77  N         29.2900  -72.3990  -20.4410 N.3   253  MET253     -0.1245
     78  CA        30.1470  -73.0280  -19.4450 C.3   253  MET253      0.1570
     79  C         31.6080  -72.7880  -19.7860 C.2   253  MET253      0.2261
     80  O         32.0480  -73.0730  -20.8950 O.2   253  MET253     -0.2867
     81  CB        29.8730  -74.5280  -19.3600 C.3   253  MET253      0.0387
     82  CG        30.8210  -75.2620  -18.4140 C.3   253  MET253      0.0595
     83  SD        30.6570  -77.0490  -18.4790 S.3   253  MET253     -0.1393
     84  CE        29.1900  -77.2410  -17.4790 C.3   253  MET253      0.0692
     85  N         37.7670  -76.2060  -17.8740 N.3   256  TYR256     -0.1241
     86  CA        38.8360  -76.4870  -16.8920 C.3   256  TYR256      0.1605
     87  C         40.1580  -75.8420  -17.2670 C.2   256  TYR256      0.2264
     88  O         40.9250  -75.4260  -16.4020 O.2   256  TYR256     -0.2867
     89  CB        39.1250  -77.9870  -16.8120 C.3   256  TYR256      0.0534
     90  CG        38.0060  -78.8380  -16.2880 C.ar  256  TYR256     -0.0201
     91  CD1       37.5660  -78.7210  -14.9650 C.ar  256  TYR256     -0.0009
     92  CD2       37.3940  -79.7740  -17.1100 C.ar  256  TYR256     -0.0009
     93  CE1       36.5370  -79.5140  -14.4900 C.ar  256  TYR256      0.0417
     94  CE2       36.3690  -80.5700  -16.6420 C.ar  256  TYR256      0.0417
     95  CZ        35.9430  -80.4470  -15.3370 C.ar  256  TYR256      0.1957
     96  OH        34.9100  -81.2550  -14.8880 O.3   256  TYR256     -0.2866
     97  N         32.6670  -75.3640  -15.3650 N.3   290  ASP290     -0.1225
     98  CA        32.6290  -76.8180  -15.3640 C.3   290  ASP290      0.1805
     99  C         32.8510  -77.3200  -13.9220 C.2   290  ASP290      0.2598
    100  O         33.1840  -76.5350  -13.0280 O.2   290  ASP290     -0.2718
    101  CB        33.6650  -77.3910  -16.3240 C.3   290  ASP290      0.1424
    102  CG        33.2710  -78.7540  -16.8430 C.2   290  ASP290      0.3668
    103  OD1       32.4950  -79.4590  -16.1360 O.co2 290  ASP290     -0.2456
    104  OD2       33.7240  -79.1180  -17.9530 O.co2 290  ASP290     -0.2456
    105  N         32.6820  -78.6230  -13.7090 N.am  291  CYS291     -0.1970
    106  CA        32.7040  -79.1970  -12.3680 C.3   291  CYS291      0.1712
    107  C         34.0540  -79.8440  -12.0010 C.2   291  CYS291      0.2296
    108  O         34.3440  -80.9450  -12.4780 O.2   291  CYS291     -0.2864
    109  CB        31.5860  -80.2440  -12.2570 C.3   291  CYS291      0.0983
    110  SG        30.0320  -79.7870  -13.0750 S.3   291  CYS291     -0.0798
    111  N         26.6090  -89.8960  -20.7170 N.3   428  TYR428     -0.1241
    112  CA        25.5930  -88.9420  -20.2390 C.3   428  TYR428      0.1605
    113  C         24.1570  -89.3580  -20.6070 C.2   428  TYR428      0.2264
    114  O         23.3840  -88.5750  -21.1780 O.2   428  TYR428     -0.2867
    115  CB        25.9190  -87.5280  -20.7320 C.3   428  TYR428      0.0534
    116  CG        27.1740  -86.9980  -20.0920 C.ar  428  TYR428     -0.0201
    117  CD1       27.1350  -86.4490  -18.8130 C.ar  428  TYR428     -0.0009
    118  CD2       28.4100  -87.0700  -20.7490 C.ar  428  TYR428     -0.0009
    119  CE1       28.2840  -85.9700  -18.2050 C.ar  428  TYR428      0.0417
    120  CE2       29.5700  -86.5960  -20.1450 C.ar  428  TYR428      0.0417
    121  CZ        29.4910  -86.0440  -18.8720 C.ar  428  TYR428      0.1957
    122  OH        30.6150  -85.5780  -18.2400 O.3   428  TYR428     -0.2866
    123  N         34.7920  -89.6920  -21.0030 N.3   491  GLU491     -0.1245
    124  CA        35.0960  -88.5130  -20.2120 C.3   491  GLU491      0.1567
    125  C         36.1770  -88.8780  -19.1790 C.2   491  GLU491      0.2260
    126  O         36.0530  -89.8770  -18.4750 O.2   491  GLU491     -0.2867
    127  CB        33.8010  -87.9940  -19.5480 C.3   491  GLU491      0.0388
    128  CG        33.9780  -86.9090  -18.4930 C.3   491  GLU491      0.1160
    129  CD        34.1130  -87.4650  -17.0810 C.2   491  GLU491      0.3649
    130  OE1       33.4550  -88.4890  -16.7760 O.co2 491  GLU491     -0.2457
    131  OE2       34.8670  -86.8800  -16.2670 O.co2 491  GLU491     -0.2457
@<TRIPOS>BOND
     1    39    38    2
     2    38    37    1
     3    50    49    2
     4    37    36    1
     5    37    40    1
     6    49    56   am
     7    49    48    1
     8    40    41    1
     9    59    58    2
    10    56    57    1
    11    47    48    1
    12    58    57    1
    13    48    51    1
    14    57    60    1
    15    62    64   ar
    16    62    61   ar
    17    41    42    1
    18    52    51    1
    19    52    53    1
    20    64    65   ar
    21    60    61    1
    22    61    63   ar
    23    42    43    1
    24    54    53    1
    25    54    55    1
    26    43    44    2
    27    65    63   ar
    28    44    46    1
    29    44    45    1
    30   114   113    2
    31    27    26    2
    32   123   124    1
    33    26    25    1
    34    80    79    2
    35   118   120   ar
    36   118   116   ar
    37   115   112    1
    38   115   116    1
    39   111   112    1
    40   113   112    1
    41    77    78    1
    42   124   127    1
    43   124   125    1
    44   120   121   ar
    45   116   117   ar
    46    79    78    1
    47    17    18    2
    48    17    16    1
    49    25    24    1
    50    25    28    1
    51   127   128    1
    52    78    81    1
    53    81    82    1
    54   125   126    2
    55    22    21   ar
    56    70    67    1
    57    70    71    1
    58   121   122    1
    59   121   119   ar
    60   117   119   ar
    61    67    66    1
    62    67    68    1
    63    72    71    1
    64    72    73    1
    65    16    19    1
    66    16    15    1
    67    28    29    1
    68   128   129    1
    69    83    82    1
    70    83    84    1
    71    19    20    1
    72    75    74    1
    73   104   102   ar
    74    21    20    1
    75    21    23   ar
    76    85    86    1
    77    69    68    2
    78    73    74    2
    79    74    76    1
    80    87    86    1
    81    87    88    2
    82    29    30   ar
    83    29    31   ar
    84    92    94   ar
    85    92    90   ar
    86    30    32   ar
    87   129   130   ar
    88   129   131   ar
    89    86    89    1
    90   102   101    1
    91   102   103   ar
    92    89    90    1
    93    94    95   ar
    94   101    98    1
    95    90    91   ar
    96    31    33   ar
    97    32    34   ar
    98    97    98    1
    99    98    99    1
   100    95    96    1
   101    95    93   ar
   102    91    93   ar
   103    33    34   ar
   104    34    35    1
   105     9     7   ar
   106     9    10   ar
   107     7     6   ar
   108    99   105   am
   109    99   100    2
   110   105   106    1
   111     3     2    1
   112     3     4    2
   113    10    12   ar
   114    10     8   ar
   115    12    14   ar
   116     2     1    1
   117     2     5    1
   118   110   109    1
   119     6     8   ar
   120     6     5    1
   121   108   107    2
   122     8    11   ar
   123   106   109    1
   124   106   107    1
   125    14    13   ar
   126    11    13   ar
