@<TRIPOS>MOLECULE
tmp/5ae8A00.pdb
 203 191 0 0 0
SMALL
GASTEIGER

@<TRIPOS>ATOM
      1  N          6.2080  -28.7050   15.7970 N.3   581  GLN581     -0.1245
      2  CA         5.4290  -29.1260   16.9410 C.3   581  GLN581      0.1566
      3  C          3.9170  -29.1320   16.6420 C.2   581  GLN581      0.2260
      4  O          3.1500  -29.6910   17.4430 O.2   581  GLN581     -0.2867
      5  CB         5.7520  -28.2580   18.1770 C.3   581  GLN581      0.0367
      6  CG         6.9900  -28.6890   18.9680 C.3   581  GLN581      0.0905
      7  CD         6.9540  -28.1640   20.3890 C.2   581  GLN581      0.2608
      8  OE1        7.2500  -26.9940   20.6640 O.2   581  GLN581     -0.2717
      9  NE2        6.6120  -29.0210   21.3380 N.am  581  GLN581     -0.0878
     10  N          0.3130  -30.0860   14.7420 N.3   583  THR583     -0.1218
     11  CA        -0.3340  -31.3180   14.2540 C.3   583  THR583      0.1862
     12  C         -1.8530  -31.1000   14.2100 C.2   583  THR583      0.2287
     13  O         -2.2950  -29.9620   14.1370 O.2   583  THR583     -0.2866
     14  CB         0.1460  -32.5780   15.0470 C.3   583  THR583      0.1770
     15  OG1       -0.4080  -33.7360   14.4340 O.3   583  THR583     -0.2211
     16  CG2       -0.2190  -32.5400   16.5430 C.3   583  THR583      0.0375
     17  N         -5.8320  -33.2810   15.5980 N.3   585  MET585     -0.1245
     18  CA        -6.4330  -34.3960   16.3490 C.3   585  MET585      0.1570
     19  C         -7.1930  -35.2910   15.3820 C.2   585  MET585      0.2261
     20  O         -7.6160  -34.8310   14.3320 O.2   585  MET585     -0.2867
     21  CB        -7.2820  -33.9360   17.5650 C.3   585  MET585      0.0387
     22  CG        -6.7620  -32.6410   18.2490 C.3   585  MET585      0.0595
     23  SD        -7.1710  -32.2940   19.9960 S.3   585  MET585     -0.1393
     24  CE        -8.8940  -32.6550   19.9960 C.3   585  MET585      0.0692
     25  N         -3.6730  -28.4870   16.3680 N.3   593  TRP593     -0.1241
     26  CA        -2.8720  -28.2480   17.5420 C.3   593  TRP593      0.1605
     27  C         -1.7020  -27.3510   17.0620 C.2   593  TRP593      0.2264
     28  O         -0.8660  -27.8020   16.3120 O.2   593  TRP593     -0.2867
     29  CB        -2.3850  -29.6030   18.1030 C.3   593  TRP593      0.0550
     30  CG        -1.5330  -29.4990   19.3430 C.ar  593  TRP593      0.0003
     31  CD1       -0.2080  -29.1520   19.4030 C.ar  593  TRP593      0.0946
     32  CD2       -1.9270  -29.8210   20.6870 C.ar  593  TRP593      0.0152
     33  NE1        0.2210  -29.1620   20.7080 N.ar  593  TRP593     -0.2442
     34  CE2       -0.7810  -29.6710   21.5040 C.ar  593  TRP593      0.0810
     35  CE3       -3.1090  -30.3260   21.2650 C.ar  593  TRP593      0.0012
     36  CZ2       -0.7940  -29.9630   22.8840 C.ar  593  TRP593      0.0191
     37  CZ3       -3.1450  -30.5470   22.6440 C.ar  593  TRP593      0.0001
     38  CH2       -1.9930  -30.3970   23.4330 C.ar  593  TRP593      0.0015
     39  N         -5.6730  -24.6130   20.1770 N.3   610  ILE610     -0.1245
     40  CA        -6.3460  -25.6540   19.3830 C.3   610  ILE610      0.1561
     41  C         -7.3770  -24.9430   18.5260 C.2   610  ILE610      0.2260
     42  O         -8.1840  -24.1770   19.0450 O.2   610  ILE610     -0.2867
     43  CB        -6.9510  -26.8270   20.2140 C.3   610  ILE610      0.0252
     44  CG1       -5.8640  -27.5340   21.0230 C.3   610  ILE610      0.0019
     45  CG2       -7.6970  -27.8390   19.3120 C.3   610  ILE610      0.0019
     46  CD1       -6.3540  -28.0420   22.2970 C.3   610  ILE610      0.0001
     47  N        -10.5650  -25.3260   16.1120 N.3   612  LYS612     -0.1245
     48  CA       -11.6120  -26.3030   15.7910 C.3   612  LYS612      0.1561
     49  C        -12.7120  -25.6110   14.9790 C.2   612  LYS612      0.2260
     50  O        -13.2310  -24.5740   15.3760 O.2   612  LYS612     -0.2867
     51  CB       -12.1650  -26.9740   17.0750 C.3   612  LYS612      0.0271
     52  CG       -12.8960  -28.2890   16.8460 C.3   612  LYS612      0.0035
     53  CD       -13.1700  -29.0350   18.1750 C.3   612  LYS612      0.0206
     54  CE       -13.7500  -30.4130   17.9510 C.3   612  LYS612      0.1093
     55  NZ       -13.3930  -31.3960   19.0270 N.3   612  LYS612     -0.1314
     56  N        -18.8800  -24.4740   19.6860 N.3   617  LEU617     -0.1245
     57  CA       -18.0670  -24.3460   20.9020 C.3   617  LEU617      0.1561
     58  C        -18.6720  -23.4270   22.0080 C.2   617  LEU617      0.2260
     59  O        -18.0520  -23.2830   23.0540 O.2   617  LEU617     -0.2867
     60  CB       -16.6350  -23.9040   20.5480 C.3   617  LEU617      0.0270
     61  CG       -15.6390  -25.0270   20.2220 C.3   617  LEU617      0.0019
     62  CD1      -14.4570  -24.4950   19.4000 C.3   617  LEU617      0.0001
     63  CD2      -15.1050  -25.6880   21.4920 C.3   617  LEU617      0.0001
     64  N        -19.2960  -25.3760   25.3980 N.3   620  ASP620     -0.1239
     65  CA       -18.0040  -25.6520   26.0420 C.3   620  ASP620      0.1674
     66  C        -17.5240  -24.4110   26.8120 C.2   620  ASP620      0.2266
     67  O        -17.0350  -24.5400   27.9230 O.2   620  ASP620     -0.2867
     68  CB       -16.9530  -26.0270   24.9900 C.3   620  ASP620      0.1410
     69  CG       -17.2810  -27.2830   24.2400 C.2   620  ASP620      0.3668
     70  OD1      -18.3560  -27.3230   23.5910 O.co2 620  ASP620     -0.2456
     71  OD2      -16.4630  -28.2270   24.2820 O.co2 620  ASP620     -0.2456
     72  N        -17.2280  -24.0980   30.8430 N.3   624  LEU624     -0.1245
     73  CA       -15.9490  -23.6490   31.3940 C.3   624  LEU624      0.1561
     74  C        -16.0420  -22.3470   32.1670 C.2   624  LEU624      0.2260
     75  O        -15.2930  -22.1910   33.1320 O.2   624  LEU624     -0.2867
     76  CB       -14.8550  -23.5740   30.3120 C.3   624  LEU624      0.0270
     77  CG       -14.3580  -24.9610   29.8080 C.3   624  LEU624      0.0019
     78  CD1      -13.7510  -24.8530   28.3700 C.3   624  LEU624      0.0001
     79  CD2      -13.4370  -25.6500   30.8280 C.3   624  LEU624      0.0001
     80  N         -8.9550  -23.2150   31.7870 N.3   646  TYR646     -0.1241
     81  CA        -8.3320  -22.9260   30.4850 C.3   646  TYR646      0.1605
     82  C         -9.2760  -22.2110   29.5040 C.2   646  TYR646      0.2264
     83  O        -10.4880  -22.4180   29.5330 O.2   646  TYR646     -0.2867
     84  CB        -7.7230  -24.2080   29.8730 C.3   646  TYR646      0.0534
     85  CG        -8.7610  -25.2720   29.5700 C.ar  646  TYR646     -0.0201
     86  CD1       -9.4090  -25.3100   28.3390 C.ar  646  TYR646     -0.0009
     87  CD2       -9.0870  -26.2480   30.5060 C.ar  646  TYR646     -0.0009
     88  CE1      -10.3440  -26.2850   28.0430 C.ar  646  TYR646      0.0417
     89  CE2      -10.0230  -27.2480   30.2080 C.ar  646  TYR646      0.0417
     90  CZ       -10.6500  -27.2530   28.9740 C.ar  646  TYR646      0.1957
     91  OH       -11.6300  -28.1550   28.6430 O.3   646  TYR646     -0.2866
     92  N        -11.3880  -21.0210   26.2400 N.3   648  CYS648     -0.1235
     93  CA       -12.2690  -21.5170   25.1970 C.3   648  CYS648      0.1677
     94  C        -13.0080  -20.3400   24.6440 C.2   648  CYS648      0.2270
     95  O        -13.7020  -19.6650   25.3930 O.2   648  CYS648     -0.2867
     96  CB       -13.2290  -22.5840   25.6880 C.3   648  CYS648      0.0956
     97  SG       -14.2270  -23.3230   24.3670 S.3   648  CYS648     -0.0801
     98  N         -9.3690  -23.2480   21.5680 N.3   658  ILE658     -0.1231
     99  CA        -9.2720  -23.8790   22.8860 C.3   658  ILE658      0.1692
    100  C         -7.8190  -23.7000   23.3510 C.2   658  ILE658      0.2592
    101  O         -6.8980  -23.7540   22.5300 O.2   658  ILE658     -0.2718
    102  CB        -9.8320  -25.3560   22.9710 C.3   658  ILE658      0.0266
    103  CG1      -11.1730  -25.5010   22.1930 C.3   658  ILE658      0.0019
    104  CG2      -10.0900  -25.7310   24.4580 C.3   658  ILE658      0.0020
    105  CD1      -11.2310  -26.5150   21.1940 C.3   658  ILE658      0.0001
    106  N         -7.6090  -23.4480   24.6470 N.am  659  GLU659     -0.1966
    107  CA        -6.2580  -23.2980   25.1690 C.3   659  GLU659      0.1733
    108  C         -5.6310  -24.6290   25.3600 C.2   659  GLU659      0.2616
    109  O         -6.2990  -25.5460   25.8280 O.2   659  GLU659     -0.2715
    110  CB        -6.2310  -22.4950   26.4720 C.3   659  GLU659      0.0429
    111  CG        -4.8470  -22.0670   26.9250 C.3   659  GLU659      0.1163
    112  CD        -4.7720  -21.5560   28.3490 C.2   659  GLU659      0.3649
    113  OE1       -5.8470  -21.3560   28.9500 O.co2 659  GLU659     -0.2457
    114  OE2       -3.6510  -21.3110   28.8540 O.co2 659  GLU659     -0.2457
    115  N         -4.3660  -24.7620   24.9140 N.am  660  VAL660     -0.1963
    116  CA        -3.5630  -25.9660   25.1160 C.3   660  VAL660      0.1727
    117  C         -3.0210  -25.9410   26.5510 C.2   660  VAL660      0.2616
    118  O         -2.3770  -24.9690   26.9760 O.2   660  VAL660     -0.2715
    119  CB        -2.3980  -26.1760   24.0880 C.3   660  VAL660      0.0290
    120  CG1       -1.3360  -27.1160   24.6520 C.3   660  VAL660      0.0023
    121  CG2       -2.9040  -26.7130   22.7660 C.3   660  VAL660      0.0023
    122  N         -3.2910  -27.0170   27.2760 N.am  661  VAL661     -0.1977
    123  CA        -2.7390  -27.2360   28.6060 C.3   661  VAL661      0.1596
    124  C         -1.6240  -28.2770   28.3930 C.2   661  VAL661      0.2287
    125  O         -1.8910  -29.4190   27.9970 O.2   661  VAL661     -0.2864
    126  CB        -3.8080  -27.6940   29.6260 C.3   661  VAL661      0.0276
    127  CG1       -3.1790  -27.9760   30.9840 C.3   661  VAL661      0.0022
    128  CG2       -4.9190  -26.6610   29.7410 C.3   661  VAL661      0.0022
    129  N         -0.0340  -32.4770   30.1910 N.3   664  SER664     -0.1202
    130  CA        -1.2860  -33.1250   30.5020 C.3   664  SER664      0.2020
    131  C         -1.5730  -34.1210   29.4150 C.2   664  SER664      0.2619
    132  O         -1.2920  -33.8620   28.2300 O.2   664  SER664     -0.2717
    133  CB        -2.4220  -32.1030   30.5710 C.3   664  SER664      0.2103
    134  OG        -2.8560  -31.7350   29.2710 O.3   664  SER664     -0.2182
    135  N         -2.1310  -35.2650   29.8170 N.am  665  ASP665     -0.1959
    136  CA        -2.5340  -36.2770   28.8600 C.3   665  ASP665      0.1840
    137  C         -3.9200  -36.7420   29.3050 C.2   665  ASP665      0.2622
    138  O         -4.3740  -36.3470   30.3980 O.2   665  ASP665     -0.2715
    139  CB        -1.4970  -37.4260   28.7740 C.3   665  ASP665      0.1450
    140  CG        -1.3040  -37.9820   27.3620 C.2   665  ASP665      0.3671
    141  OD1       -2.1350  -37.6730   26.4790 O.co2 665  ASP665     -0.2456
    142  OD2       -0.3470  -38.7610   27.1500 O.co2 665  ASP665     -0.2456
    143  N         -4.6200  -37.5110   28.4380 N.am  666  THR666     -0.1951
    144  CA        -5.9440  -38.0370   28.7580 C.3   666  THR666      0.1897
    145  C         -5.7890  -39.3000   29.5940 C.2   666  THR666      0.2313
    146  O         -4.8210  -40.0540   29.3880 O.2   666  THR666     -0.2863
    147  CB        -6.7850  -38.3520   27.4950 C.3   666  THR666      0.1794
    148  OG1       -6.0260  -39.1470   26.6000 O.3   666  THR666     -0.2208
    149  CG2       -7.2940  -37.1210   26.7810 C.3   666  THR666      0.0378
    150  N         -5.2210  -42.2610   27.3310 N.3   669  ASN669     -0.1240
    151  CA        -3.8420  -42.4410   26.8460 C.3   669  ASN669      0.1653
    152  C         -2.9230  -43.0410   27.8660 C.2   669  ASN669      0.2266
    153  O         -2.1760  -43.9420   27.5300 O.2   669  ASN669     -0.2867
    154  CB        -3.2600  -41.1550   26.2890 C.3   669  ASN669      0.1155
    155  CG        -3.9180  -40.7540   25.0170 C.2   669  ASN669      0.2627
    156  OD1       -4.4990  -41.5850   24.3020 O.2   669  ASN669     -0.2716
    157  ND2       -3.8710  -39.4680   24.7220 N.am  669  ASN669     -0.0877
    158  N         -8.7690  -35.3810   31.5900 N.3   733  MET733     -0.1245
    159  CA        -7.3440  -35.1540   31.5430 C.3   733  MET733      0.1570
    160  C         -6.7010  -34.9810   32.9450 C.2   733  MET733      0.2261
    161  O         -7.2920  -34.4490   33.8860 O.2   733  MET733     -0.2867
    162  CB        -7.0480  -33.9550   30.6470 C.3   733  MET733      0.0387
    163  CG        -7.4780  -34.1880   29.2030 C.3   733  MET733      0.0595
    164  SD        -6.5440  -33.2720   27.9790 S.3   733  MET733     -0.1393
    165  CE        -5.0620  -34.0060   28.1450 C.3   733  MET733      0.0692
    166  N         -8.7940  -32.4480   35.1410 N.3   741  PHE741     -0.1241
    167  CA        -9.6940  -31.4670   34.5120 C.3   741  PHE741      0.1605
    168  C        -10.4630  -32.1050   33.3160 C.2   741  PHE741      0.2264
    169  O        -10.1480  -33.2260   32.8820 O.2   741  PHE741     -0.2867
    170  CB        -8.9780  -30.1150   34.1610 C.3   741  PHE741      0.0534
    171  CG        -7.9840  -30.2230   33.0430 C.ar  741  PHE741     -0.0203
    172  CD1       -6.7180  -30.7560   33.2650 C.ar  741  PHE741     -0.0042
    173  CD2       -8.3450  -29.9010   31.7400 C.ar  741  PHE741     -0.0042
    174  CE1       -5.8250  -30.9390   32.2090 C.ar  741  PHE741     -0.0003
    175  CE2       -7.4380  -30.0320   30.6960 C.ar  741  PHE741     -0.0003
    176  CZ        -6.1850  -30.5550   30.9320 C.ar  741  PHE741     -0.0000
    177  N        -12.4130  -31.9770   29.3920 N.3   743  ILE743     -0.1231
    178  CA       -12.3950  -31.4350   28.0320 C.3   743  ILE743      0.1692
    179  C        -13.6440  -31.8810   27.2970 C.2   743  ILE743      0.2592
    180  O        -14.4170  -32.6710   27.8520 O.2   743  ILE743     -0.2718
    181  CB       -11.0530  -31.7750   27.2960 C.3   743  ILE743      0.0266
    182  CG1      -10.7570  -33.2970   27.2880 C.3   743  ILE743      0.0019
    183  CG2       -9.8590  -30.9650   27.8980 C.3   743  ILE743      0.0020
    184  CD1      -10.1120  -33.8190   26.0170 C.3   743  ILE743      0.0001
    185  N        -13.8510  -31.3500   26.0680 N.am  744  ASP744     -0.1960
    186  CA       -14.8960  -31.7140   25.0910 C.3   744  ASP744      0.1840
    187  C        -16.2570  -31.9190   25.6940 C.2   744  ASP744      0.2622
    188  O        -16.6560  -33.0530   25.9810 O.2   744  ASP744     -0.2715
    189  CB       -14.4590  -32.9540   24.2920 C.3   744  ASP744      0.1450
    190  CG       -15.2110  -33.2250   23.0030 C.2   744  ASP744      0.3671
    191  OD1      -16.1740  -32.4830   22.6980 O.co2 744  ASP744     -0.2456
    192  OD2      -14.8260  -34.1690   22.2860 O.co2 744  ASP744     -0.2456
    193  N        -16.9770  -30.8080   25.8540 N.am  745  PHE745     -0.1974
    194  CA       -18.2730  -30.7560   26.5120 C.3   745  PHE745      0.1639
    195  C        -19.4500  -30.7910   25.5730 C.2   745  PHE745      0.2290
    196  O        -19.8730  -29.7550   25.0770 O.2   745  PHE745     -0.2864
    197  CB       -18.3480  -29.4970   27.3830 C.3   745  PHE745      0.0560
    198  CG       -17.2930  -29.4250   28.4510 C.ar  745  PHE745     -0.0200
    199  CD1      -17.4110  -30.1760   29.6170 C.ar  745  PHE745     -0.0042
    200  CD2      -16.1730  -28.6190   28.2880 C.ar  745  PHE745     -0.0042
    201  CE1      -16.4500  -30.0810   30.6210 C.ar  745  PHE745     -0.0003
    202  CE2      -15.1930  -28.5580   29.2720 C.ar  745  PHE745     -0.0003
    203  CZ       -15.3460  -29.2760   30.4400 C.ar  745  PHE745     -0.0000
@<TRIPOS>BOND
     1    13    12    2
     2    12    11    1
     3    11    10    1
     4    11    14    1
     5    20    19    2
     6    15    14    1
     7    49    50    2
     8    49    48    1
     9    14    16    1
    10    19    18    1
    11    17    18    1
    12    48    47    1
    13    48    51    1
    14     1     2    1
    15    28    27    2
    16    18    21    1
    17    25    26    1
    18     3     2    1
    19     3     4    2
    20    52    51    1
    21    52    53    1
    22     2     5    1
    23    27    26    1
    24    26    29    1
    25    21    22    1
    26    54    53    1
    27    54    55    1
    28    29    30    1
    29     5     6    1
    30    22    23    1
    31    41    42    2
    32    41    40    1
    33     6     7    1
    34    45    43    1
    35    30    31   ar
    36    30    32   ar
    37    40    39    1
    38    40    43    1
    39    62    61    1
    40    31    33   ar
    41    56    57    1
    42    23    24    1
    43    43    44    1
    44    61    60    1
    45    61    63    1
    46     7     8    2
    47     7     9   am
    48    60    57    1
    49    32    35   ar
    50    32    34   ar
    51    33    34   ar
    52    57    58    1
    53    44    46    1
    54   105   103    1
    55    35    37   ar
    56    34    36   ar
    57    98    99    1
    58    58    59    2
    59   103   102    1
    60   192   190   ar
    61   101   100    2
    62    37    38   ar
    63   191   190   ar
    64   121   119    1
    65    36    38   ar
    66    99   102    1
    67    99   100    1
    68   102   104    1
    69   190   189    1
    70   100   106   am
    71    70    69   ar
    72   119   120    1
    73   119   116    1
    74    69    71   ar
    75    69    68    1
    76   189   186    1
    77   156   155    2
    78    97    96    1
    79    94    93    1
    80    94    95    2
    81   106   107    1
    82   157   155   am
    83   115   116    1
    84   115   108   am
    85    68    65    1
    86   155   154    1
    87   196   195    2
    88   186   187    1
    89   186   185    1
    90   116   117    1
    91   107   108    1
    92   107   110    1
    93    93    96    1
    94    93    92    1
    95   108   109    2
    96    64    65    1
    97   195   194    1
    98   187   193   am
    99   187   188    2
   100   193   194    1
   101   184   182    1
   102    65    66    1
   103   185   179   am
   104   154   151    1
   105   110   111    1
   106   141   140   ar
   107   194   197    1
   108   117   118    2
   109   117   122   am
   110   148   147    1
   111   149   147    1
   112    66    67    2
   113   151   150    1
   114   151   152    1
   115   111   112    1
   116   142   140   ar
   117   122   123    1
   118   182   181    1
   119   181   183    1
   120   181   178    1
   121   179   180    2
   122   179   178    1
   123   140   139    1
   124   197   198    1
   125   147   144    1
   126   153   152    2
   127   164   165    1
   128   164   163    1
   129   125   124    2
   130   178   177    1
   131    88    86   ar
   132    88    90   ar
   133   132   131    2
   134   200   198   ar
   135   200   202   ar
   136    86    85   ar
   137   112   114   ar
   138   112   113   ar
   139    78    77    1
   140   124   123    1
   141   143   144    1
   142   143   137   am
   143   198   199   ar
   144   123   126    1
   145    91    90    1
   146   144   145    1
   147   139   136    1
   148   136   137    1
   149   136   135    1
   150    90    89   ar
   151   163   162    1
   152   134   133    1
   153   202   203   ar
   154   137   138    2
   155   146   145    2
   156   131   135   am
   157   131   130    1
   158    82    83    2
   159    82    81    1
   160    85    84    1
   161    85    87   ar
   162   199   201   ar
   163   126   128    1
   164   126   127    1
   165    77    76    1
   166    77    79    1
   167    84    81    1
   168   129   130    1
   169    89    87   ar
   170    76    73    1
   171   203   201   ar
   172    81    80    1
   173   130   133    1
   174   162   159    1
   175   175   176   ar
   176   175   173   ar
   177    72    73    1
   178   176   174   ar
   179    73    74    1
   180   159   158    1
   181   159   160    1
   182   173   171   ar
   183    74    75    2
   184   174   172   ar
   185   169   168    2
   186   160   161    2
   187   171   172   ar
   188   171   170    1
   189   168   167    1
   190   170   167    1
   191   167   166    1
