@<TRIPOS>MOLECULE
tmp/5ae9A00.pdb
 207 196 0 0 0
SMALL
GASTEIGER

@<TRIPOS>ATOM
      1  N          0.3230  -29.9040   14.8300 N.3   585  THR585     -0.1203
      2  CA        -0.2540  -31.1210   14.2780 C.3   585  THR585      0.1994
      3  C         -1.7820  -30.9020   14.1570 C.2   585  THR585      0.2618
      4  O         -2.2350  -29.7440   14.0700 O.2   585  THR585     -0.2717
      5  CB         0.2380  -32.3570   15.0680 C.3   585  THR585      0.1784
      6  OG1       -0.3250  -33.5180   14.4820 O.3   585  THR585     -0.2211
      7  CG2       -0.1080  -32.3140   16.5460 C.3   585  THR585      0.0376
      8  N         -2.5570  -31.9970   14.1600 N.am  586  PHE586     -0.1961
      9  CA        -4.0060  -31.9770   14.1420 C.3   586  PHE586      0.1771
     10  C         -4.5340  -33.1580   14.9470 C.2   586  PHE586      0.2619
     11  O         -3.8720  -34.2060   14.9800 O.2   586  PHE586     -0.2715
     12  CB        -4.5720  -31.9970   12.6940 C.3   586  PHE586      0.0574
     13  CG        -4.3750  -33.2590   11.9000 C.ar  586  PHE586     -0.0200
     14  CD1       -5.2830  -34.3100   11.9940 C.ar  586  PHE586     -0.0042
     15  CD2       -3.3170  -33.3750   10.9980 C.ar  586  PHE586     -0.0042
     16  CE1       -5.1140  -35.4690   11.2230 C.ar  586  PHE586     -0.0003
     17  CE2       -3.1460  -34.5350   10.2400 C.ar  586  PHE586     -0.0003
     18  CZ        -4.0590  -35.5620   10.3390 C.ar  586  PHE586     -0.0000
     19  N         -5.7490  -33.0270   15.5100 N.am  587  MET587     -0.1977
     20  CA        -6.3910  -34.1230   16.2600 C.3   587  MET587      0.1605
     21  C         -7.1290  -35.0320   15.3270 C.2   587  MET587      0.2287
     22  O         -7.5690  -34.5670   14.2890 O.2   587  MET587     -0.2864
     23  CB        -7.3380  -33.5840   17.3170 C.3   587  MET587      0.0413
     24  CG        -6.7040  -32.5240   18.1330 C.3   587  MET587      0.0598
     25  SD        -5.5550  -33.2490   19.3090 S.3   587  MET587     -0.1393
     26  CE        -6.3310  -32.6650   20.8260 C.3   587  MET587      0.0692
     27  N        -10.1340  -36.4740   15.5190 N.3   589  SER589     -0.1217
     28  CA       -11.5960  -36.4820   15.6230 C.3   589  SER589      0.1889
     29  C        -12.2530  -35.9800   14.3420 C.2   589  SER589      0.2288
     30  O        -11.5550  -35.4830   13.4590 O.2   589  SER589     -0.2866
     31  CB       -12.0670  -35.6870   16.8370 C.3   589  SER589      0.2089
     32  OG       -11.4150  -34.4300   16.9180 O.3   589  SER589     -0.2183
     33  N         -9.3690  -30.9820   14.4690 N.3   593  PRO593     -0.2116
     34  CA        -8.8530  -29.6700   14.9010 C.3   593  PRO593      0.1372
     35  C         -7.3330  -29.4920   14.8650 C.2   593  PRO593      0.2244
     36  O         -6.5540  -30.4410   14.9950 O.2   593  PRO593     -0.2868
     37  CB        -9.4240  -29.4990   16.3350 C.3   593  PRO593      0.0268
     38  CG        -9.7710  -30.8780   16.7940 C.3   593  PRO593      0.0207
     39  CD       -10.1960  -31.5940   15.5390 C.3   593  PRO593      0.0892
     40  N         -3.7150  -28.1850   16.2130 N.3   595  TRP595     -0.1241
     41  CA        -2.9270  -28.0250   17.4030 C.3   595  TRP595      0.1605
     42  C         -1.7700  -27.1220   16.9700 C.2   595  TRP595      0.2264
     43  O         -0.9400  -27.5460   16.1710 O.2   595  TRP595     -0.2867
     44  CB        -2.4480  -29.4190   17.8550 C.3   595  TRP595      0.0550
     45  CG        -1.5570  -29.4150   19.0550 C.ar  595  TRP595      0.0003
     46  CD1       -0.1930  -29.2840   19.0700 C.ar  595  TRP595      0.0946
     47  CD2       -1.9480  -29.7100   20.3940 C.ar  595  TRP595      0.0152
     48  NE1        0.2750  -29.3820   20.3610 N.ar  595  TRP595     -0.2442
     49  CE2       -0.7770  -29.6960   21.1880 C.ar  595  TRP595      0.0810
     50  CE3       -3.1770  -30.0420   21.0020 C.ar  595  TRP595      0.0012
     51  CZ2       -0.8080  -29.9510   22.5610 C.ar  595  TRP595      0.0191
     52  CZ3       -3.2080  -30.2410   22.3710 C.ar  595  TRP595      0.0001
     53  CH2       -2.0360  -30.1880   23.1330 C.ar  595  TRP595      0.0015
     54  N         -5.7510  -24.2980   20.0180 N.3   612  ILE612     -0.1245
     55  CA        -6.3670  -25.3060   19.1590 C.3   612  ILE612      0.1561
     56  C         -7.4180  -24.5840   18.3640 C.2   612  ILE612      0.2260
     57  O         -8.2260  -23.8840   18.9480 O.2   612  ILE612     -0.2867
     58  CB        -6.9400  -26.5370   19.9580 C.3   612  ILE612      0.0252
     59  CG1       -5.8200  -27.3670   20.6260 C.3   612  ILE612      0.0019
     60  CG2       -7.8920  -27.4350   19.1410 C.3   612  ILE612      0.0019
     61  CD1       -6.2770  -27.9550   22.0490 C.3   612  ILE612      0.0001
     62  N        -10.6470  -25.1560   16.0600 N.3   614  LYS614     -0.1245
     63  CA       -11.6460  -26.1740   15.7580 C.3   614  LYS614      0.1561
     64  C        -12.8280  -25.5730   14.9830 C.2   614  LYS614      0.2260
     65  O        -13.5410  -24.6930   15.4840 O.2   614  LYS614     -0.2867
     66  CB       -12.1090  -26.8980   17.0440 C.3   614  LYS614      0.0271
     67  CG       -13.0220  -28.0840   16.7650 C.3   614  LYS614      0.0035
     68  CD       -13.3940  -28.8350   18.0260 C.3   614  LYS614      0.0206
     69  CE       -14.2370  -30.0230   17.6470 C.3   614  LYS614      0.1093
     70  NZ       -14.6520  -30.7750   18.8480 N.3   614  LYS614     -0.1314
     71  N        -19.2010  -23.9130   19.4890 N.3   619  LEU619     -0.1245
     72  CA       -18.3730  -23.9430   20.6950 C.3   619  LEU619      0.1561
     73  C        -18.9130  -23.1410   21.8820 C.2   619  LEU619      0.2260
     74  O        -18.3830  -23.2920   22.9750 O.2   619  LEU619     -0.2867
     75  CB       -16.9150  -23.5240   20.3900 C.3   619  LEU619      0.0270
     76  CG       -16.0950  -24.4740   19.4720 C.3   619  LEU619      0.0019
     77  CD1      -14.6540  -23.9880   19.3170 C.3   619  LEU619      0.0001
     78  CD2      -16.1120  -25.9510   19.9850 C.3   619  LEU619      0.0001
     79  N        -19.6300  -25.0100   25.2620 N.3   622  ASP622     -0.1239
     80  CA       -18.3770  -25.3680   25.9160 C.3   622  ASP622      0.1674
     81  C        -17.9130  -24.1800   26.7210 C.2   622  ASP622      0.2266
     82  O        -17.6220  -24.3350   27.8990 O.2   622  ASP622     -0.2867
     83  CB       -17.3160  -25.7360   24.8820 C.3   622  ASP622      0.1410
     84  CG       -17.2780  -27.2060   24.6570 C.2   622  ASP622      0.3668
     85  OD1      -18.0670  -27.6920   23.8420 O.co2 622  ASP622     -0.2456
     86  OD2      -16.5070  -27.8850   25.3480 O.co2 622  ASP622     -0.2456
     87  N         -9.3160  -23.7910   31.4620 N.3   648  TYR648     -0.1241
     88  CA        -8.6470  -23.4630   30.2100 C.3   648  TYR648      0.1605
     89  C         -9.5710  -22.6710   29.2470 C.2   648  TYR648      0.2264
     90  O        -10.7970  -22.7180   29.3690 O.2   648  TYR648     -0.2867
     91  CB        -8.0470  -24.7450   29.5840 C.3   648  TYR648      0.0534
     92  CG        -9.1120  -25.7150   29.1090 C.ar  648  TYR648     -0.0201
     93  CD1       -9.7310  -25.5490   27.8670 C.ar  648  TYR648     -0.0009
     94  CD2       -9.4970  -26.7960   29.8920 C.ar  648  TYR648     -0.0009
     95  CE1      -10.7320  -26.4050   27.4420 C.ar  648  TYR648      0.0417
     96  CE2      -10.4910  -27.6760   29.4610 C.ar  648  TYR648      0.0417
     97  CZ       -11.1230  -27.4580   28.2440 C.ar  648  TYR648      0.1957
     98  OH       -12.1500  -28.2570   27.8110 O.3   648  TYR648     -0.2866
     99  N        -11.5950  -21.2090   25.9320 N.3   650  CYS650     -0.1235
    100  CA       -12.4620  -21.6520   24.8440 C.3   650  CYS650      0.1677
    101  C        -13.2570  -20.4800   24.4110 C.2   650  CYS650      0.2270
    102  O        -14.0090  -19.9300   25.2060 O.2   650  CYS650     -0.2867
    103  CB       -13.3570  -22.8290   25.2080 C.3   650  CYS650      0.0956
    104  SG       -14.4750  -23.3380   23.8630 S.3   650  CYS650     -0.0801
    105  N         -9.5030  -23.2040   21.4540 N.3   660  ILE660     -0.1231
    106  CA        -9.4400  -23.9460   22.6980 C.3   660  ILE660      0.1692
    107  C         -7.9910  -23.8280   23.1520 C.2   660  ILE660      0.2592
    108  O         -7.0790  -23.8920   22.3130 O.2   660  ILE660     -0.2718
    109  CB        -9.9320  -25.4310   22.5660 C.3   660  ILE660      0.0266
    110  CG1      -11.3450  -25.5090   21.9200 C.3   660  ILE660      0.0019
    111  CG2       -9.9550  -26.1070   23.9340 C.3   660  ILE660      0.0020
    112  CD1      -11.4830  -26.4930   20.8640 C.3   660  ILE660      0.0001
    113  N         -7.7750  -23.6350   24.4670 N.am  661  GLU661     -0.1966
    114  CA        -6.4220  -23.4690   24.9910 C.3   661  GLU661      0.1733
    115  C         -5.7420  -24.7720   25.2090 C.2   661  GLU661      0.2616
    116  O         -6.3500  -25.7190   25.7150 O.2   661  GLU661     -0.2715
    117  CB        -6.4400  -22.6270   26.2560 C.3   661  GLU661      0.0429
    118  CG        -5.0940  -22.0840   26.7160 C.3   661  GLU661      0.1163
    119  CD        -5.1000  -21.6070   28.1570 C.2   661  GLU661      0.3649
    120  OE1       -6.2010  -21.4540   28.7270 O.co2 661  GLU661     -0.2457
    121  OE2       -4.0060  -21.3550   28.7100 O.co2 661  GLU661     -0.2457
    122  N         -4.4750  -24.8420   24.7860 N.am  662  VAL662     -0.1963
    123  CA        -3.6490  -26.0470   24.9800 C.3   662  VAL662      0.1727
    124  C         -3.1450  -26.0500   26.4450 C.2   662  VAL662      0.2616
    125  O         -2.6210  -25.0490   26.9110 O.2   662  VAL662     -0.2715
    126  CB        -2.4540  -26.0940   23.9900 C.3   662  VAL662      0.0290
    127  CG1       -1.3270  -26.9620   24.5190 C.3   662  VAL662      0.0023
    128  CG2       -2.8810  -26.5410   22.6070 C.3   662  VAL662      0.0023
    129  N         -3.3390  -27.1470   27.1470 N.am  663  VAL663     -0.1977
    130  CA        -2.7780  -27.3500   28.4750 C.3   663  VAL663      0.1596
    131  C         -1.6070  -28.2870   28.1770 C.2   663  VAL663      0.2287
    132  O         -1.8210  -29.4080   27.6920 O.2   663  VAL663     -0.2864
    133  CB        -3.7820  -27.9450   29.5120 C.3   663  VAL663      0.0276
    134  CG1       -3.1320  -28.1500   30.8710 C.3   663  VAL663      0.0022
    135  CG2       -5.0080  -27.0620   29.6470 C.3   663  VAL663      0.0022
    136  N         -0.1650  -32.6510   29.7790 N.3   666  SER666     -0.1202
    137  CA        -1.4130  -33.3080   30.0960 C.3   666  SER666      0.2020
    138  C         -1.7000  -34.2960   29.0190 C.2   666  SER666      0.2619
    139  O         -1.2220  -34.1590   27.8790 O.2   666  SER666     -0.2717
    140  CB        -2.5630  -32.3010   30.2560 C.3   666  SER666      0.2103
    141  OG        -2.9070  -31.6500   29.0440 O.3   666  SER666     -0.2182
    142  N         -2.4150  -35.3420   29.4060 N.am  667  ASP667     -0.1959
    143  CA        -2.8760  -36.3630   28.4880 C.3   667  ASP667      0.1840
    144  C         -4.2340  -36.7850   29.0140 C.2   667  ASP667      0.2622
    145  O         -4.5920  -36.4000   30.1400 O.2   667  ASP667     -0.2715
    146  CB        -1.8940  -37.5390   28.3810 C.3   667  ASP667      0.1450
    147  CG        -1.8300  -38.1100   26.9780 C.2   667  ASP667      0.3671
    148  OD1       -2.5430  -37.5920   26.0960 O.co2 667  ASP667     -0.2456
    149  OD2       -1.0480  -39.0570   26.7580 O.co2 667  ASP667     -0.2456
    150  N         -5.0250  -37.4700   28.1700 N.am  668  THR668     -0.1951
    151  CA        -6.3470  -37.9810   28.5380 C.3   668  THR668      0.1897
    152  C         -6.1300  -39.2430   29.3740 C.2   668  THR668      0.2313
    153  O         -5.1040  -39.9200   29.1880 O.2   668  THR668     -0.2863
    154  CB        -7.2400  -38.2810   27.2850 C.3   668  THR668      0.1794
    155  OG1       -6.7400  -39.4010   26.5780 O.3   668  THR668     -0.2208
    156  CG2       -7.3820  -37.1040   26.3300 C.3   668  THR668      0.0378
    157  N         -5.5430  -42.3890   27.0630 N.3   671  ASN671     -0.1240
    158  CA        -4.1660  -42.5200   26.5730 C.3   671  ASN671      0.1653
    159  C         -3.2430  -43.1190   27.6240 C.2   671  ASN671      0.2266
    160  O         -2.5410  -44.0670   27.3350 O.2   671  ASN671     -0.2867
    161  CB        -3.6450  -41.1860   26.0370 C.3   671  ASN671      0.1155
    162  CG        -4.3560  -40.7410   24.7910 C.2   671  ASN671      0.2627
    163  OD1       -4.9640  -41.5390   24.0800 O.2   671  ASN671     -0.2716
    164  ND2       -4.2850  -39.4620   24.4790 N.am  671  ASN671     -0.0877
    165  N        -11.8090  -40.5530   27.4810 N.3   732  ASP732     -0.1239
    166  CA       -11.3590  -39.7400   26.3500 C.3   732  ASP732      0.1674
    167  C        -11.6100  -38.2200   26.5370 C.2   732  ASP732      0.2266
    168  O        -10.9750  -37.4020   25.8530 O.2   732  ASP732     -0.2867
    169  CB       -12.0130  -40.2380   25.0380 C.3   732  ASP732      0.1410
    170  CG       -11.3080  -41.4210   24.4200 C.2   732  ASP732      0.3668
    171  OD1      -11.4770  -42.5490   24.9340 O.co2 732  ASP732     -0.2456
    172  OD2      -10.5960  -41.2270   23.4190 O.co2 732  ASP732     -0.2456
    173  N         -9.0470  -35.4840   31.3770 N.3   735  MET735     -0.1245
    174  CA        -7.6030  -35.3150   31.3060 C.3   735  MET735      0.1570
    175  C         -6.9300  -35.1820   32.6720 C.2   735  MET735      0.2261
    176  O         -7.5380  -34.7910   33.6870 O.2   735  MET735     -0.2867
    177  CB        -7.2530  -34.1110   30.4130 C.3   735  MET735      0.0387
    178  CG        -7.6220  -34.3420   28.9260 C.3   735  MET735      0.0595
    179  SD        -6.8130  -33.2410   27.7390 S.3   735  MET735     -0.1393
    180  CE        -5.1410  -33.7780   27.8420 C.3   735  MET735      0.0692
    181  N         -8.9140  -32.6280   34.9940 N.3   743  PHE743     -0.1241
    182  CA        -9.8250  -31.6650   34.3750 C.3   743  PHE743      0.1605
    183  C        -10.6170  -32.2980   33.2060 C.2   743  PHE743      0.2264
    184  O        -10.2090  -33.3210   32.6950 O.2   743  PHE743     -0.2867
    185  CB        -9.1120  -30.3810   33.9760 C.3   743  PHE743      0.0534
    186  CG        -8.1750  -30.4550   32.7990 C.ar  743  PHE743     -0.0203
    187  CD1       -6.8680  -30.9050   32.9550 C.ar  743  PHE743     -0.0042
    188  CD2       -8.5750  -30.0150   31.5460 C.ar  743  PHE743     -0.0042
    189  CE1       -5.9990  -30.9570   31.8800 C.ar  743  PHE743     -0.0003
    190  CE2       -7.6920  -30.0350   30.4700 C.ar  743  PHE743     -0.0003
    191  CZ        -6.4050  -30.5080   30.6440 C.ar  743  PHE743     -0.0000
    192  N        -12.7520  -32.0490   29.3900 N.3   745  ILE745     -0.1231
    193  CA       -12.7430  -31.4070   28.0830 C.3   745  ILE745      0.1692
    194  C        -13.9940  -31.7590   27.3310 C.2   745  ILE745      0.2592
    195  O        -14.7240  -32.6550   27.7490 O.2   745  ILE745     -0.2718
    196  CB       -11.4420  -31.7170   27.2750 C.3   745  ILE745      0.0266
    197  CG1      -11.2130  -33.2430   27.0530 C.3   745  ILE745      0.0019
    198  CG2      -10.2000  -31.0440   27.9050 C.3   745  ILE745      0.0020
    199  CD1      -10.5090  -33.6100   25.7850 C.3   745  ILE745      0.0001
    200  N        -14.2210  -31.0870   26.1920 N.am  746  ASP746     -0.1974
    201  CA       -15.3030  -31.2930   25.2350 C.3   746  ASP746      0.1709
    202  C        -16.6740  -31.4740   25.8910 C.2   746  ASP746      0.2293
    203  O        -17.1320  -32.6020   26.0470 O.2   746  ASP746     -0.2864
    204  CB       -14.9480  -32.4660   24.2980 C.3   746  ASP746      0.1436
    205  CG       -15.9130  -32.7150   23.1510 C.2   746  ASP746      0.3671
    206  OD1      -16.6670  -31.8100   22.8070 O.co2 746  ASP746     -0.2456
    207  OD2      -15.8820  -33.8040   22.5880 O.co2 746  ASP746     -0.2456
@<TRIPOS>BOND
     1    17    18   ar
     2    17    15   ar
     3    18    16   ar
     4    15    13   ar
     5    16    14   ar
     6    13    14   ar
     7    13    12    1
     8    12     9    1
     9    30    29    2
    10     4     3    2
    11     9     8    1
    12     9    10    1
    13     3     8   am
    14     3     2    1
    15     2     1    1
    16     2     5    1
    17    22    21    2
    18    29    28    1
    19    33    34    1
    20    33    39    1
    21     6     5    1
    22    35    34    1
    23    35    36    2
    24    34    37    1
    25    10    11    2
    26    10    19   am
    27    64    65    2
    28    64    63    1
    29     5     7    1
    30    21    20    1
    31    19    20    1
    32    27    28    1
    33    39    38    1
    34    28    31    1
    35    63    62    1
    36    63    66    1
    37    43    42    2
    38    40    41    1
    39    20    23    1
    40    37    38    1
    41    67    66    1
    42    67    68    1
    43    31    32    1
    44    42    41    1
    45    23    24    1
    46    41    44    1
    47    69    68    1
    48    69    70    1
    49    44    45    1
    50    24    25    1
    51    56    57    2
    52    56    55    1
    53    45    46   ar
    54    45    47   ar
    55    46    48   ar
    56    60    58    1
    57    55    58    1
    58    55    54    1
    59    25    26    1
    60    77    76    1
    61    76    78    1
    62    76    75    1
    63    71    72    1
    64    58    59    1
    65    48    49   ar
    66    75    72    1
    67    47    50   ar
    68    47    49   ar
    69    59    61    1
    70    72    73    1
    71   112   110    1
    72    50    52   ar
    73    49    51   ar
    74   105   106    1
    75    73    74    2
    76   110   109    1
    77   108   107    2
    78    52    53   ar
    79    51    53   ar
    80   109   106    1
    81   109   111    1
    82   207   205   ar
    83   128   126    1
    84   106   107    1
    85   206   205   ar
    86   205   204    1
    87   107   113   am
    88   172   170   ar
    89    85    84   ar
    90   104   103    1
    91   126   127    1
    92   126   123    1
    93   163   162    2
    94   204   201    1
    95   101   100    1
    96   101   102    2
    97   170   171   ar
    98   170   169    1
    99   113   114    1
   100   164   162   am
   101    84    83    1
   102    84    86   ar
   103   122   123    1
   104   122   115   am
   105   162   161    1
   106   100   103    1
   107   100    99    1
   108    83    80    1
   109   123   124    1
   110   114   115    1
   111   114   117    1
   112   169   166    1
   113   115   116    2
   114   201   202    1
   115   201   200    1
   116    79    80    1
   117   199   197    1
   118   168   167    2
   119   202   203    2
   120    80    81    1
   121   161   158    1
   122   148   147   ar
   123   200   194   am
   124   117   118    1
   125   156   154    1
   126   166   167    1
   127   166   165    1
   128   124   125    2
   129   124   129   am
   130   158   157    1
   131   158   159    1
   132   155   154    1
   133   118   119    1
   134    81    82    2
   135   149   147   ar
   136   147   146    1
   137   197   196    1
   138   129   130    1
   139   196   198    1
   140   196   193    1
   141   154   151    1
   142   194   195    2
   143   194   193    1
   144   160   159    2
   145    95    93   ar
   146    95    97   ar
   147   132   131    2
   148   179   180    1
   149   179   178    1
   150    98    97    1
   151    93    92   ar
   152   139   138    2
   153   193   192    1
   154   119   121   ar
   155   119   120   ar
   156   150   151    1
   157   150   144   am
   158   131   130    1
   159    97    96   ar
   160   146   143    1
   161   130   133    1
   162   143   144    1
   163   143   142    1
   164   151   152    1
   165   178   177    1
   166   144   145    2
   167   138   142   am
   168   138   137    1
   169   141   140    1
   170    92    91    1
   171    92    94   ar
   172   153   152    2
   173    89    90    2
   174    89    88    1
   175    96    94   ar
   176   133   135    1
   177   133   134    1
   178    91    88    1
   179   136   137    1
   180   137   140    1
   181    88    87    1
   182   177   174    1
   183   190   191   ar
   184   190   188   ar
   185   191   189   ar
   186   174   173    1
   187   174   175    1
   188   188   186   ar
   189   189   187   ar
   190   175   176    2
   191   184   183    2
   192   186   187   ar
   193   186   185    1
   194   183   182    1
   195   185   182    1
   196   182   181    1
