@<TRIPOS>MOLECULE
tmp/5aecA00.pdb
 110 107 0 0 0
SMALL
GASTEIGER

@<TRIPOS>ATOM
      1  N          9.8060   15.0360   36.3690 N.3    48  GLN48      -0.1245
      2  CA        11.0480   15.1290   35.6040 C.3    48  GLN48       0.1566
      3  C         12.2580   15.5490   36.4370 C.2    48  GLN48       0.2260
      4  O         12.1300   16.3430   37.3700 O.2    48  GLN48      -0.2867
      5  CB        10.8680   16.1200   34.4580 C.3    48  GLN48       0.0367
      6  CG         9.8950   15.6630   33.3780 C.3    48  GLN48       0.0905
      7  CD        10.4800   14.5250   32.5750 C.2    48  GLN48       0.2608
      8  OE1       10.1210   13.3660   32.7580 O.2    48  GLN48      -0.2717
      9  NE2       11.4020   14.8530   31.6940 N.am   48  GLN48      -0.0878
     10  N          2.3640   16.8990   29.0820 N.3   110  ALA110     -0.1231
     11  CA         2.8780   15.9410   28.0730 C.3   110  ALA110      0.1694
     12  C          3.6270   14.7320   28.6570 C.2   110  ALA110      0.2592
     13  O          4.2270   13.9850   27.8940 O.2   110  ALA110     -0.2718
     14  CB         3.8020   16.6720   27.0990 C.3   110  ALA110      0.0304
     15  N          3.5690   14.5330   29.9820 N.am  111  TYR111     -0.1963
     16  CA         4.3040   13.4930   30.6760 C.3   111  TYR111      0.1756
     17  C          3.2910   12.5640   31.3520 C.2   111  TYR111      0.2461
     18  O          2.7160   12.9090   32.3840 O.2   111  TYR111     -0.2730
     19  CB         5.2640   14.1180   31.6870 C.3   111  TYR111      0.0574
     20  CG         6.3510   14.8630   30.9930 C.ar  111  TYR111     -0.0198
     21  CD1        7.4920   14.2040   30.5660 C.ar  111  TYR111     -0.0009
     22  CD2        6.2080   16.2080   30.6530 C.ar  111  TYR111     -0.0009
     23  CE1        8.5100   14.8950   29.9060 C.ar  111  TYR111      0.0417
     24  CE2        7.2130   16.8940   29.9570 C.ar  111  TYR111      0.0417
     25  CZ         8.3520   16.2110   29.5700 C.ar  111  TYR111      0.1957
     26  OH         9.3470   16.8590   28.8700 O.3   111  TYR111     -0.2866
     27  N          3.0290   11.3880   30.7380 N.am  112  PRO112     -0.2716
     28  CA         2.0530   10.4690   31.3280 C.3   112  PRO112      0.1536
     29  C          2.3250   10.0650   32.7760 C.2   112  PRO112      0.2598
     30  O          1.3720    9.8370   33.5110 O.2   112  PRO112     -0.2715
     31  CB         2.0970    9.2470   30.3740 C.3   112  PRO112      0.0310
     32  CG         2.4760    9.8240   29.0810 C.3   112  PRO112      0.0237
     33  CD         3.4550   10.9300   29.3990 C.3   112  PRO112      0.0939
     34  N          3.5940    9.9770   33.1990 N.am  113  GLN113     -0.1978
     35  CA         3.9100    9.6350   34.5830 C.3   113  GLN113      0.1601
     36  C          3.2900   10.6400   35.5540 C.2   113  GLN113      0.2287
     37  O          2.7540   10.2690   36.5960 O.2   113  GLN113     -0.2864
     38  CB         5.4320    9.5740   34.8120 C.3   113  GLN113      0.0394
     39  CG         6.1130    8.4200   34.0960 C.3   113  GLN113      0.0908
     40  CD         7.5860    8.3020   34.4380 C.2   113  GLN113      0.2608
     41  OE1        8.3660    9.2260   34.2070 O.2   113  GLN113     -0.2717
     42  NE2        7.9680    7.1780   35.0180 N.am  113  GLN113     -0.0878
     43  N          1.6530   27.0230   24.5580 N.3   189  THR189     -0.1203
     44  CA         2.7940   26.6820   23.7050 C.3   189  THR189      0.1994
     45  C          2.3960   25.7190   22.5880 C.2   189  THR189      0.2618
     46  O          1.3990   25.0050   22.6990 O.2   189  THR189     -0.2717
     47  CB         3.9120   25.9560   24.4610 C.3   189  THR189      0.1784
     48  OG1        3.3850   24.7190   24.9660 O.3   189  THR189     -0.2211
     49  CG2        4.4210   26.8030   25.6000 C.3   189  THR189      0.0376
     50  N          3.1920   25.7190   21.5270 N.am  190  GLY190     -0.1942
     51  CA         3.0310   24.7900   20.4170 C.3   190  GLY190      0.2014
     52  C          4.3970   24.3560   19.9130 C.2   190  GLY190      0.2638
     53  O          5.3580   25.1470   19.9450 O.2   190  GLY190     -0.2714
     54  N          4.4860   23.1070   19.4470 N.am  191  PHE191     -0.1973
     55  CA         5.7200   22.5560   18.8650 C.3   191  PHE191      0.1639
     56  C          5.5140   21.9540   17.4710 C.2   191  PHE191      0.2290
     57  O          6.1340   22.4020   16.4990 O.2   191  PHE191     -0.2864
     58  CB         6.3670   21.4920   19.7710 C.3   191  PHE191      0.0560
     59  CG         7.6250   20.9010   19.1830 C.ar  191  PHE191     -0.0200
     60  CD1        8.8270   21.5820   19.2500 C.ar  191  PHE191     -0.0042
     61  CD2        7.5840   19.6940   18.4800 C.ar  191  PHE191     -0.0042
     62  CE1        9.9860   21.0540   18.6780 C.ar  191  PHE191     -0.0003
     63  CE2        8.7240   19.1650   17.8860 C.ar  191  PHE191     -0.0003
     64  CZ         9.9300   19.8470   17.9840 C.ar  191  PHE191     -0.0000
     65  N          7.8320   26.9070   20.0600 N.3   211  ILE211     -0.1245
     66  CA         9.1490   26.3380   20.3330 C.3   211  ILE211      0.1561
     67  C          9.8370   26.1200   18.9850 C.2   211  ILE211      0.2260
     68  O          9.3550   25.3610   18.1540 O.2   211  ILE211     -0.2867
     69  CB         9.0370   25.0310   21.1480 C.3   211  ILE211      0.0252
     70  CG1        8.3200   25.3060   22.4890 C.3   211  ILE211      0.0019
     71  CG2       10.4170   24.4380   21.4080 C.3   211  ILE211      0.0019
     72  CD1        7.6360   24.1120   23.0920 C.3   211  ILE211      0.0001
     73  N         16.6560   12.6270   23.1940 N.3   276  ILE276     -0.1245
     74  CA        15.1950   12.8070   23.1670 C.3   276  ILE276      0.1561
     75  C         14.7580   13.3250   21.7970 C.2   276  ILE276      0.2260
     76  O         13.8330   12.7790   21.1820 O.2   276  ILE276     -0.2867
     77  CB        14.6980   13.7830   24.2750 C.3   276  ILE276      0.0252
     78  CG1       14.7150   13.0880   25.6410 C.3   276  ILE276      0.0019
     79  CG2       13.2880   14.3090   23.9770 C.3   276  ILE276      0.0019
     80  CD1       14.6880   14.0390   26.8200 C.3   276  ILE276      0.0001
     81  N         15.0520   10.5390   19.2340 N.3   279  ARG279     -0.1231
     82  CA        13.9920    9.5280   19.4380 C.3   279  ARG279      0.1694
     83  C         12.6340    9.9960   18.9220 C.2   279  ARG279      0.2592
     84  O         11.8860    9.2220   18.3250 O.2   279  ARG279     -0.2718
     85  CB        13.8700    9.1470   20.9320 C.3   279  ARG279      0.0321
     86  CG        12.7870    8.1030   21.2770 C.3   279  ARG279      0.0489
     87  CD        12.6750    7.8610   22.7820 C.3   279  ARG279      0.2205
     88  NE        11.5800    6.9750   23.2140 N.pl3 279  ARG279     -0.0865
     89  CZ        10.4540    6.7290   22.5400 C.cat 279  ARG279      0.5346
     90  NH1       10.2190    7.2900   21.3620 N.pl3 279  ARG279      0.1354
     91  NH2        9.5490    5.9100   23.0570 N.pl3 279  ARG279      0.1354
     92  N         12.3100   11.2610   19.1550 N.am  280  PHE280     -0.1976
     93  CA        10.9950   11.7830   18.7940 C.3   280  PHE280      0.1639
     94  C         10.9280   12.5380   17.4570 C.2   280  PHE280      0.2290
     95  O          9.8790   13.0960   17.1160 O.2   280  PHE280     -0.2864
     96  CB        10.4360   12.5930   19.9750 C.3   280  PHE280      0.0560
     97  CG        10.0120   11.7310   21.1280 C.ar  280  PHE280     -0.0200
     98  CD1        8.7950   11.0580   21.0920 C.ar  280  PHE280     -0.0042
     99  CD2       10.8360   11.5600   22.2410 C.ar  280  PHE280     -0.0042
    100  CE1        8.3980   10.2410   22.1450 C.ar  280  PHE280     -0.0003
    101  CE2       10.4450   10.7490   23.2980 C.ar  280  PHE280     -0.0003
    102  CZ         9.2220   10.0880   23.2490 C.ar  280  PHE280     -0.0000
    103  N         12.4220   15.3080   16.5160 N.3   282  MET282     -0.1245
    104  CA        12.3150   16.7610   16.7320 C.3   282  MET282      0.1570
    105  C         13.3840   17.5700   15.9890 C.2   282  MET282      0.2261
    106  O         13.3650   18.8020   16.0530 O.2   282  MET282     -0.2867
    107  CB        12.3220   17.0650   18.2380 C.3   282  MET282      0.0387
    108  CG        11.1050   16.4720   18.9380 C.3   282  MET282      0.0595
    109  SD        11.1290   16.4600   20.7280 S.3   282  MET282     -0.1393
    110  CE        11.2900   18.2130   21.1140 C.3   282  MET282      0.0692
@<TRIPOS>BOND
     1   105   106    2
     2   105   104    1
     3    57    56    2
     4   103   104    1
     5   104   107    1
     6    95    94    2
     7    94    93    1
     8    56    55    1
     9    63    64   ar
    10    63    61   ar
    11    64    62   ar
    12    68    67    2
    13   107   108    1
    14    84    83    2
    15    61    59   ar
    16    62    60   ar
    17    93    92    1
    18    93    96    1
    19    55    54    1
    20    55    58    1
    21    83    92   am
    22    83    82    1
    23   108   109    1
    24    67    66    1
    25    59    60   ar
    26    59    58    1
    27    81    82    1
    28    82    85    1
    29    54    52   am
    30    52    53    2
    31    52    51    1
    32    96    97    1
    33    65    66    1
    34    66    69    1
    35    51    50    1
    36   109   110    1
    37    85    86    1
    38    98    97   ar
    39    98   100   ar
    40    97    99   ar
    41    69    71    1
    42    69    70    1
    43    76    75    2
    44    86    87    1
    45    90    89    1
    46    50    45   am
    47    75    74    1
    48   100   102   ar
    49    99   101   ar
    50    70    72    1
    51    89    91    1
    52    89    88    2
    53    45    46    2
    54    45    44    1
    55    87    88    1
    56    74    73    1
    57    74    77    1
    58   102   101   ar
    59    44    47    1
    60    44    43    1
    61    79    77    1
    62    77    78    1
    63    47    48    1
    64    47    49    1
    65    78    80    1
    66    14    11    1
    67    13    12    2
    68    11    12    1
    69    11    10    1
    70    12    15   am
    71    26    25    1
    72    32    33    1
    73    32    31    1
    74    33    27    1
    75    25    23   ar
    76    25    24   ar
    77    23    21   ar
    78    24    22   ar
    79    15    16    1
    80    31    28    1
    81    21    20   ar
    82    22    20   ar
    83    16    17    1
    84    16    19    1
    85    27    28    1
    86    27    17   am
    87    20    19    1
    88    28    29    1
    89    17    18    2
    90     9     7   am
    91     7     8    2
    92     7     6    1
    93    29    34   am
    94    29    30    2
    95    34    35    1
    96     6     5    1
    97    39    40    1
    98    39    38    1
    99    41    40    2
   100    40    42   am
   101     5     2    1
   102    35    38    1
   103    35    36    1
   104    36    37    2
   105     2     1    1
   106     2     3    1
   107     3     4    2
