@<TRIPOS>MOLECULE
tmp/5aeeB01.pdb
 219 212 0 0 0
SMALL
GASTEIGER

@<TRIPOS>ATOM
      1  N         20.6030    9.2980    5.4240 N.3    43  ARG43      -0.1245
      2  CA        21.7110    8.7150    4.6730 C.3    43  ARG43       0.1563
      3  C         21.4510    7.2570    4.3150 C.2    43  ARG43       0.2260
      4  O         22.3220    6.4000    4.4670 O.2    43  ARG43      -0.2867
      5  CB        23.0150    8.8150    5.4630 C.3    43  ARG43       0.0307
      6  CG        23.4050   10.2400    5.8280 C.3    43  ARG43       0.0489
      7  CD        24.7970   10.2900    6.4270 C.3    43  ARG43       0.2205
      8  NE        25.2240   11.6780    6.5750 N.pl3  43  ARG43      -0.0865
      9  CZ        26.3830   12.0920    7.0920 C.cat  43  ARG43       0.5346
     10  NH1       27.2990   11.2370    7.5310 N.pl3  43  ARG43       0.1354
     11  NH2       26.6400   13.3890    7.1260 N.pl3  43  ARG43       0.1354
     12  N         19.9370    0.9680    3.3090 N.3   143  GLU143     -0.1245
     13  CA        21.1820    0.4710    3.7730 C.3   143  GLU143      0.1567
     14  C         20.9220   -0.7770    4.5860 C.2   143  GLU143      0.2260
     15  O         19.8440   -0.9730    5.1820 O.2   143  GLU143     -0.2867
     16  CB        21.9720    1.5050    4.5720 C.3   143  GLU143      0.0388
     17  CG        22.3710    2.7460    3.8310 C.3   143  GLU143      0.1160
     18  CD        22.7680    2.4960    2.3940 C.2   143  GLU143      0.3649
     19  OE1       23.6850    1.7360    2.1270 O.co2 143  GLU143     -0.2457
     20  OE2       22.0930    3.0310    1.5310 O.co2 143  GLU143     -0.2457
     21  N         23.9770    7.3820   13.3700 N.3   162  GLU162     -0.1196
     22  CA        23.1700    7.6770   12.1880 C.3   162  GLU162      0.1783
     23  C         21.8590    6.8870   12.0800 C.2   162  GLU162      0.2306
     24  O         21.3050    6.7570   10.9770 O.2   162  GLU162     -0.2863
     25  CB        24.0350    7.4500   10.9160 C.2   162  GLU162      0.0071
     26  CG        25.5050    7.9410   11.0060 C.2   162  GLU162      0.0834
     27  CD        26.2830    7.9850    9.6730 C.2   162  GLU162      0.3877
     28  OE1       26.6510    6.9140    9.1270 O.co2 162  GLU162     -0.2406
     29  OE2       26.5700    9.1040    9.1840 O.co2 162  GLU162     -0.2406
     30  N         37.6420    1.4990   -7.7960 N.3   279  GLN279     -0.1245
     31  CA        36.3880    2.2570   -7.6460 C.3   279  GLN279      0.1566
     32  C         36.6320    3.7470   -7.7140 C.2   279  GLN279      0.2260
     33  O         35.7430    4.4930   -8.1010 O.2   279  GLN279     -0.2867
     34  CB        35.6620    1.8720   -6.3720 C.3   279  GLN279      0.0367
     35  CG        36.3530    2.3260   -5.1360 C.3   279  GLN279      0.0905
     36  CD        35.5380    2.0950   -3.9400 C.2   279  GLN279      0.2608
     37  OE1       34.5600    1.3520   -3.9690 O.2   279  GLN279     -0.2717
     38  NE2       35.9650    2.6830   -2.8250 N.am  279  GLN279     -0.0878
     39  N         33.8890    9.3220    7.0140 N.3   289  PHE289     -0.1241
     40  CA        33.6680    7.8820    6.8400 C.3   289  PHE289      0.1605
     41  C         34.9510    7.1430    6.3980 C.2   289  PHE289      0.2264
     42  O         35.2430    6.0150    6.8080 O.2   289  PHE289     -0.2867
     43  CB        32.5140    7.6920    5.8630 C.3   289  PHE289      0.0534
     44  CG        32.1140    6.2690    5.6540 C.ar  289  PHE289     -0.0203
     45  CD1       31.3830    5.5870    6.6200 C.ar  289  PHE289     -0.0042
     46  CD2       32.3890    5.6380    4.4440 C.ar  289  PHE289     -0.0042
     47  CE1       30.9840    4.2640    6.3940 C.ar  289  PHE289     -0.0003
     48  CE2       31.9820    4.3210    4.2060 C.ar  289  PHE289     -0.0003
     49  CZ        31.2690    3.6310    5.1720 C.ar  289  PHE289     -0.0000
     50  N         37.6240    6.7200    2.7950 N.3   291  LYS291     -0.1231
     51  CA        37.9920    6.9750    1.3620 C.3   291  LYS291      0.1693
     52  C         36.8080    6.5280    0.5620 C.2   291  LYS291      0.2592
     53  O         36.5220    5.3060    0.4960 O.2   291  LYS291     -0.2718
     54  CB        39.2570    6.2210    0.9290 C.3   291  LYS291      0.0285
     55  CG        40.5530    6.9630    1.2270 C.3   291  LYS291      0.0035
     56  CD        41.8670    6.2560    0.7910 C.3   291  LYS291      0.0206
     57  CE        41.8740    5.8320   -0.6760 C.3   291  LYS291      0.1093
     58  NZ        43.2120    5.3650   -1.2020 N.3   291  LYS291     -0.1314
     59  N         36.1250    7.4800   -0.0330 N.am  292  ARG292     -0.1966
     60  CA        34.9390    7.2190   -0.8770 C.3   292  ARG292      0.1729
     61  C         35.2580    7.5600   -2.3280 C.2   292  ARG292      0.2616
     62  O         36.3650    8.0580   -2.6430 O.2   292  ARG292     -0.2715
     63  CB        33.7880    7.9680   -0.3610 C.3   292  ARG292      0.0348
     64  CG        33.5690    7.6840    1.1530 C.3   292  ARG292      0.0492
     65  CD        32.1970    8.0710    1.5940 C.3   292  ARG292      0.2205
     66  NE        31.1060    7.4290    0.8800 N.pl3 292  ARG292     -0.0865
     67  CZ        29.8160    7.7490    1.0110 C.cat 292  ARG292      0.5346
     68  NH1       29.4730    8.7160    1.8360 N.pl3 292  ARG292      0.1354
     69  NH2       28.8500    7.1010    0.3410 N.pl3 292  ARG292      0.1354
     70  N         34.3320    7.2510   -3.2360 N.am  293  VAL293     -0.1977
     71  CA        34.5030    7.6040   -4.6390 C.3   293  VAL293      0.1596
     72  C         33.9090    9.0420   -4.8790 C.2   293  VAL293      0.2287
     73  O         32.9800    9.4500   -4.2390 O.2   293  VAL293     -0.2864
     74  CB        33.8130    6.5780   -5.4940 C.3   293  VAL293      0.0276
     75  CG1       33.8280    6.9390   -6.9790 C.3   293  VAL293      0.0022
     76  CG2       34.4030    5.1820   -5.2470 C.3   293  VAL293      0.0022
     77  N         31.7080   10.9900   -7.2020 N.3   295  TRP295     -0.1241
     78  CA        30.5830   10.4860   -7.9500 C.3   295  TRP295      0.1605
     79  C         30.3580   11.3530   -9.1480 C.2   295  TRP295      0.2264
     80  O         29.3730   12.0760   -9.2500 O.2   295  TRP295     -0.2867
     81  CB        29.3510   10.4140   -7.1030 C.3   295  TRP295      0.0550
     82  CG        29.3490    9.3750   -5.9680 C.ar  295  TRP295      0.0003
     83  CD1       30.4020    8.5330   -5.5520 C.ar  295  TRP295      0.0946
     84  CD2       28.2600    9.1100   -5.0930 C.ar  295  TRP295      0.0152
     85  NE1       30.0060    7.7950   -4.4900 N.ar  295  TRP295     -0.2442
     86  CE2       28.7000    8.1080   -4.1750 C.ar  295  TRP295      0.0810
     87  CE3       26.9320    9.6070   -4.9990 C.ar  295  TRP295      0.0012
     88  CZ2       27.8600    7.5890   -3.1900 C.ar  295  TRP295      0.0191
     89  CZ3       26.1020    9.1120   -4.0070 C.ar  295  TRP295      0.0001
     90  CH2       26.5640    8.1070   -3.1020 C.ar  295  TRP295      0.0015
     91  N         33.3760    1.8010  -11.3100 N.3   324  TYR324     -0.1241
     92  CA        32.3400    1.9900  -10.3430 C.3   324  TYR324      0.1605
     93  C         31.4260    3.0580  -10.8510 C.2   324  TYR324      0.2264
     94  O         31.8710    4.1060  -11.3840 O.2   324  TYR324     -0.2867
     95  CB        32.9480    2.4480   -9.0430 C.3   324  TYR324      0.0534
     96  CG        31.8920    2.7940   -7.9830 C.ar  324  TYR324     -0.0201
     97  CD1       31.1890    3.9970   -8.0190 C.ar  324  TYR324     -0.0009
     98  CD2       31.5760    1.9020   -6.9910 C.ar  324  TYR324     -0.0009
     99  CE1       30.2120    4.3040   -7.0810 C.ar  324  TYR324      0.0417
    100  CE2       30.6070    2.1820   -6.0820 C.ar  324  TYR324      0.0417
    101  CZ        29.9270    3.4140   -6.1170 C.ar  324  TYR324      0.1957
    102  OH        28.9820    3.7420   -5.1930 O.3   324  TYR324     -0.2866
    103  N         24.6170   12.6950    1.1050 N.3   358  PHE358     -0.1227
    104  CA        25.1960   11.3620    0.9810 C.3   358  PHE358      0.1736
    105  C         26.3380   11.1010    1.9670 C.2   358  PHE358      0.2596
    106  O         27.0340   10.0910    1.8580 O.2   358  PHE358     -0.2718
    107  CB        25.6460   11.1240   -0.4480 C.3   358  PHE358      0.0547
    108  CG        24.5160   10.8600   -1.4180 C.ar  358  PHE358     -0.0202
    109  CD1       23.8230    9.6730   -1.3980 C.ar  358  PHE358     -0.0042
    110  CD2       24.2570   11.7270   -2.4210 C.ar  358  PHE358     -0.0042
    111  CE1       22.8550    9.4080   -2.3560 C.ar  358  PHE358     -0.0003
    112  CE2       23.2850   11.4790   -3.3760 C.ar  358  PHE358     -0.0003
    113  CZ        22.5670   10.3080   -3.3320 C.ar  358  PHE358     -0.0000
    114  N         26.4560   11.9530    2.9650 N.am  359  GLY359     -0.1957
    115  CA        27.5440   11.8970    3.9090 C.3   359  GLY359      0.1869
    116  C         28.7030   12.8510    3.6210 C.2   359  GLY359      0.2309
    117  O         29.7490   12.4350    3.0980 O.2   359  GLY359     -0.2863
    118  N         31.3250   -2.1500  -10.6160 N.3   394  MET394     -0.1245
    119  CA        30.4150   -2.1900   -9.5390 C.3   394  MET394      0.1570
    120  C         29.2880   -1.1800   -9.8950 C.2   394  MET394      0.2261
    121  O         29.5790    0.0130  -10.1170 O.2   394  MET394     -0.2867
    122  CB        31.1690   -1.7710   -8.2440 C.3   394  MET394      0.0387
    123  CG        30.2650   -1.5520   -7.1060 C.3   394  MET394      0.0595
    124  SD        30.9590   -1.2820   -5.4760 S.3   394  MET394     -0.1393
    125  CE        31.5090   -2.9230   -5.1160 C.3   394  MET394      0.0692
    126  N         26.4370    0.3440   -8.2950 N.3   396  ASP396     -0.1225
    127  CA        26.1700    0.4600   -6.8130 C.3   396  ASP396      0.1805
    128  C         24.8440    1.2490   -6.5910 C.2   396  ASP396      0.2597
    129  O         24.2740    1.8200   -7.5170 O.2   396  ASP396     -0.2718
    130  CB        27.3730    1.0640   -6.1300 C.3   396  ASP396      0.1424
    131  CG        27.3350    0.9290   -4.6090 C.2   396  ASP396      0.3668
    132  OD1       26.4420    0.2080   -4.1300 O.co2 396  ASP396     -0.2456
    133  OD2       28.2020    1.5140   -3.9100 O.co2 396  ASP396     -0.2456
    134  N         24.3330    1.1680   -5.3680 N.am  397  PHE397     -0.1976
    135  CA        23.2130    1.9360   -4.9020 C.3   397  PHE397      0.1639
    136  C         21.9020    1.5300   -5.6230 C.2   397  PHE397      0.2290
    137  O         21.8200    0.4510   -6.2380 O.2   397  PHE397     -0.2864
    138  CB        23.5170    3.4830   -4.8500 C.3   397  PHE397      0.0560
    139  CG        24.4230    3.8800   -3.7380 C.ar  397  PHE397     -0.0200
    140  CD1       25.8240    3.8940   -3.9280 C.ar  397  PHE397     -0.0042
    141  CD2       23.9180    4.2220   -2.5260 C.ar  397  PHE397     -0.0042
    142  CE1       26.7040    4.2800   -2.9270 C.ar  397  PHE397     -0.0003
    143  CE2       24.7750    4.6260   -1.5070 C.ar  397  PHE397     -0.0003
    144  CZ        26.1650    4.6340   -1.6860 C.ar  397  PHE397     -0.0000
    145  N         18.3870    4.2130   -2.1820 N.3   400  TYR400     -0.1241
    146  CA        18.4980    5.4640   -1.4790 C.3   400  TYR400      0.1605
    147  C         17.4930    6.4780   -2.0160 C.2   400  TYR400      0.2264
    148  O         17.6520    7.6550   -1.7080 O.2   400  TYR400     -0.2867
    149  CB        19.8980    6.0350   -1.7460 C.3   400  TYR400      0.0534
    150  CG        20.7400    6.5980   -0.6020 C.ar  400  TYR400     -0.0201
    151  CD1       20.6040    7.9320   -0.1710 C.ar  400  TYR400     -0.0009
    152  CD2       21.7720    5.8390   -0.0370 C.ar  400  TYR400     -0.0009
    153  CE1       21.4370    8.4680    0.8190 C.ar  400  TYR400      0.0417
    154  CE2       22.6150    6.3620    0.9570 C.ar  400  TYR400      0.0417
    155  CZ        22.4650    7.6850    1.3650 C.ar  400  TYR400      0.1957
    156  OH        23.3340    8.2150    2.3100 O.3   400  TYR400     -0.2866
    157  N         24.5060   -4.2720   -5.7430 N.3   446  ARG446     -0.1245
    158  CA        24.2350   -4.4820   -4.3160 C.3   446  ARG446      0.1563
    159  C         22.6860   -4.4700   -4.1790 C.2   446  ARG446      0.2260
    160  O         22.0620   -5.4950   -3.8570 O.2   446  ARG446     -0.2867
    161  CB        24.8910   -3.3730   -3.5310 C.3   446  ARG446      0.0307
    162  CG        24.6380   -3.4120   -2.0530 C.3   446  ARG446      0.0489
    163  CD        25.5930   -2.5280   -1.2920 C.3   446  ARG446      0.2205
    164  NE        25.5980   -1.1280   -1.7150 N.pl3 446  ARG446     -0.0865
    165  CZ        24.9590   -0.1200   -1.1610 C.cat 446  ARG446      0.5346
    166  NH1       24.2310   -0.2610   -0.0740 N.pl3 446  ARG446      0.1354
    167  NH2       25.0780    1.0880   -1.6940 N.pl3 446  ARG446      0.1354
    168  N         26.4730   -8.6870   -5.4370 N.3   460  TRP460     -0.1241
    169  CA        27.3320   -8.8930   -4.2910 C.3   460  TRP460      0.1605
    170  C         26.6490   -8.5290   -3.0030 C.2   460  TRP460      0.2264
    171  O         25.7830   -7.6380   -2.9310 O.2   460  TRP460     -0.2867
    172  CB        28.7790   -8.2590   -4.4690 C.3   460  TRP460      0.0550
    173  CG        28.9670   -6.8940   -3.8630 C.ar  460  TRP460      0.0003
    174  CD1       29.4380   -6.6530   -2.5760 C.ar  460  TRP460      0.0946
    175  CD2       28.5520   -5.6070   -4.3790 C.ar  460  TRP460      0.0152
    176  NE1       29.4010   -5.3520   -2.3360 N.ar  460  TRP460     -0.2442
    177  CE2       28.8280   -4.6730   -3.3840 C.ar  460  TRP460      0.0810
    178  CE3       28.0150   -5.1590   -5.5880 C.ar  460  TRP460      0.0012
    179  CZ2       28.6160   -3.3080   -3.5550 C.ar  460  TRP460      0.0191
    180  CZ3       27.8300   -3.8060   -5.7580 C.ar  460  TRP460      0.0001
    181  CH2       28.1390   -2.8950   -4.7580 C.ar  460  TRP460      0.0015
    182  N         27.8590   -4.5050    2.1820 N.3   463  ASN463     -0.1240
    183  CA        28.8670   -4.1710    3.1420 C.3   463  ASN463      0.1653
    184  C         28.7020   -5.0150    4.3430 C.2   463  ASN463      0.2266
    185  O         27.7450   -4.8460    5.0540 O.2   463  ASN463     -0.2867
    186  CB        28.8030   -2.6720    3.5640 C.3   463  ASN463      0.1155
    187  CG        29.0410   -1.7220    2.4220 C.2   463  ASN463      0.2627
    188  OD1       29.3940   -2.0910    1.3180 O.2   463  ASN463     -0.2716
    189  ND2       28.7930   -0.4890    2.6830 N.am  463  ASN463     -0.0877
    190  N         32.6850   -9.2300   -0.9000 N.3   495  ASP495     -0.1239
    191  CA        33.9590   -8.5930   -0.7680 C.3   495  ASP495      0.1674
    192  C         34.8530   -9.5160    0.0440 C.2   495  ASP495      0.2266
    193  O         34.5410   -9.7900    1.2110 O.2   495  ASP495     -0.2867
    194  CB        33.8590   -7.2910    0.0500 C.3   495  ASP495      0.1410
    195  CG        32.9880   -6.2600   -0.5590 C.2   495  ASP495      0.3668
    196  OD1       32.9380   -6.0310   -1.8030 O.co2 495  ASP495     -0.2456
    197  OD2       32.4180   -5.5570    0.2730 O.co2 495  ASP495     -0.2456
    198  N         33.9460   -5.0500    4.2420 N.3   499  TYR499     -0.1241
    199  CA        34.0170   -3.6250    3.9010 C.3   499  TYR499      0.1605
    200  C         34.1120   -2.6820    5.0790 C.2   499  TYR499      0.2264
    201  O         35.0940   -1.8720    5.2080 O.2   499  TYR499     -0.2867
    202  CB        32.7980   -3.2410    3.0410 C.3   499  TYR499      0.0534
    203  CG        32.7920   -1.7900    2.6540 C.ar  499  TYR499     -0.0201
    204  CD1       33.6430   -1.2960    1.6390 C.ar  499  TYR499     -0.0009
    205  CD2       32.0300   -0.8750    3.3480 C.ar  499  TYR499     -0.0009
    206  CE1       33.6470    0.0560    1.3590 C.ar  499  TYR499      0.0417
    207  CE2       32.0760    0.4420    3.0480 C.ar  499  TYR499      0.0417
    208  CZ        32.8490    0.8940    2.0400 C.ar  499  TYR499      0.1957
    209  OH        32.8790    2.2650    1.7420 O.3   499  TYR499     -0.2866
    210  N         38.2300   -6.1100   -1.6480 N.3   528  HIS528     -0.1241
    211  CA        37.9300   -4.7370   -1.3680 C.3   528  HIS528      0.1621
    212  C         38.8390   -4.2610   -0.2850 C.2   528  HIS528      0.2264
    213  O         39.0310   -4.9610    0.7010 O.2   528  HIS528     -0.2867
    214  CB        36.4920   -4.6450   -0.8500 C.3   528  HIS528      0.0745
    215  CG        35.8040   -3.3580   -1.1110 C.ar  528  HIS528      0.0817
    216  ND1       36.4050   -2.1270   -0.9880 N.ar  528  HIS528     -0.2268
    217  CD2       34.4930   -3.1030   -1.3790 C.ar  528  HIS528      0.1154
    218  CE1       35.5320   -1.1780   -1.2600 C.ar  528  HIS528      0.1986
    219  NE2       34.3610   -1.7430   -1.5170 N.ar  528  HIS528     -0.2212
@<TRIPOS>BOND
     1    94    93    2
     2    91    92    1
     3    93    92    1
     4   118   119    1
     5    92    95    1
     6   121   120    2
     7   120   119    1
     8   119   122    1
     9    80    79    2
    10    79    78    1
    11    95    96    1
    12   126   127    1
    13   122   123    1
    14    33    32    2
    15    97    96   ar
    16    97    99   ar
    17    96    98   ar
    18    78    77    1
    19    78    81    1
    20    30    31    1
    21    32    31    1
    22    31    34    1
    23   129   128    2
    24   123   124    1
    25    81    82    1
    26    99   101   ar
    27    98   100   ar
    28    75    74    1
    29   127   128    1
    30   127   130    1
    31   128   134   am
    32    34    35    1
    33   137   136    2
    34   130   131    1
    35   101   100   ar
    36   101   102    1
    37    82    83   ar
    38    82    84   ar
    39   180   178   ar
    40   180   181   ar
    41   157   158    1
    42   136   135    1
    43   178   175   ar
    44    83    85   ar
    45    74    76    1
    46    74    71    1
    47   124   125    1
    48   168   169    1
    49   134   135    1
    50    35    36    1
    51    84    87   ar
    52    84    86   ar
    53    87    89   ar
    54   135   138    1
    55    72    71    1
    56    72    73    2
    57   138   139    1
    58   181   179   ar
    59    71    70    1
    60   131   132   ar
    61   131   133   ar
    62    85    86   ar
    63   172   169    1
    64   172   173    1
    65   175   173   ar
    66   175   177   ar
    67   158   159    1
    68   158   161    1
    69   169   170    1
    70   159   160    2
    71    86    88   ar
    72    89    90   ar
    73    37    36    2
    74    36    38   am
    75   140   139   ar
    76   140   142   ar
    77   173   174   ar
    78   139   141   ar
    79   179   177   ar
    80   161   162    1
    81   177   176   ar
    82   112   113   ar
    83   112   110   ar
    84   113   111   ar
    85    70    61   am
    86    88    90   ar
    87   170   171    2
    88   142   144   ar
    89    62    61    2
    90   174   176   ar
    91   141   143   ar
    92   110   108   ar
    93   111   109   ar
    94    61    60    1
    95   145   146    1
    96   162   163    1
    97   147   148    2
    98   147   146    1
    99   196   195   ar
   100   149   146    1
   101   149   150    1
   102   164   163    1
   103   164   165    2
   104   167   165    1
   105   144   143   ar
   106   210   211    1
   107   219   217   ar
   108   219   218   ar
   109   108   109   ar
   110   108   107    1
   111   217   215   ar
   112   211   214    1
   113   211   212    1
   114   218   216   ar
   115    58    57    1
   116   165   166    1
   117   215   216   ar
   118   215   214    1
   119   190   191    1
   120    60    63    1
   121    60    59    1
   122   191   192    1
   123   191   194    1
   124    57    56    1
   125   150   151   ar
   126   150   152   ar
   127   195   194    1
   128   195   197   ar
   129   107   104    1
   130    63    64    1
   131   212   213    2
   132   151   153   ar
   133   152   154   ar
   134    59    52   am
   135   192   193    2
   136    69    67    1
   137    53    52    2
   138    52    51    1
   139    56    55    1
   140   153   155   ar
   141    66    67    2
   142    66    65    1
   143    54    55    1
   144    54    51    1
   145   154   155   ar
   146   104   103    1
   147   104   105    1
   148    67    68    1
   149    64    65    1
   150   188   187    2
   151   206   204   ar
   152   206   208   ar
   153    51    50    1
   154   155   156    1
   155    20    18   ar
   156   204   203   ar
   157   209   208    1
   158   106   105    2
   159   105   114   am
   160   208   207   ar
   161    19    18   ar
   162   182   183    1
   163    18    17    1
   164   187   189   am
   165   187   186    1
   166   203   202    1
   167   203   205   ar
   168   114   115    1
   169   202   199    1
   170   207   205   ar
   171   117   116    2
   172   183   186    1
   173   183   184    1
   174    12    13    1
   175   116   115    1
   176    13    16    1
   177    13    14    1
   178    17    16    1
   179   199   198    1
   180   199   200    1
   181    48    46   ar
   182    48    49   ar
   183     3     4    2
   184     3     2    1
   185   184   185    2
   186    46    44   ar
   187    14    15    2
   188     2     1    1
   189     2     5    1
   190   200   201    2
   191    49    47   ar
   192     5     6    1
   193    44    43    1
   194    44    45   ar
   195     6     7    1
   196    43    40    1
   197    47    45   ar
   198    41    42    2
   199    41    40    1
   200     7     8    1
   201     8     9    2
   202    40    39    1
   203     9    11    1
   204     9    10    1
   205    28    27   ar
   206    29    27   ar
   207    27    26    1
   208    25    26    2
   209    25    22    1
   210    24    23    2
   211    23    22    1
   212    22    21    1
