@<TRIPOS>MOLECULE
tmp/5aegB01.pdb
 143 139 0 0 0
SMALL
GASTEIGER

@<TRIPOS>ATOM
      1  N         22.7590    0.8390  -57.0730 N.3   281  GLN281     -0.1245
      2  CA        23.6220    0.0980  -56.1860 C.3   281  GLN281      0.1566
      3  C         23.3220   -1.4120  -56.2460 C.2   281  GLN281      0.2260
      4  O         24.1970   -2.2280  -55.9230 O.2   281  GLN281     -0.2867
      5  CB        23.5260    0.6470  -54.7330 C.3   281  GLN281      0.0367
      6  CG        22.1500    0.4610  -54.0890 C.3   281  GLN281      0.0905
      7  CD        22.1730    0.7860  -52.5900 C.2   281  GLN281      0.2608
      8  OE1       23.2000    1.2390  -52.0590 O.2   281  GLN281     -0.2717
      9  NE2       21.0860    0.4970  -51.9210 N.am  281  GLN281     -0.0878
     10  N         18.2560   -6.0300  -49.7510 N.3   294  ARG294     -0.1231
     11  CA        19.6120   -5.4390  -49.7190 C.3   294  ARG294      0.1694
     12  C         20.3410   -5.6490  -51.0310 C.2   294  ARG294      0.2591
     13  O         19.9330   -6.4690  -51.8430 O.2   294  ARG294     -0.2718
     14  CB        20.4150   -6.1150  -48.6130 C.3   294  ARG294      0.0321
     15  CG        19.8010   -5.8940  -47.2290 C.3   294  ARG294      0.0489
     16  CD        20.4500   -4.7420  -46.4840 C.3   294  ARG294      0.2205
     17  NE        21.4100   -5.3150  -45.5270 N.pl3 294  ARG294     -0.0865
     18  CZ        22.7410   -5.2430  -45.5760 C.cat 294  ARG294      0.5346
     19  NH1       23.3740   -4.5720  -46.5220 N.pl3 294  ARG294      0.1354
     20  NH2       23.4500   -5.8150  -44.6200 N.pl3 294  ARG294      0.1354
     21  N         21.4750   -4.9810  -51.1760 N.am  295  VAL295     -0.1980
     22  CA        22.3920   -5.2300  -52.2590 C.3   295  VAL295      0.1595
     23  C         23.0270   -6.6020  -52.0710 C.2   295  VAL295      0.2287
     24  O         23.3170   -7.0260  -50.9190 O.2   295  VAL295     -0.2864
     25  CB        23.4320   -4.1040  -52.3100 C.3   295  VAL295      0.0276
     26  CG1       24.5600   -4.3860  -53.2960 C.3   295  VAL295      0.0022
     27  CG2       22.7180   -2.8010  -52.6440 C.3   295  VAL295      0.0022
     28  N         26.2240   -8.7110  -52.1730 N.3   297  TRP297     -0.1241
     29  CA        27.6630   -8.3890  -52.0980 C.3   297  TRP297      0.1605
     30  C         28.5800   -9.3830  -52.8360 C.2   297  TRP297      0.2264
     31  O         29.3270  -10.1680  -52.2400 O.2   297  TRP297     -0.2867
     32  CB        28.1330   -8.2170  -50.6670 C.3   297  TRP297      0.0550
     33  CG        27.4730   -7.1120  -49.8830 C.ar  297  TRP297      0.0003
     34  CD1       26.3770   -6.4010  -50.1970 C.ar  297  TRP297      0.0946
     35  CD2       27.9030   -6.6670  -48.5860 C.ar  297  TRP297      0.0152
     36  NE1       26.0840   -5.4840  -49.1830 N.ar  297  TRP297     -0.2442
     37  CE2       27.0010   -5.6480  -48.1730 C.ar  297  TRP297      0.0810
     38  CE3       28.9650   -7.0420  -47.7360 C.ar  297  TRP297      0.0012
     39  CZ2       27.1410   -4.9700  -46.9400 C.ar  297  TRP297      0.0191
     40  CZ3       29.0970   -6.3910  -46.4960 C.ar  297  TRP297      0.0001
     41  CH2       28.1920   -5.3450  -46.1250 C.ar  297  TRP297      0.0015
     42  N         28.2930    0.1280  -57.4600 N.3   326  TYR326     -0.1241
     43  CA        28.5220    0.0320  -56.0400 C.3   326  TYR326      0.1605
     44  C         29.4560   -1.0990  -55.7690 C.2   326  TYR326      0.2264
     45  O         29.3160   -2.1820  -56.3370 O.2   326  TYR326     -0.2867
     46  CB        27.1920   -0.2170  -55.2990 C.3   326  TYR326      0.0534
     47  CG        27.3160   -0.4790  -53.7990 C.ar  326  TYR326     -0.0201
     48  CD1       27.7360   -1.7310  -53.3110 C.ar  326  TYR326     -0.0009
     49  CD2       27.0450    0.5400  -52.8490 C.ar  326  TYR326     -0.0009
     50  CE1       27.8770   -1.9860  -51.9530 C.ar  326  TYR326      0.0417
     51  CE2       27.1770    0.2930  -51.4870 C.ar  326  TYR326      0.0417
     52  CZ        27.6100   -0.9510  -51.0360 C.ar  326  TYR326      0.1957
     53  OH        27.7400   -1.2250  -49.6890 O.3   326  TYR326     -0.2866
     54  N         29.5900    4.1280  -55.8150 N.3   396  MET396     -0.1245
     55  CA        29.8480    4.2450  -54.3780 C.3   396  MET396      0.1570
     56  C         30.8470    3.1640  -53.9500 C.2   396  MET396      0.2261
     57  O         30.6270    1.9530  -54.2080 O.2   396  MET396     -0.2867
     58  CB        28.5370    4.1130  -53.5890 C.3   396  MET396      0.0387
     59  CG        28.7230    4.0800  -52.0370 C.3   396  MET396      0.0595
     60  SD        27.0880    3.8220  -51.3030 S.3   396  MET396     -0.1393
     61  CE        26.3930    5.4280  -51.4490 C.3   396  MET396      0.0692
     62  N         31.7610    1.8800  -50.6490 N.3   398  ASP398     -0.1225
     63  CA        31.1490    1.9510  -49.3450 C.3   398  ASP398      0.1805
     64  C         32.0100    1.2450  -48.3300 C.2   398  ASP398      0.2597
     65  O         32.9620    0.4700  -48.6720 O.2   398  ASP398     -0.2718
     66  CB        29.7650    1.3320  -49.4150 C.3   398  ASP398      0.1424
     67  CG        28.8130    1.8170  -48.3360 C.2   398  ASP398      0.3668
     68  OD1       29.1830    2.6660  -47.4980 O.co2 398  ASP398     -0.2456
     69  OD2       27.5630    1.3100  -48.3760 O.co2 398  ASP398     -0.2456
     70  N         31.6990    1.5250  -47.0530 N.am  399  PHE399     -0.1976
     71  CA        32.3280    0.8720  -45.9480 C.3   399  PHE399      0.1639
     72  C         33.8350    1.1000  -45.8680 C.2   399  PHE399      0.2290
     73  O         34.3510    2.0770  -46.4080 O.2   399  PHE399     -0.2864
     74  CB        31.9380   -0.6290  -45.9120 C.3   399  PHE399      0.0560
     75  CG        30.4690   -0.8670  -45.7080 C.ar  399  PHE399     -0.0200
     76  CD1       29.9050   -0.7110  -44.4460 C.ar  399  PHE399     -0.0042
     77  CD2       29.6260   -1.2200  -46.7460 C.ar  399  PHE399     -0.0042
     78  CE1       28.5260   -0.9150  -44.2440 C.ar  399  PHE399     -0.0003
     79  CE2       28.2580   -1.4130  -46.5370 C.ar  399  PHE399     -0.0003
     80  CZ        27.7050   -1.2700  -45.2920 C.ar  399  PHE399     -0.0000
     81  N         32.5270    7.0320  -47.8980 N.3   448  ARG448     -0.1245
     82  CA        32.0230    7.5800  -46.6080 C.3   448  ARG448      0.1563
     83  C         33.1270    7.4440  -45.5460 C.2   448  ARG448      0.2260
     84  O         33.3030    8.3500  -44.7740 O.2   448  ARG448     -0.2867
     85  CB        30.7170    6.9360  -46.2030 C.3   448  ARG448      0.0307
     86  CG        30.8650    5.5060  -45.7320 C.3   448  ARG448      0.0489
     87  CD        29.5350    4.9080  -45.3040 C.3   448  ARG448      0.2205
     88  NE        29.7600    3.7720  -44.4350 N.pl3 448  ARG448     -0.0865
     89  CZ        28.8170    3.0400  -43.8920 C.cat 448  ARG448      0.5346
     90  NH1       27.5400    3.2580  -44.1990 N.pl3 448  ARG448      0.1354
     91  NH2       29.1510    2.1200  -43.0000 N.pl3 448  ARG448      0.1354
     92  N         31.3280   11.4510  -49.4860 N.3   462  TRP462     -0.1241
     93  CA        29.9610   11.7420  -49.1150 C.3   462  TRP462      0.1605
     94  C         29.7590   11.5130  -47.5540 C.2   462  TRP462      0.2264
     95  O         30.5070   10.7790  -46.9650 O.2   462  TRP462     -0.2867
     96  CB        28.9390   11.0230  -49.9890 C.3   462  TRP462      0.0550
     97  CG        28.2150    9.7950  -49.3800 C.ar  462  TRP462      0.0003
     98  CD1       26.9670    9.7930  -48.8550 C.ar  462  TRP462      0.0946
     99  CD2       28.6450    8.4460  -49.3640 C.ar  462  TRP462      0.0152
    100  NE1       26.6170    8.5710  -48.4780 N.ar  462  TRP462     -0.2442
    101  CE2       27.6360    7.7060  -48.7420 C.ar  462  TRP462      0.0810
    102  CE3       29.7920    7.7830  -49.8010 C.ar  462  TRP462      0.0012
    103  CZ2       27.7230    6.3510  -48.5250 C.ar  462  TRP462      0.0191
    104  CZ3       29.8990    6.3970  -49.5530 C.ar  462  TRP462      0.0001
    105  CH2       28.8620    5.7090  -48.9260 C.ar  462  TRP462      0.0015
    106  N         25.4680    7.9390  -43.8450 N.3   465  ASP465     -0.1239
    107  CA        24.0280    7.7920  -43.5890 C.3   465  ASP465      0.1674
    108  C         23.5230    8.8090  -42.5470 C.2   465  ASP465      0.2266
    109  O         23.9170    8.7600  -41.3860 O.2   465  ASP465     -0.2867
    110  CB        23.6340    6.3760  -43.1170 C.3   465  ASP465      0.1410
    111  CG        23.9910    5.2390  -44.1150 C.2   465  ASP465      0.3668
    112  OD1       24.3590    5.4900  -45.2970 O.co2 465  ASP465     -0.2456
    113  OD2       23.8410    4.0540  -43.6900 O.co2 465  ASP465     -0.2456
    114  N         23.7030   12.3900  -49.4830 N.3   497  ASP497     -0.1239
    115  CA        22.4460   11.8390  -49.9800 C.3   497  ASP497      0.1674
    116  C         21.3530   12.8830  -50.0020 C.2   497  ASP497      0.2266
    117  O         20.9400   13.3630  -48.9680 O.2   497  ASP497     -0.2867
    118  CB        21.9500   10.7120  -49.1100 C.3   497  ASP497      0.1410
    119  CG        22.8410    9.5370  -49.1240 C.2   497  ASP497      0.3668
    120  OD1       23.4470    9.2100  -50.2040 O.co2 497  ASP497     -0.2456
    121  OD2       22.9910    8.8980  -48.0570 O.co2 497  ASP497     -0.2456
    122  N         19.1790    9.0830  -45.6070 N.3   501  TYR501     -0.1241
    123  CA        19.1660    7.6320  -45.8480 C.3   501  TYR501      0.1605
    124  C         18.4240    6.7560  -44.8290 C.2   501  TYR501      0.2264
    125  O         17.5810    5.9190  -45.1780 O.2   501  TYR501     -0.2867
    126  CB        20.6440    7.1650  -45.9140 C.3   501  TYR501      0.0534
    127  CG        20.7390    5.6620  -46.0730 C.ar  501  TYR501     -0.0201
    128  CD1       20.5440    5.0520  -47.3420 C.ar  501  TYR501     -0.0009
    129  CD2       20.9250    4.8240  -44.9610 C.ar  501  TYR501     -0.0009
    130  CE1       20.5640    3.6580  -47.4860 C.ar  501  TYR501      0.0417
    131  CE2       20.9310    3.4600  -45.1130 C.ar  501  TYR501      0.0417
    132  CZ        20.7850    2.8970  -46.3970 C.ar  501  TYR501      0.1957
    133  OH        20.7890    1.5510  -46.5670 O.3   501  TYR501     -0.2866
    134  N         19.2260    9.2990  -53.2170 N.3   530  HIS530     -0.1241
    135  CA        19.2400    7.9450  -52.6090 C.3   530  HIS530      0.1621
    136  C         17.8360    7.6030  -52.2460 C.2   530  HIS530      0.2264
    137  O         17.1040    8.4060  -51.7400 O.2   530  HIS530     -0.2867
    138  CB        20.1800    7.9150  -51.3600 C.3   530  HIS530      0.0745
    139  CG        20.7130    6.5470  -50.9910 C.ar  530  HIS530      0.0817
    140  ND1       19.9880    5.3890  -51.1100 N.ar  530  HIS530     -0.2268
    141  CD2       21.9140    6.1710  -50.5000 C.ar  530  HIS530      0.1154
    142  CE1       20.7130    4.3560  -50.7280 C.ar  530  HIS530      0.1986
    143  NE2       21.8930    4.8050  -50.3460 N.ar  530  HIS530     -0.2212
@<TRIPOS>BOND
     1    42    43    1
     2     1     2    1
     3    45    44    2
     4     3     2    1
     5     3     4    2
     6     2     5    1
     7    43    44    1
     8    43    46    1
     9    54    55    1
    10    46    47    1
    11     5     6    1
    12    55    56    1
    13    55    58    1
    14    57    56    2
    15     6     7    1
    16    47    48   ar
    17    47    49   ar
    18    58    59    1
    19    48    50   ar
    20    26    25    1
    21   134   135    1
    22    49    51   ar
    23    30    31    2
    24    30    29    1
    25    27    25    1
    26   135   136    1
    27   135   138    1
    28     7     8    2
    29     7     9   am
    30    25    22    1
    31    22    23    1
    32    22    21    1
    33   136   137    2
    34    28    29    1
    35    29    32    1
    36    23    24    2
    37    59    60    1
    38    50    52   ar
    39    13    12    2
    40    51    52   ar
    41    61    60    1
    42   138   139    1
    43    21    12   am
    44   140   139   ar
    45   140   142   ar
    46    52    53    1
    47    12    11    1
    48   139   141   ar
    49   142   143   ar
    50    32    33    1
    51    62    63    1
    52   141   143   ar
    53   120   119   ar
    54    34    33   ar
    55    34    36   ar
    56   116   115    1
    57   116   117    2
    58    96    97    1
    59    96    93    1
    60   115   114    1
    61   115   118    1
    62    33    35   ar
    63   102   104   ar
    64   102    99   ar
    65    10    11    1
    66    11    14    1
    67   104   105   ar
    68    92    93    1
    69    66    63    1
    70    66    67    1
    71    97    99   ar
    72    97    98   ar
    73    99   101   ar
    74    63    64    1
    75    36    37   ar
    76   119   118    1
    77   119   121   ar
    78    93    94    1
    79   105   103   ar
    80    98   100   ar
    81   101   103   ar
    82   101   100   ar
    83    65    64    2
    84    14    15    1
    85    35    37   ar
    86    35    38   ar
    87    69    67   ar
    88    67    68   ar
    89    64    70   am
    90    37    39   ar
    91    81    82    1
    92    38    40   ar
    93    94    95    2
    94   130   128   ar
    95   130   132   ar
    96   128   127   ar
    97    15    16    1
    98    70    71    1
    99    39    41   ar
   100    77    79   ar
   101    77    75   ar
   102    82    85    1
   103    82    83    1
   104   133   132    1
   105    79    80   ar
   106    19    18    1
   107    40    41   ar
   108    16    17    1
   109    73    72    2
   110   132   131   ar
   111    85    86    1
   112   127   126    1
   113   127   129   ar
   114    71    74    1
   115    71    72    1
   116   126   123    1
   117    74    75    1
   118   123   122    1
   119   123   124    1
   120    86    87    1
   121    75    76   ar
   122    18    17    2
   123    18    20    1
   124    83    84    2
   125    87    88    1
   126   112   111   ar
   127    80    78   ar
   128   125   124    2
   129   131   129   ar
   130    76    78   ar
   131    88    89    2
   132    90    89    1
   133   111   113   ar
   134   111   110    1
   135    89    91    1
   136   106   107    1
   137   107   110    1
   138   107   108    1
   139   108   109    2
