@<TRIPOS>MOLECULE
tmp/5aehA00.pdb
 170 170 0 0 0
SMALL
GASTEIGER

@<TRIPOS>ATOM
      1  N         20.4310   -2.3450  -30.7970 N.3    80  HIS80      -0.1226
      2  CA        21.5050   -1.3520  -30.6240 C.3    80  HIS80       0.1752
      3  C         21.9970   -0.7790  -31.9490 C.2    80  HIS80       0.2597
      4  O         22.2800   -1.5110  -32.8570 O.2    80  HIS80      -0.2718
      5  CB        22.6680   -1.9700  -29.8590 C.3    80  HIS80       0.0759
      6  CG        23.8580   -1.0790  -29.7710 C.ar   80  HIS80       0.0818
      7  ND1       24.0640   -0.2160  -28.7230 N.ar   80  HIS80      -0.2268
      8  CD2       24.8950   -0.8920  -30.6210 C.ar   80  HIS80       0.1154
      9  CE1       25.1750    0.4730  -28.9360 C.ar   80  HIS80       0.1986
     10  NE2       25.6990    0.0800  -30.0770 N.ar   80  HIS80      -0.2212
     11  N         22.0920    0.5460  -32.0490 N.am   81  GLY81      -0.1942
     12  CA        22.7690    1.1780  -33.1790 C.3    81  GLY81       0.2014
     13  C         23.9240    2.0500  -32.7360 C.2    81  GLY81       0.2640
     14  O         23.7720    2.8620  -31.8230 O.2    81  GLY81      -0.2714
     15  N         25.0920    1.8840  -33.3750 N.am   82  SER82      -0.1936
     16  CA        26.1960    2.8540  -33.1830 C.3    82  SER82       0.2040
     17  C         27.2940    2.6680  -34.2040 C.2    82  SER82       0.2485
     18  O         27.3520    1.6520  -34.8540 O.2    82  SER82      -0.2729
     19  CB        26.8420    2.6820  -31.7880 C.3    82  SER82       0.2129
     20  OG        27.5950    1.4870  -31.7300 O.3    82  SER82      -0.2179
     21  N         28.2620    3.5890  -34.2350 N.am   83  PRO83      -0.2715
     22  CA        29.3730    3.3260  -35.1460 C.3    83  PRO83       0.1536
     23  C         30.3130    2.2010  -34.7780 C.2    83  PRO83       0.2598
     24  O         31.2370    1.9730  -35.5370 O.2    83  PRO83      -0.2715
     25  CB        30.1250    4.6650  -35.1680 C.3    83  PRO83       0.0310
     26  CG        29.0570    5.6890  -34.9330 C.3    83  PRO83       0.0237
     27  CD        28.1920    5.0200  -33.8640 C.3    83  PRO83       0.0939
     28  N         30.1000    1.4980  -33.6540 N.am   84  PHE84      -0.1974
     29  CA        31.0550    0.5050  -33.1720 C.3    84  PHE84       0.1639
     30  C         30.6330   -0.9040  -33.3430 C.2    84  PHE84       0.2290
     31  O         31.2320   -1.8250  -32.7490 O.2    84  PHE84      -0.2864
     32  CB        31.3090    0.7050  -31.6790 C.3    84  PHE84       0.0560
     33  CG        31.8710    2.0360  -31.3360 C.ar   84  PHE84      -0.0200
     34  CD1       31.0530    3.1510  -31.2240 C.ar   84  PHE84      -0.0042
     35  CD2       33.2440    2.1860  -31.1070 C.ar   84  PHE84      -0.0042
     36  CE1       31.5820    4.3950  -30.8620 C.ar   84  PHE84      -0.0003
     37  CE2       33.7730    3.4080  -30.7270 C.ar   84  PHE84      -0.0003
     38  CZ        32.9480    4.5120  -30.6100 C.ar   84  PHE84      -0.0000
     39  N         33.3140   -3.5470  -34.0360 N.3    87  ALA87      -0.1231
     40  CA        34.1210   -3.8630  -32.8440 C.3    87  ALA87       0.1694
     41  C         33.3290   -4.7070  -31.8450 C.2    87  ALA87       0.2591
     42  O         33.8450   -5.7000  -31.2790 O.2    87  ALA87      -0.2718
     43  CB        34.6130   -2.5870  -32.1880 C.3    87  ALA87       0.0304
     44  N         32.0690   -4.3200  -31.6410 N.am   88  ILE88      -0.1980
     45  CA        31.1940   -4.9960  -30.6850 C.3    88  ILE88       0.1595
     46  C         31.0380   -6.4730  -30.9690 C.2    88  ILE88       0.2287
     47  O         31.1100   -7.2520  -30.0330 O.2    88  ILE88      -0.2864
     48  CB        29.8120   -4.2570  -30.5460 C.3    88  ILE88       0.0276
     49  CG1       30.0300   -2.9020  -29.8430 C.3    88  ILE88       0.0022
     50  CG2       28.8160   -5.0830  -29.7320 C.3    88  ILE88       0.0022
     51  CD1       28.9700   -1.8440  -30.1370 C.3    88  ILE88       0.0001
     52  N         34.5380   -7.9860  -29.9610 N.3    91  LYS91      -0.1231
     53  CA        35.0480   -7.8240  -28.5960 C.3    91  LYS91       0.1693
     54  C         33.9920   -7.6390  -27.4810 C.2    91  LYS91       0.2593
     55  O         34.3520   -7.6010  -26.3060 O.2    91  LYS91      -0.2718
     56  CB        36.0510   -6.6710  -28.5950 C.3    91  LYS91       0.0285
     57  CG        37.2850   -6.9850  -29.4350 C.3    91  LYS91       0.0035
     58  CD        38.1000   -5.7380  -29.7110 C.3    91  LYS91       0.0206
     59  CE        39.5620   -5.8960  -29.2880 C.3    91  LYS91       0.1093
     60  NZ        40.2720   -4.5730  -29.2640 N.3    91  LYS91      -0.1314
     61  N         32.7150   -7.4990  -27.8410 N.am   92  GLY92      -0.1942
     62  CA        31.6400   -7.3940  -26.8920 C.3    92  GLY92       0.2014
     63  C         31.3510   -5.9500  -26.6680 C.2    92  GLY92       0.2639
     64  O         32.1460   -5.1270  -27.0550 O.2    92  GLY92      -0.2714
     65  N         30.2320   -5.6240  -26.0180 N.am   93  PHE93      -0.1959
     66  CA        30.0380   -4.2460  -25.6130 C.3    93  PHE93       0.1771
     67  C         31.0770   -3.7990  -24.5680 C.2    93  PHE93       0.2619
     68  O         31.4930   -4.5860  -23.7570 O.2    93  PHE93      -0.2715
     69  CB        28.6330   -4.0640  -25.0620 C.3    93  PHE93       0.0574
     70  CG        27.5780   -4.1330  -26.0970 C.ar   93  PHE93      -0.0200
     71  CD1       27.2920   -3.0050  -26.8790 C.ar   93  PHE93      -0.0042
     72  CD2       26.8370   -5.2900  -26.2900 C.ar   93  PHE93      -0.0042
     73  CE1       26.2870   -3.0510  -27.8390 C.ar   93  PHE93      -0.0003
     74  CE2       25.8090   -5.3250  -27.2330 C.ar   93  PHE93      -0.0003
     75  CZ        25.5440   -4.2130  -28.0120 C.ar   93  PHE93      -0.0000
     76  N         31.4620   -2.5350  -24.5430 N.am   94  ASP94      -0.1971
     77  CA        32.5020   -2.0880  -23.6190 C.3    94  ASP94       0.1709
     78  C         32.1510   -0.7340  -23.1410 C.2    94  ASP94       0.2293
     79  O         32.1870    0.2260  -23.9160 O.2    94  ASP94      -0.2864
     80  CB        33.8550   -2.0340  -24.3280 C.3    94  ASP94       0.1436
     81  CG        34.9840   -1.6440  -23.4250 C.2    94  ASP94       0.3671
     82  OD1       34.7700   -1.2000  -22.2640 O.co2  94  ASP94      -0.2456
     83  OD2       36.1260   -1.7770  -23.9120 O.co2  94  ASP94      -0.2456
     84  N         34.0160    2.6920  -23.4960 N.3    97  HIS97      -0.1226
     85  CA        33.8290    3.5970  -24.6270 C.3    97  HIS97       0.1752
     86  C         32.5440    4.4770  -24.5550 C.2    97  HIS97       0.2596
     87  O         32.2870    5.2790  -25.4670 O.2    97  HIS97      -0.2718
     88  CB        33.8920    2.8190  -25.9270 C.3    97  HIS97       0.0759
     89  CG        35.2350    2.2290  -26.2030 C.ar   97  HIS97       0.0818
     90  ND1       36.1870    2.8700  -26.9710 N.ar   97  HIS97      -0.2268
     91  CD2       35.7890    1.0620  -25.8130 C.ar   97  HIS97       0.1154
     92  CE1       37.2700    2.1240  -27.0390 C.ar   97  HIS97       0.1986
     93  NE2       37.0500    1.0140  -26.3560 N.ar   97  HIS97      -0.2212
     94  N         31.7840    4.3790  -23.4610 N.am   98  ALA98      -0.1966
     95  CA        30.5180    5.1050  -23.3420 C.3    98  ALA98       0.1728
     96  C         30.7630    6.6040  -23.2110 C.2    98  ALA98       0.2616
     97  O         31.8480    7.0390  -22.8110 O.2    98  ALA98      -0.2715
     98  CB        29.6630    4.5750  -22.1890 C.3    98  ALA98       0.0334
     99  N         29.7610    7.3780  -23.6220 N.am   99  TYR99      -0.1974
    100  CA        29.8250    8.8310  -23.6170 C.3    99  TYR99       0.1639
    101  C         29.2380    9.3410  -22.3130 C.2    99  TYR99       0.2290
    102  O         28.1100    8.9880  -21.9220 O.2    99  TYR99      -0.2864
    103  CB        29.0530    9.4320  -24.8190 C.3    99  TYR99       0.0560
    104  CG        29.0040   10.9390  -24.8120 C.ar   99  TYR99      -0.0198
    105  CD1       30.1770   11.6850  -24.6680 C.ar   99  TYR99      -0.0009
    106  CD2       27.7860   11.6370  -24.9210 C.ar   99  TYR99      -0.0009
    107  CE1       30.1570   13.0810  -24.6500 C.ar   99  TYR99       0.0417
    108  CE2       27.7510   13.0450  -24.9150 C.ar   99  TYR99       0.0417
    109  CZ        28.9480   13.7650  -24.7750 C.ar   99  TYR99       0.1957
    110  OH        28.9840   15.1480  -24.7450 O.3    99  TYR99      -0.2866
    111  N         25.8250   11.4420  -22.2670 N.3   102  GLY102     -0.1210
    112  CA        24.5300   10.7800  -22.5570 C.3   102  GLY102      0.1956
    113  C         23.4200   11.2290  -21.5860 C.2   102  GLY102      0.2611
    114  O         23.6890   11.5320  -20.4130 O.2   102  GLY102     -0.2717
    115  N         22.1760   11.2790  -22.0670 N.am  103  MET103     -0.1979
    116  CA        20.9820   11.6220  -21.2260 C.3   103  MET103      0.1605
    117  C         20.9030   10.8390  -19.9120 C.2   103  MET103      0.2287
    118  O         20.4710   11.3610  -18.9090 O.2   103  MET103     -0.2864
    119  CB        19.6850   11.3760  -22.0090 C.3   103  MET103      0.0413
    120  CG        18.4460   12.0720  -21.4670 C.3   103  MET103      0.0598
    121  SD        17.0490   11.5910  -22.5200 S.3   103  MET103     -0.1393
    122  CE        17.2590   12.6810  -23.9440 C.3   103  MET103      0.0692
    123  N         26.5940    4.8830  -20.1850 N.3   107  GLY107     -0.1210
    124  CA        26.2500    3.5360  -20.4370 C.3   107  GLY107      0.1956
    125  C         26.0640    3.2810  -21.9180 C.2   107  GLY107      0.2612
    126  O         26.3830    4.1220  -22.8080 O.2   107  GLY107     -0.2717
    127  N         25.5260    2.0910  -22.1490 N.am  108  ILE108     -0.1965
    128  CA        25.3270    1.5110  -23.4420 C.3   108  ILE108      0.1727
    129  C         23.7980    1.4280  -23.6430 C.2   108  ILE108      0.2616
    130  O         23.1220    0.7520  -22.8600 O.2   108  ILE108     -0.2715
    131  CB        25.9100    0.0890  -23.4710 C.3   108  ILE108      0.0290
    132  CG1       27.3850    0.0880  -22.9900 C.3   108  ILE108      0.0022
    133  CG2       25.7770   -0.4880  -24.8750 C.3   108  ILE108      0.0023
    134  CD1       27.8580   -1.2320  -22.4570 C.3   108  ILE108      0.0001
    135  N         23.3250    2.0500  -24.7260 N.am  109  TYR109     -0.1974
    136  CA        21.9140    2.4440  -24.9710 C.3   109  TYR109      0.1639
    137  C         21.2720    1.4660  -25.9480 C.2   109  TYR109      0.2290
    138  O         21.8910    1.0560  -26.9620 O.2   109  TYR109     -0.2864
    139  CB        21.8650    3.8820  -25.5520 C.3   109  TYR109      0.0560
    140  CG        22.1040    5.0020  -24.5410 C.ar  109  TYR109     -0.0198
    141  CD1       23.3050    5.0930  -23.8740 C.ar  109  TYR109     -0.0009
    142  CD2       21.1240    5.9730  -24.2450 C.ar  109  TYR109     -0.0009
    143  CE1       23.5530    6.0760  -22.9410 C.ar  109  TYR109      0.0417
    144  CE2       21.3860    6.9950  -23.3050 C.ar  109  TYR109      0.0417
    145  CZ        22.6170    7.0230  -22.6550 C.ar  109  TYR109      0.1957
    146  OH        22.9790    7.9560  -21.6820 O.3   109  TYR109     -0.2866
    147  N         20.9750    6.2620  -34.1020 N.3   120  TYR120     -0.1241
    148  CA        22.3250    6.3040  -33.5490 C.3   120  TYR120      0.1605
    149  C         23.3950    5.6410  -34.4190 C.2   120  TYR120      0.2264
    150  O         24.5910    5.7670  -34.1210 O.2   120  TYR120     -0.2867
    151  CB        22.3310    5.6180  -32.1990 C.3   120  TYR120      0.0534
    152  CG        21.4600    6.2480  -31.1920 C.ar  120  TYR120     -0.0201
    153  CD1       21.6640    7.5660  -30.7810 C.ar  120  TYR120     -0.0009
    154  CD2       20.4480    5.5320  -30.6100 C.ar  120  TYR120     -0.0009
    155  CE1       20.8460    8.1610  -29.8450 C.ar  120  TYR120      0.0417
    156  CE2       19.6400    6.1010  -29.6490 C.ar  120  TYR120      0.0417
    157  CZ        19.8170    7.4110  -29.2730 C.ar  120  TYR120      0.1957
    158  OH        19.0040    7.9180  -28.2870 O.3   120  TYR120     -0.2866
    159  N         26.3250    7.7320  -35.0430 N.3   123  GLY123     -0.1210
    160  CA        26.6780    8.6200  -33.9400 C.3   123  GLY123      0.1956
    161  C         25.4300    9.1640  -33.3240 C.2   123  GLY123      0.2611
    162  O         24.3020    8.9020  -33.8140 O.2   123  GLY123     -0.2717
    163  N         25.6300    9.8990  -32.2290 N.am  124  ILE124     -0.1979
    164  CA        24.5320   10.4500  -31.4620 C.3   124  ILE124      0.1595
    165  C         23.8990   11.5460  -32.3020 C.2   124  ILE124      0.2287
    166  O         24.6050   12.2950  -32.9950 O.2   124  ILE124     -0.2864
    167  CB        25.0290   10.9400  -30.0800 C.3   124  ILE124      0.0276
    168  CG1       25.4790    9.7270  -29.2500 C.3   124  ILE124      0.0022
    169  CG2       23.9330   11.7050  -29.3500 C.3   124  ILE124      0.0022
    170  CD1       26.5240   10.0210  -28.2060 C.3   124  ILE124      0.0001
@<TRIPOS>BOND
     1    24    23    2
     2    25    22    1
     3    25    26    1
     4    22    23    1
     5    22    21    1
     6   159   160    1
     7    26    27    1
     8    18    17    2
     9    23    28   am
    10   149   150    2
    11   149   148    1
    12    21    17   am
    13    21    27    1
    14    17    16    1
    15   147   148    1
    16    39    40    1
    17   160   161    1
    18   162   161    2
    19    28    29    1
    20   148   151    1
    21    15    16    1
    22    15    13   am
    23    30    29    1
    24    30    31    2
    25   161   163   am
    26    16    19    1
    27    12    13    1
    28    12    11    1
    29    29    32    1
    30   166   165    2
    31     4     3    2
    32    40    43    1
    33    40    41    1
    34    13    14    2
    35   165   164    1
    36   163   164    1
    37   151   152    1
    38    11     3   am
    39     3     2    1
    40    41    44   am
    41    41    42    2
    42    19    20    1
    43    32    33    1
    44    44    45    1
    45   164   167    1
    46    33    34   ar
    47    33    35   ar
    48    34    36   ar
    49   152   153   ar
    50   152   154   ar
    51    35    37   ar
    52    46    45    1
    53    46    47    2
    54    36    38   ar
    55     1     2    1
    56   153   155   ar
    57    37    38   ar
    58    45    48    1
    59     2     5    1
    60     8    10   ar
    61     8     6   ar
    62   154   156   ar
    63    48    49    1
    64    48    50    1
    65    51    49    1
    66   167   169    1
    67   167   168    1
    68    10     9   ar
    69    52    53    1
    70     5     6    1
    71   155   157   ar
    72     6     7   ar
    73    58    57    1
    74    58    59    1
    75   156   157   ar
    76    57    56    1
    77    59    60    1
    78   157   158    1
    79   168   170    1
    80     9     7   ar
    81    53    56    1
    82    53    54    1
    83    75    73   ar
    84    75    74   ar
    85    61    54   am
    86    61    62    1
    87    73    71   ar
    88    54    55    2
    89    74    72   ar
    90    64    63    2
    91    92    90   ar
    92    92    93   ar
    93    90    89   ar
    94   138   137    2
    95    62    63    1
    96    71    70   ar
    97    63    65   am
    98    93    91   ar
    99    72    70   ar
   100    89    88    1
   101    89    91   ar
   102    70    69    1
   103    65    66    1
   104   137   136    1
   105    88    85    1
   106    66    69    1
   107    66    67    1
   108   139   136    1
   109   139   140    1
   110    87    86    2
   111   136   135    1
   112   106   108   ar
   113   106   104   ar
   114   108   109   ar
   115   133   131    1
   116   103   104    1
   117   103   100    1
   118   104   105   ar
   119   109   110    1
   120   109   107   ar
   121   135   129   am
   122   105   107   ar
   123    85    86    1
   124    85    84    1
   125    67    76   am
   126    67    68    2
   127    86    94   am
   128    76    77    1
   129   140   142   ar
   130   140   141   ar
   131    80    77    1
   132    80    81    1
   133   142   144   ar
   134   122   121    1
   135    79    78    2
   136    83    81   ar
   137   141   143   ar
   138   129   128    1
   139   129   130    2
   140    99   100    1
   141    99    96   am
   142    77    78    1
   143   100   101    1
   144   131   128    1
   145   131   132    1
   146    94    95    1
   147   128   127    1
   148    81    82   ar
   149    95    96    1
   150    95    98    1
   151   144   145   ar
   152    96    97    2
   153   132   134    1
   154   143   145   ar
   155   126   125    2
   156   145   146    1
   157   112   111    1
   158   112   113    1
   159   121   120    1
   160   101   102    2
   161   127   125   am
   162   115   113   am
   163   115   116    1
   164   119   120    1
   165   119   116    1
   166   125   124    1
   167   113   114    2
   168   116   117    1
   169   124   123    1
   170   117   118    2
