@<TRIPOS>MOLECULE
tmp/5aelB00.pdb
 230 214 0 0 0
SMALL
GASTEIGER

@<TRIPOS>ATOM
      1  N         24.9880  -23.5890    5.7030 N.3    86  GLN86      -0.1245
      2  CA        26.1830  -24.3960    5.9700 C.3    86  GLN86       0.1566
      3  C         27.4430  -23.5250    6.0200 C.2    86  GLN86       0.2260
      4  O         28.2260  -23.5840    6.9760 O.2    86  GLN86      -0.2867
      5  CB        26.3020  -25.5050    4.9100 C.3    86  GLN86       0.0367
      6  CG        27.5680  -26.3760    4.8820 C.3    86  GLN86       0.0905
      7  CD        27.7410  -27.2310    6.1250 C.2    86  GLN86       0.2608
      8  OE1       27.0350  -27.0690    7.1020 O.2    86  GLN86      -0.2717
      9  NE2       28.6920  -28.1340    6.0930 N.am   86  GLN86      -0.0878
     10  N         27.8920  -20.4320    6.5920 N.3    88  HIS88      -0.1226
     11  CA        27.8190  -19.5580    7.7400 C.3    88  HIS88       0.1752
     12  C         28.2650  -20.2630    8.9940 C.2    88  HIS88       0.2596
     13  O         29.0960  -19.7530    9.7340 O.2    88  HIS88      -0.2718
     14  CB        26.3760  -19.0710    7.9080 C.3    88  HIS88       0.0759
     15  CG        25.9750  -18.7990    9.3270 C.ar   88  HIS88       0.0818
     16  ND1       26.5610  -17.8180   10.0940 N.ar   88  HIS88      -0.2268
     17  CD2       25.0210  -19.3610   10.1050 C.ar   88  HIS88       0.1154
     18  CE1       26.0040  -17.8060   11.2910 C.ar   88  HIS88       0.1986
     19  NE2       25.0650  -18.7320   11.3190 N.ar   88  HIS88      -0.2212
     20  N         27.6960  -21.4370    9.2230 N.am   89  TYR89      -0.1962
     21  CA        28.0440  -22.2800   10.3360 C.3    89  TYR89       0.1771
     22  C         29.5210  -22.6320   10.3410 C.2    89  TYR89       0.2619
     23  O         30.1890  -22.5590   11.3710 O.2    89  TYR89      -0.2715
     24  CB        27.2630  -23.5990   10.2770 C.3    89  TYR89       0.0574
     25  CG        25.7650  -23.5230   10.4480 C.ar   89  TYR89      -0.0198
     26  CD1       25.1650  -22.5270   11.1890 C.ar   89  TYR89      -0.0009
     27  CD2       24.9480  -24.4820    9.8790 C.ar   89  TYR89      -0.0009
     28  CE1       23.7720  -22.4670   11.3400 C.ar   89  TYR89       0.0417
     29  CE2       23.5570  -24.4600   10.0560 C.ar   89  TYR89       0.0417
     30  CZ        22.9680  -23.4360   10.7700 C.ar   89  TYR89       0.1957
     31  OH        21.5970  -23.3860   10.9300 O.3    89  TYR89      -0.2866
     32  N         30.0050  -23.0660    9.1950 N.am   90  LEU90      -0.1977
     33  CA        31.3620  -23.4970    9.0970 C.3    90  LEU90       0.1596
     34  C         32.2900  -22.3640    9.4090 C.2    90  LEU90       0.2287
     35  O         33.3120  -22.5650   10.0600 O.2    90  LEU90      -0.2864
     36  CB        31.6350  -24.0550    7.7040 C.3    90  LEU90       0.0297
     37  CG        30.9640  -25.4040    7.4690 C.3    90  LEU90       0.0022
     38  CD1       31.5130  -26.0790    6.2150 C.3    90  LEU90       0.0001
     39  CD2       31.0900  -26.3500    8.6760 C.3    90  LEU90       0.0001
     40  N         31.7700  -19.7850   11.4160 N.3    92  GLU92      -0.1231
     41  CA        31.7260  -19.6290   12.8660 C.3    92  GLU92       0.1699
     42  C         32.3150  -20.8420   13.6230 C.2    92  GLU92       0.2592
     43  O         33.0390  -20.6480   14.5940 O.2    92  GLU92      -0.2718
     44  CB        30.3020  -19.3400   13.3270 C.3    92  GLU92       0.0402
     45  CG        29.5530  -18.2480   12.5260 C.3    92  GLU92       0.1161
     46  CD        30.1000  -16.7980   12.6530 C.2    92  GLU92       0.3649
     47  OE1       31.0550  -16.5370   13.4320 O.co2  92  GLU92      -0.2457
     48  OE2       29.5410  -15.9080   11.9540 O.co2  92  GLU92      -0.2457
     49  N         32.0160  -22.0600   13.1610 N.am   93  ASP93      -0.1960
     50  CA        32.4260  -23.2840   13.8190 C.3    93  ASP93       0.1840
     51  C         33.9300  -23.3360   13.8490 C.2    93  ASP93       0.2622
     52  O         34.5140  -23.6230   14.8800 O.2    93  ASP93      -0.2715
     53  CB        31.8770  -24.5330   13.0980 C.3    93  ASP93       0.1450
     54  CG        32.3630  -25.8470   13.7190 C.2    93  ASP93       0.3671
     55  OD1       31.8410  -26.2710   14.7900 O.co2  93  ASP93      -0.2456
     56  OD2       33.2620  -26.4870   13.1240 O.co2  93  ASP93      -0.2456
     57  N         34.5700  -23.0410   12.7290 N.am   94  ASP94      -0.1971
     58  CA        36.0260  -23.1030   12.6820 C.3    94  ASP94       0.1709
     59  C         36.6930  -22.2030   13.6880 C.2    94  ASP94       0.2293
     60  O         37.7380  -22.5290   14.2180 O.2    94  ASP94      -0.2864
     61  CB        36.5460  -22.7900   11.2830 C.3    94  ASP94       0.1436
     62  CG        36.3500  -23.9360   10.3480 C.2    94  ASP94       0.3671
     63  OD1       36.3280  -25.0830   10.8430 O.co2  94  ASP94      -0.2456
     64  OD2       36.2000  -23.7290    9.1220 O.co2  94  ASP94      -0.2456
     65  N         35.1230  -21.2200   16.5340 N.3    96  MET96      -0.1230
     66  CA        34.8290  -21.8800   17.7910 C.3    96  MET96       0.1702
     67  C         35.6510  -23.1870   18.0490 C.2    96  MET96       0.2592
     68  O         35.9270  -23.4980   19.1770 O.2    96  MET96      -0.2718
     69  CB        33.3600  -22.2300   17.8260 C.3    96  MET96       0.0401
     70  CG        32.3740  -21.0840   17.7040 C.3    96  MET96       0.0596
     71  SD        30.7120  -21.7270   18.0990 S.3    96  MET96      -0.1393
     72  CE        29.7140  -20.6390   17.1150 C.3    96  MET96       0.0692
     73  N         35.9930  -23.9420   17.0060 N.am   97  ASP97      -0.1974
     74  CA        36.6590  -25.2430   17.1270 C.3    97  ASP97       0.1709
     75  C         38.1610  -25.0150   16.9720 C.2    97  ASP97       0.2293
     76  O         38.9530  -25.9370   17.0530 O.2    97  ASP97      -0.2864
     77  CB        36.1560  -26.2500   16.0520 C.3    97  ASP97       0.1436
     78  CG        34.6720  -26.6550   16.2560 C.2    97  ASP97       0.3671
     79  OD1       34.1230  -26.1780   17.2450 O.co2  97  ASP97      -0.2456
     80  OD2       34.0560  -27.4530   15.4810 O.co2  97  ASP97      -0.2456
     81  N         39.9270  -24.3810   14.3660 N.3    99  SER99      -0.1217
     82  CA        40.4650  -25.1550   13.2750 C.3    99  SER99       0.1889
     83  C         41.4640  -24.3760   12.4360 C.2    99  SER99       0.2288
     84  O         41.5090  -23.1490   12.4760 O.2    99  SER99      -0.2866
     85  CB        39.3380  -25.6500   12.4000 C.3    99  SER99       0.2089
     86  OG        38.3970  -26.3200   13.2070 O.3    99  SER99      -0.2183
     87  N         40.3090  -26.0260    5.9570 N.3   102  ARG102     -0.1245
     88  CA        38.9620  -26.4120    5.5490 C.3   102  ARG102      0.1563
     89  C         38.8550  -26.4750    4.0160 C.2   102  ARG102      0.2260
     90  O         39.2410  -25.5330    3.3270 O.2   102  ARG102     -0.2867
     91  CB        37.9490  -25.4300    6.1330 C.3   102  ARG102      0.0307
     92  CG        36.5610  -25.4460    5.5070 C.3   102  ARG102      0.0489
     93  CD        35.6190  -26.4680    6.1080 C.3   102  ARG102      0.2205
     94  NE        35.2250  -26.1420    7.4930 N.pl3 102  ARG102     -0.0865
     95  CZ        34.6220  -27.0150    8.3090 C.cat 102  ARG102      0.5346
     96  NH1       34.3250  -28.2390    7.8770 N.pl3 102  ARG102      0.1354
     97  NH2       34.3020  -26.6820    9.5430 N.pl3 102  ARG102      0.1354
     98  N         24.6610  -15.7040    6.5850 N.3   127  LYS127     -0.1245
     99  CA        23.3420  -16.0850    7.0340 C.3   127  LYS127      0.1561
    100  C         22.2650  -15.1470    6.4670 C.2   127  LYS127      0.2260
    101  O         21.1680  -15.5810    6.0210 O.2   127  LYS127     -0.2867
    102  CB        23.3080  -16.0550    8.5450 C.3   127  LYS127      0.0271
    103  CG        22.1370  -16.8020    9.1140 C.3   127  LYS127      0.0035
    104  CD        22.2210  -16.6830   10.6160 C.3   127  LYS127      0.0206
    105  CE        21.4380  -17.7860   11.2910 C.3   127  LYS127      0.1093
    106  NZ        22.2720  -18.7170   12.1110 N.3   127  LYS127     -0.1314
    107  N         17.5840  -23.6210   11.8800 N.3   155  ASP155     -0.1239
    108  CA        18.7120  -22.8000   12.2240 C.3   155  ASP155      0.1674
    109  C         18.8820  -22.6310   13.7230 C.2   155  ASP155      0.2266
    110  O         19.9470  -22.8670   14.2740 O.2   155  ASP155     -0.2867
    111  CB        18.4940  -21.4410   11.6080 C.3   155  ASP155      0.1410
    112  CG        19.6520  -20.5280   11.8010 C.2   155  ASP155      0.3668
    113  OD1       20.8230  -20.9750   11.6770 O.co2 155  ASP155     -0.2456
    114  OD2       19.3540  -19.3410   12.0440 O.co2 155  ASP155     -0.2456
    115  N         20.0080  -25.8170   15.1700 N.3   158  THR158     -0.1203
    116  CA        21.4170  -25.9740   14.9590 C.3   158  THR158      0.1994
    117  C         22.2210  -25.1690   15.9980 C.2   158  THR158      0.2617
    118  O         23.1420  -25.6900   16.6140 O.2   158  THR158     -0.2717
    119  CB        21.8030  -25.5540   13.5400 C.3   158  THR158      0.1784
    120  OG1       20.9510  -26.2050   12.5930 O.3   158  THR158     -0.2211
    121  CG2       23.2650  -25.9050   13.2650 C.3   158  THR158      0.0376
    122  N         21.8570  -23.9120   16.2040 N.am  159  ALA159     -0.1979
    123  CA        22.4840  -23.0930   17.2280 C.3   159  ALA159      0.1597
    124  C         22.4360  -23.7460   18.6180 C.2   159  ALA159      0.2287
    125  O         23.3950  -23.7460   19.3820 O.2   159  ALA159     -0.2864
    126  CB        21.7790  -21.7560   17.2860 C.3   159  ALA159      0.0319
    127  N         24.7530  -26.4830   18.7890 N.3   162  GLN162     -0.1245
    128  CA        26.1180  -26.0630   18.9560 C.3   162  GLN162      0.1566
    129  C         26.4610  -25.7390   20.3930 C.2   162  GLN162      0.2260
    130  O         27.6000  -25.9050   20.7850 O.2   162  GLN162     -0.2867
    131  CB        26.5150  -24.9190   18.0270 C.3   162  GLN162      0.0367
    132  CG        27.1030  -25.5110   16.7520 C.3   162  GLN162      0.0905
    133  CD        28.6170  -25.6750   16.7210 C.2   162  GLN162      0.2608
    134  OE1       29.3500  -24.6700   16.7670 O.2   162  GLN162     -0.2717
    135  NE2       29.0960  -26.9380   16.5160 N.am  162  GLN162     -0.0878
    136  N         27.4340  -28.9240   21.9070 N.3   165  ASP165     -0.1239
    137  CA        28.7830  -29.2740   21.5060 C.3   165  ASP165      0.1674
    138  C         29.8220  -28.4660   22.2580 C.2   165  ASP165      0.2266
    139  O         30.7650  -28.9940   22.8180 O.2   165  ASP165     -0.2867
    140  CB        28.9320  -29.0770   19.9910 C.3   165  ASP165      0.1410
    141  CG        30.3660  -29.2690   19.5040 C.2   165  ASP165      0.3668
    142  OD1       31.2690  -28.5980   20.0400 O.co2 165  ASP165     -0.2456
    143  OD2       30.5990  -30.0570   18.5600 O.co2 165  ASP165     -0.2456
    144  N         22.7990  -30.3780   16.4460 N.3   202  LYS202     -0.1231
    145  CA        23.8380  -29.6680   15.6810 C.3   202  LYS202      0.1693
    146  C         23.9300  -30.1040   14.2190 C.2   202  LYS202      0.2592
    147  O         24.4380  -29.3460   13.4260 O.2   202  LYS202     -0.2718
    148  CB        25.2370  -29.7680   16.3420 C.3   202  LYS202      0.0285
    149  CG        26.0660  -30.9510   15.9070 C.3   202  LYS202      0.0035
    150  CD        27.4700  -30.9210   16.5070 C.3   202  LYS202      0.0206
    151  CE        28.3050  -32.1340   16.1240 C.3   202  LYS202      0.1093
    152  NZ        29.7640  -31.9060   16.3270 N.3   202  LYS202     -0.1314
    153  N         23.4970  -31.3260   13.8740 N.am  203  THR203     -0.1953
    154  CA        23.7200  -31.8280   12.5180 C.3   203  THR203      0.1897
    155  C         22.5610  -32.5130   11.7710 C.2   203  THR203      0.2313
    156  O         22.5250  -32.4800   10.5470 O.2   203  THR203     -0.2863
    157  CB        24.9230  -32.8010   12.5040 C.3   203  THR203      0.1794
    158  OG1       26.0930  -32.1250   12.9750 O.3   203  THR203     -0.2208
    159  CG2       25.2270  -33.3710   11.0950 C.3   203  THR203      0.0378
    160  N         19.5780  -29.7550   10.1090 N.3   206  TYR206     -0.1241
    161  CA        19.9800  -28.9640    8.9380 C.3   206  TYR206      0.1605
    162  C         20.6390  -29.7310    7.7890 C.2   206  TYR206      0.2264
    163  O         20.6250  -29.2710    6.6420 O.2   206  TYR206     -0.2867
    164  CB        20.8570  -27.8110    9.3510 C.3   206  TYR206      0.0534
    165  CG        22.3300  -28.0030    9.2380 C.ar  206  TYR206     -0.0201
    166  CD1       23.0030  -27.6320    8.0980 C.ar  206  TYR206     -0.0009
    167  CD2       23.0840  -28.4280   10.3340 C.ar  206  TYR206     -0.0009
    168  CE1       24.3970  -27.7680    8.0070 C.ar  206  TYR206      0.0417
    169  CE2       24.4690  -28.5610   10.2690 C.ar  206  TYR206      0.0417
    170  CZ        25.1270  -28.2290    9.1100 C.ar  206  TYR206      0.1957
    171  OH        26.5060  -28.3090    9.0610 O.3   206  TYR206     -0.2866
    172  N         27.2830  -37.8000   11.4260 N.3   242  GLN242     -0.1245
    173  CA        28.1070  -37.0830   12.3780 C.3   242  GLN242      0.1566
    174  C         29.1260  -38.0090   12.9640 C.2   242  GLN242      0.2260
    175  O         30.2640  -37.6110   13.1550 O.2   242  GLN242     -0.2867
    176  CB        27.2660  -36.4610   13.4820 C.3   242  GLN242      0.0367
    177  CG        28.0030  -35.4550   14.3260 C.3   242  GLN242      0.0905
    178  CD        28.9390  -34.5620   13.5340 C.2   242  GLN242      0.2608
    179  OE1       28.4990  -33.7850   12.6810 O.2   242  GLN242     -0.2717
    180  NE2       30.2360  -34.6510   13.8300 N.am  242  GLN242     -0.0878
    181  N         31.8290  -38.3440   10.6390 N.3   245  ASP245     -0.1225
    182  CA        32.6490  -37.1440   10.7150 C.3   245  ASP245      0.1805
    183  C         33.6280  -37.2600   11.8770 C.2   245  ASP245      0.2597
    184  O         34.7980  -36.9750   11.7260 O.2   245  ASP245     -0.2718
    185  CB        31.7920  -35.8980   10.9080 C.3   245  ASP245      0.1424
    186  CG        32.5950  -34.6390   10.8070 C.2   245  ASP245      0.3668
    187  OD1       33.1810  -34.4560    9.7320 O.co2 245  ASP245     -0.2456
    188  OD2       32.6780  -33.8450   11.7680 O.co2 245  ASP245     -0.2456
    189  N         33.1360  -37.6570   13.0370 N.am  246  ASP246     -0.1974
    190  CA        33.9810  -37.8550   14.2260 C.3   246  ASP246      0.1709
    191  C         35.1220  -38.8550   14.0600 C.2   246  ASP246      0.2293
    192  O         36.2200  -38.6170   14.5670 O.2   246  ASP246     -0.2864
    193  CB        33.1130  -38.3390   15.3750 C.3   246  ASP246      0.1436
    194  CG        32.2180  -37.2620   15.9310 C.2   246  ASP246      0.3671
    195  OD1       32.2830  -36.0970   15.4580 O.co2 246  ASP246     -0.2456
    196  OD2       31.4560  -37.5930   16.8680 O.co2 246  ASP246     -0.2456
    197  N         37.6020  -37.4140   11.6400 N.3   249  ASP249     -0.1239
    198  CA        38.3580  -36.3890   12.3220 C.3   249  ASP249      0.1674
    199  C         39.6040  -37.0180   12.8780 C.2   249  ASP249      0.2266
    200  O         40.6710  -36.4390   12.8220 O.2   249  ASP249     -0.2867
    201  CB        37.5880  -35.7780   13.4700 C.3   249  ASP249      0.1410
    202  CG        38.1860  -34.4790   13.9170 C.2   249  ASP249      0.3668
    203  OD1       37.9500  -33.4480   13.2240 O.co2 249  ASP249     -0.2456
    204  OD2       38.8760  -34.4660   14.9600 O.co2 249  ASP249     -0.2456
    205  N         40.7710  -31.2030    5.8370 N.3   259  LYS259     -0.1245
    206  CA        40.9000  -30.4520    7.0850 C.3   259  LYS259      0.1561
    207  C         41.6540  -31.2670    8.1220 C.2   259  LYS259      0.2260
    208  O         41.6180  -32.5040    8.0780 O.2   259  LYS259     -0.2867
    209  CB        39.5100  -30.0040    7.6210 C.3   259  LYS259      0.0271
    210  CG        38.5090  -31.1480    7.7970 C.3   259  LYS259      0.0035
    211  CD        37.1340  -30.7270    8.3180 C.3   259  LYS259      0.0206
    212  CE        36.5560  -31.7790    9.2550 C.3   259  LYS259      0.1093
    213  NZ        35.1930  -32.2020    8.8570 N.3   259  LYS259     -0.1314
    214  N         39.1570  -32.5860   17.3100 N.3   263  ASP263     -0.1239
    215  CA        38.1940  -33.0630   18.2900 C.3   263  ASP263      0.1674
    216  C         38.9070  -33.5220   19.5770 C.2   263  ASP263      0.2266
    217  O         38.3790  -33.3750   20.6680 O.2   263  ASP263     -0.2867
    218  CB        37.3230  -34.1950   17.7040 C.3   263  ASP263      0.1410
    219  CG        36.3180  -33.7230   16.6410 C.2   263  ASP263      0.3668
    220  OD1       35.9500  -32.5160   16.5520 O.co2 263  ASP263     -0.2456
    221  OD2       35.8630  -34.6050   15.8840 O.co2 263  ASP263     -0.2456
    222  N         36.4640  -32.7560   22.4460 N.3   268  LYS268     -0.1245
    223  CA        35.0930  -32.9040   22.0130 C.3   268  LYS268      0.1561
    224  C         34.4760  -34.2120   22.4860 C.2   268  LYS268      0.2260
    225  O         35.1460  -35.2430   22.5850 O.2   268  LYS268     -0.2867
    226  CB        34.9890  -32.7660   20.4900 C.3   268  LYS268      0.0271
    227  CG        35.1380  -31.3430   20.0220 C.3   268  LYS268      0.0035
    228  CD        33.9730  -30.4490   20.4240 C.3   268  LYS268      0.0206
    229  CE        34.3550  -28.9630   20.2980 C.3   268  LYS268      0.1093
    230  NZ        34.6900  -28.5410   18.9050 N.3   268  LYS268     -0.1314
@<TRIPOS>BOND
     1    90    89    2
     2    89    88    1
     3     6     5    1
     4     6     7    1
     5     5     2    1
     6    92    93    1
     7    92    91    1
     8    88    87    1
     9    88    91    1
    10     1     2    1
    11   205   206    1
    12     2     3    1
    13     3     4    2
    14   101   100    2
    15     9     7   am
    16    93    94    1
    17     7     8    2
    18    38    37    1
    19   100    99    1
    20    98    99    1
    21    10    11    1
    22   163   162    2
    23    99   102    1
    24   206   209    1
    25   206   207    1
    26    37    36    1
    27    37    39    1
    28    94    95    2
    29   209   210    1
    30    36    33    1
    31    11    14    1
    32    11    12    1
    33   162   161    1
    34   210   211    1
    35    96    95    1
    36    14    15    1
    37   168   166   ar
    38   168   170   ar
    39   208   207    2
    40   166   165   ar
    41    95    97    1
    42   211   212    1
    43   102   103    1
    44   213   212    1
    45   161   164    1
    46   161   160    1
    47    12    20   am
    48    12    13    2
    49   171   170    1
    50    33    32    1
    51    33    34    1
    52   170   169   ar
    53   103   104    1
    54    64    62   ar
    55    32    22   am
    56    20    21    1
    57   165   164    1
    58   165   167   ar
    59    15    16   ar
    60    15    17   ar
    61    34    35    2
    62   187   186   ar
    63    27    29   ar
    64    27    25   ar
    65    29    30   ar
    66    16    18   ar
    67    17    19   ar
    68   169   167   ar
    69    24    21    1
    70    24    25    1
    71    21    22    1
    72    22    23    2
    73    62    63   ar
    74    62    61    1
    75    25    26   ar
    76   156   155    2
    77   104   105    1
    78   181   182    1
    79   182   185    1
    80   182   183    1
    81    30    31    1
    82    30    28   ar
    83   186   185    1
    84   186   188   ar
    85   159   157    1
    86    26    28   ar
    87    61    58    1
    88    18    19   ar
    89   105   106    1
    90    40    41    1
    91   172   173    1
    92   111   112    1
    93   111   108    1
    94   197   198    1
    95   113   112   ar
    96   184   183    2
    97   155   154    1
    98   112   114   ar
    99   183   189   am
   100   107   108    1
   101    48    46   ar
   102   108   109    1
   103   198   199    1
   104   198   201    1
   105   173   174    1
   106   173   176    1
   107    85    86    1
   108    85    82    1
   109    83    84    2
   110    83    82    1
   111   157   154    1
   112   157   158    1
   113   154   153    1
   114    45    46    1
   115    45    44    1
   116   120   119    1
   117    46    47   ar
   118   179   178    2
   119    58    57    1
   120    58    59    1
   121    57    51   am
   122   200   199    2
   123    41    44    1
   124    41    42    1
   125   174   175    2
   126   189   190    1
   127    53    54    1
   128    53    50    1
   129    56    54   ar
   130    49    42   am
   131    49    50    1
   132   203   202   ar
   133   121   119    1
   134    82    81    1
   135   147   146    2
   136   201   202    1
   137   176   177    1
   138   178   180   am
   139   178   177    1
   140   119   116    1
   141    42    43    2
   142    59    60    2
   143    54    55   ar
   144   109   110    2
   145    50    51    1
   146    51    52    2
   147   153   146   am
   148   202   204   ar
   149   191   190    1
   150   191   192    2
   151   146   145    1
   152   190   193    1
   153   116   115    1
   154   116   117    1
   155   193   194    1
   156   195   194   ar
   157    80    78   ar
   158   145   148    1
   159   145   144    1
   160   221   219   ar
   161   149   148    1
   162   149   150    1
   163   194   196   ar
   164   117   122   am
   165   117   118    2
   166    77    78    1
   167    77    74    1
   168   151   152    1
   169   151   150    1
   170   122   123    1
   171    78    79   ar
   172   135   133   am
   173    65    66    1
   174   220   219   ar
   175   219   218    1
   176   133   132    1
   177   133   134    2
   178   132   131    1
   179    75    76    2
   180    75    74    1
   181    73    74    1
   182    73    67   am
   183    72    71    1
   184   123   126    1
   185   123   124    1
   186   214   215    1
   187   218   215    1
   188    70    69    1
   189    70    71    1
   190    66    69    1
   191    66    67    1
   192   131   128    1
   193    67    68    2
   194   215   216    1
   195   143   141   ar
   196   124   125    2
   197   127   128    1
   198   230   229    1
   199   128   129    1
   200   141   140    1
   201   141   142   ar
   202   216   217    2
   203   140   137    1
   204   227   228    1
   205   227   226    1
   206   229   228    1
   207   129   130    2
   208   226   223    1
   209   137   136    1
   210   137   138    1
   211   223   222    1
   212   223   224    1
   213   138   139    2
   214   224   225    2
