@<TRIPOS>MOLECULE
tmp/5aenA00.pdb
 189 184 0 0 0
SMALL
GASTEIGER

@<TRIPOS>ATOM
      1  N          1.4470    2.5190   -8.9610 N.3   132  GLN132     -0.1245
      2  CA         2.0450    1.9780   -7.7530 C.3   132  GLN132      0.1566
      3  C          3.2360    2.8920   -7.4260 C.2   132  GLN132      0.2260
      4  O          4.3080    2.7650   -8.0390 O.2   132  GLN132     -0.2867
      5  CB         2.5250    0.5470   -7.9900 C.3   132  GLN132      0.0367
      6  CG         3.3780    0.0120   -6.8570 C.3   132  GLN132      0.0905
      7  CD         2.6750    0.1250   -5.5400 C.2   132  GLN132      0.2608
      8  OE1        1.5620   -0.3750   -5.3910 O.2   132  GLN132     -0.2717
      9  NE2        3.2960    0.8150   -4.5800 N.am  132  GLN132     -0.0878
     10  N          4.7420    3.6010   -4.2260 N.3   134  GLN134     -0.1231
     11  CA         5.7120    3.2570   -3.1930 C.3   134  GLN134      0.1698
     12  C          6.8350    2.4420   -3.8110 C.2   134  GLN134      0.2592
     13  O          6.5480    1.5040   -4.5830 O.2   134  GLN134     -0.2718
     14  CB         5.0700    2.4830   -2.0540 C.3   134  GLN134      0.0381
     15  CG         5.9980    2.3010   -0.8530 C.3   134  GLN134      0.0905
     16  CD         5.3670    1.4610    0.2470 C.2   134  GLN134      0.2608
     17  OE1        4.8250    0.3650   -0.0100 O.2   134  GLN134     -0.2717
     18  NE2        5.4120    1.9690    1.4780 N.am  134  GLN134     -0.0878
     19  N          8.1080    2.7560   -3.5130 N.am  135  ALA135     -0.1980
     20  CA         8.5320    3.8460   -2.6000 C.3   135  ALA135      0.1597
     21  C          8.6680    5.2140   -3.2820 C.2   135  ALA135      0.2287
     22  O          8.1300    6.1990   -2.7910 O.2   135  ALA135     -0.2864
     23  CB         9.8660    3.4810   -1.9090 C.3   135  ALA135      0.0319
     24  N          2.6240   -6.5330   -6.2620 N.3   265  TYR265     -0.1241
     25  CA         2.6940   -6.7740   -4.8220 C.3   265  TYR265      0.1605
     26  C          1.4200   -7.4380   -4.2750 C.2   265  TYR265      0.2264
     27  O          0.3640   -7.4320   -4.9420 O.2   265  TYR265     -0.2867
     28  CB         2.9910   -5.4530   -4.0970 C.3   265  TYR265      0.0534
     29  CG         4.2650   -4.8160   -4.6030 C.ar  265  TYR265     -0.0201
     30  CD1        5.4960   -5.2930   -4.1920 C.ar  265  TYR265     -0.0009
     31  CD2        4.2390   -3.7720   -5.5240 C.ar  265  TYR265     -0.0009
     32  CE1        6.6760   -4.7390   -4.6510 C.ar  265  TYR265      0.0417
     33  CE2        5.4260   -3.2130   -6.0040 C.ar  265  TYR265      0.0417
     34  CZ         6.6400   -3.7160   -5.5620 C.ar  265  TYR265      0.1957
     35  OH         7.8420   -3.1910   -5.9780 O.3   265  TYR265     -0.2866
     36  N         -0.2300   -6.3710   -1.7040 N.3   267  GLY267     -0.1210
     37  CA        -1.1400   -5.2700   -1.4150 C.3   267  GLY267      0.1956
     38  C         -0.4180   -3.9400   -1.3260 C.2   267  GLY267      0.2612
     39  O          0.7970   -3.9030   -1.1140 O.2   267  GLY267     -0.2717
     40  N         -1.1660   -2.8430   -1.4880 N.am  268  MET268     -0.1965
     41  CA        -0.6380   -1.5110   -1.2480 C.3   268  MET268      0.1736
     42  C         -1.7230   -0.7070   -0.5240 C.2   268  MET268      0.2616
     43  O         -2.8710   -0.6440   -0.9790 O.2   268  MET268     -0.2715
     44  CB        -0.2440   -0.8250   -2.5570 C.3   268  MET268      0.0427
     45  CG         0.2080    0.6400   -2.3590 C.3   268  MET268      0.0599
     46  SD         1.7420    0.6800   -1.4020 S.3   268  MET268     -0.1393
     47  CE         1.6080    2.2030   -0.4800 C.3   268  MET268      0.0692
     48  N         -1.3480   -0.1270    0.6100 N.am  269  GLU269     -0.1977
     49  CA        -2.2860    0.4590    1.5660 C.3   269  GLU269      0.1602
     50  C         -2.7440    1.8490    1.1650 C.2   269  GLU269      0.2287
     51  O         -2.8280    2.7640    2.0040 O.2   269  GLU269     -0.2864
     52  CB        -1.6280    0.5500    2.9520 C.3   269  GLU269      0.0415
     53  CG        -0.3690    1.4470    2.9990 C.3   269  GLU269      0.1163
     54  CD         0.9510    0.7210    2.7130 C.2   269  GLU269      0.3649
     55  OE1        0.9660   -0.3550    2.0290 O.co2 269  GLU269     -0.2457
     56  OE2        1.9970    1.2690    3.1610 O.co2 269  GLU269     -0.2457
     57  N         13.0910    6.1440    3.8570 N.3   309  TRP309     -0.1227
     58  CA        12.9420    4.7390    3.5770 C.3   309  TRP309      0.1737
     59  C         13.9740    3.9020    4.3380 C.2   309  TRP309      0.2595
     60  O         13.8100    2.7090    4.4860 O.2   309  TRP309     -0.2718
     61  CB        12.9850    4.4910    2.0550 C.3   309  TRP309      0.0564
     62  CG        11.8390    5.1580    1.3810 C.ar  309  TRP309      0.0003
     63  CD1       11.8930    6.2330    0.5330 C.ar  309  TRP309      0.0946
     64  CD2       10.4420    4.8570    1.5550 C.ar  309  TRP309      0.0152
     65  NE1       10.6290    6.6040    0.1660 N.ar  309  TRP309     -0.2442
     66  CE2        9.7180    5.7830    0.7800 C.ar  309  TRP309      0.0810
     67  CE3        9.7380    3.9040    2.3020 C.ar  309  TRP309      0.0012
     68  CZ2        8.3270    5.7720    0.7080 C.ar  309  TRP309      0.0191
     69  CZ3        8.3510    3.8930    2.2390 C.ar  309  TRP309      0.0001
     70  CH2        7.6590    4.8130    1.4410 C.ar  309  TRP309      0.0015
     71  N         15.0250    4.5200    4.8560 N.am  310  ASP310     -0.1974
     72  CA        15.9410    3.7690    5.7220 C.3   310  ASP310      0.1709
     73  C         15.2040    3.2120    6.9530 C.2   310  ASP310      0.2293
     74  O         15.6490    2.2180    7.5520 O.2   310  ASP310     -0.2864
     75  CB        17.1090    4.6430    6.1980 C.3   310  ASP310      0.1436
     76  CG        18.0540    5.0310    5.0760 C.2   310  ASP310      0.3671
     77  OD1       18.0950    4.3460    4.0350 O.co2 310  ASP310     -0.2456
     78  OD2       18.7690    6.0400    5.2390 O.co2 310  ASP310     -0.2456
     79  N         11.9850    2.1950    6.9930 N.3   312  PHE312     -0.1241
     80  CA        10.8340    1.4350    6.4670 C.3   312  PHE312      0.1605
     81  C         10.3270    0.3970    7.4690 C.2   312  PHE312      0.2264
     82  O          9.1350    0.0900    7.5080 O.2   312  PHE312     -0.2867
     83  CB        11.2550    0.8020    5.1320 C.3   312  PHE312      0.0534
     84  CG        10.1690    0.0330    4.4180 C.ar  312  PHE312     -0.0203
     85  CD1        8.9390    0.6090    4.1510 C.ar  312  PHE312     -0.0042
     86  CD2       10.4090   -1.2630    3.9710 C.ar  312  PHE312     -0.0042
     87  CE1        7.9390   -0.0950    3.4620 C.ar  312  PHE312     -0.0003
     88  CE2        9.4070   -1.9890    3.2960 C.ar  312  PHE312     -0.0003
     89  CZ         8.1700   -1.3850    3.0470 C.ar  312  PHE312     -0.0000
     90  N          6.5750   -1.3840    8.4880 N.3   316  GLU316     -0.1245
     91  CA         6.2150   -2.7790    8.2730 C.3   316  GLU316      0.1567
     92  C          6.1850   -3.6320    9.5410 C.2   316  GLU316      0.2260
     93  O          5.2850   -4.4160    9.6930 O.2   316  GLU316     -0.2867
     94  CB         7.0850   -3.4120    7.1840 C.3   316  GLU316      0.0388
     95  CG         6.9680   -2.7120    5.8360 C.3   316  GLU316      0.1160
     96  CD         5.5240   -2.6130    5.3730 C.2   316  GLU316      0.3649
     97  OE1        4.7210   -3.5030    5.7420 O.co2 316  GLU316     -0.2457
     98  OE2        5.1890   -1.6230    4.6840 O.co2 316  GLU316     -0.2457
     99  N         21.2580   -5.7000    3.5840 N.3   360  PHE360     -0.1241
    100  CA        19.8050   -5.6030    3.6390 C.3   360  PHE360      0.1605
    101  C         19.1370   -6.6480    4.5120 C.2   360  PHE360      0.2264
    102  O         17.9020   -6.7720    4.5220 O.2   360  PHE360     -0.2867
    103  CB        19.2470   -5.5230    2.2290 C.3   360  PHE360      0.0534
    104  CG        19.5520   -4.2060    1.5900 C.ar  360  PHE360     -0.0203
    105  CD1       18.8940   -3.0630    2.0170 C.ar  360  PHE360     -0.0042
    106  CD2       20.5450   -4.0860    0.6480 C.ar  360  PHE360     -0.0042
    107  CE1       19.1950   -1.8210    1.4740 C.ar  360  PHE360     -0.0003
    108  CE2       20.8520   -2.8660    0.0910 C.ar  360  PHE360     -0.0003
    109  CZ        20.1800   -1.7210    0.5130 C.ar  360  PHE360     -0.0000
    110  N         18.0350   -4.2680    9.9780 N.3   363  LEU363     -0.1245
    111  CA        16.6920   -3.7450   10.2020 C.3   363  LEU363      0.1561
    112  C         16.6140   -2.2980    9.7170 C.2   363  LEU363      0.2260
    113  O         15.7420   -1.9480    8.8970 O.2   363  LEU363     -0.2867
    114  CB        16.3300   -3.8320   11.6890 C.3   363  LEU363      0.0270
    115  CG        14.8850   -3.4710   12.0790 C.3   363  LEU363      0.0019
    116  CD1       13.8930   -4.3850   11.4140 C.3   363  LEU363      0.0001
    117  CD2       14.7170   -3.5220   13.5650 C.3   363  LEU363      0.0001
    118  N         18.4320    0.3190    7.4480 N.3   365  VAL365     -0.1245
    119  CA        19.3090    0.1870    6.3070 C.3   365  VAL365      0.1561
    120  C         19.8250    1.5530    5.8750 C.2   365  VAL365      0.2260
    121  O         19.3990    2.5820    6.4060 O.2   365  VAL365     -0.2867
    122  CB        18.5940   -0.5640    5.1330 C.3   365  VAL365      0.0252
    123  CG1       18.1360   -1.9330    5.6140 C.3   365  VAL365      0.0019
    124  CG2       17.4180    0.2120    4.6100 C.3   365  VAL365      0.0019
    125  N         20.1110    3.3040    2.3080 N.3   367  LEU367     -0.1245
    126  CA        19.7740    3.2200    0.8900 C.3   367  LEU367      0.1561
    127  C         20.5990    4.1620    0.0030 C.2   367  LEU367      0.2260
    128  O         20.2780    4.3420   -1.1700 O.2   367  LEU367     -0.2867
    129  CB        18.2780    3.4840    0.6740 C.3   367  LEU367      0.0270
    130  CG        17.3780    2.3800    1.2350 C.3   367  LEU367      0.0019
    131  CD1       15.9330    2.8540    1.2640 C.3   367  LEU367      0.0001
    132  CD2       17.5120    1.1080    0.4340 C.3   367  LEU367      0.0001
    133  N         15.6410    1.4890   -3.9680 N.3   372  PRO372     -0.2102
    134  CA        14.7430    0.8400   -2.9920 C.3   372  PRO372      0.1504
    135  C         14.1010   -0.4520   -3.5220 C.2   372  PRO372      0.2575
    136  O         13.9520   -1.4160   -2.7670 O.2   372  PRO372     -0.2718
    137  CB        13.6670    1.9120   -2.7650 C.3   372  PRO372      0.0282
    138  CG        14.4420    3.1970   -2.9440 C.3   372  PRO372      0.0208
    139  CD        15.3600    2.9320   -4.0870 C.3   372  PRO372      0.0893
    140  N         13.7470   -0.4760   -4.8050 N.am  373  ASP373     -0.1974
    141  CA        13.1260   -1.6710   -5.3900 C.3   373  ASP373      0.1708
    142  C         14.0580   -2.8740   -5.4020 C.2   373  ASP373      0.2293
    143  O         13.5980   -4.0180   -5.3400 O.2   373  ASP373     -0.2864
    144  CB        12.6550   -1.3890   -6.8080 C.3   373  ASP373      0.1436
    145  CG        11.3970   -0.5350   -6.8420 C.2   373  ASP373      0.3671
    146  OD1       10.6610   -0.5400   -5.8370 O.co2 373  ASP373     -0.2456
    147  OD2       11.1460    0.1300   -7.8660 O.co2 373  ASP373     -0.2456
    148  N         16.4070   -3.2820   -3.0730 N.3   375  ALA375     -0.1231
    149  CA        16.5780   -3.6350   -1.6630 C.3   375  ALA375      0.1694
    150  C         15.3750   -4.3540   -1.0250 C.2   375  ALA375      0.2592
    151  O         15.5200   -5.0890   -0.0340 O.2   375  ALA375     -0.2718
    152  CB        16.9000   -2.4070   -0.8720 C.3   375  ALA375      0.0304
    153  N         14.1910   -4.1390   -1.5910 N.am  376  TYR376     -0.1962
    154  CA        12.9560   -4.5840   -0.9770 C.3   376  TYR376      0.1771
    155  C         12.9420   -6.0960   -0.7520 C.2   376  TYR376      0.2620
    156  O         13.2620   -6.8530   -1.6630 O.2   376  TYR376     -0.2715
    157  CB        11.7710   -4.1780   -1.8640 C.3   376  TYR376      0.0574
    158  CG        10.4360   -4.5990   -1.2950 C.ar  376  TYR376     -0.0198
    159  CD1        9.8030   -3.8500   -0.3010 C.ar  376  TYR376     -0.0009
    160  CD2        9.7910   -5.7350   -1.7770 C.ar  376  TYR376     -0.0009
    161  CE1        8.5910   -4.2490    0.2350 C.ar  376  TYR376      0.0417
    162  CE2        8.5760   -6.1430   -1.2550 C.ar  376  TYR376      0.0417
    163  CZ         7.9760   -5.3950   -0.2530 C.ar  376  TYR376      0.1957
    164  OH         6.7660   -5.8280    0.2530 O.3   376  TYR376     -0.2866
    165  N         12.5650   -6.5080    0.4660 N.am  377  SER377     -0.1950
    166  CA        12.3720   -7.9110    0.8280 C.3   377  SER377      0.1924
    167  C         11.4710   -7.9680    2.0660 C.2   377  SER377      0.2314
    168  O         11.0390   -6.9310    2.5950 O.2   377  SER377     -0.2863
    169  CB        13.7010   -8.5590    1.1860 C.3   377  SER377      0.2116
    170  OG        14.1270   -8.0790    2.4610 O.3   377  SER377     -0.2180
    171  N         12.3820   -6.2140    6.5200 N.3   380  PRO380     -0.2102
    172  CA        11.8660   -5.1840    7.4480 C.3   380  PRO380      0.1504
    173  C         10.5420   -5.5900    8.0870 C.2   380  PRO380      0.2575
    174  O         10.2670   -5.1780    9.2290 O.2   380  PRO380     -0.2718
    175  CB        11.6980   -3.9300    6.5610 C.3   380  PRO380      0.0282
    176  CG        11.8390   -4.3860    5.1520 C.3   380  PRO380      0.0208
    177  CD        12.6920   -5.6600    5.1920 C.3   380  PRO380      0.0893
    178  N          9.7660   -6.4140    7.3700 N.am  381  TYR381     -0.1977
    179  CA         8.5170   -6.9900    7.8870 C.3   381  TYR381      0.1639
    180  C          8.7780   -7.9570    9.0600 C.2   381  TYR381      0.2290
    181  O          8.2490   -7.7660   10.1450 O.2   381  TYR381     -0.2864
    182  CB         7.7740   -7.7510    6.7870 C.3   381  TYR381      0.0560
    183  CG         7.2820   -6.9440    5.6170 C.ar  381  TYR381     -0.0198
    184  CD1        8.1680   -6.4140    4.6810 C.ar  381  TYR381     -0.0009
    185  CD2        5.9330   -6.7360    5.4240 C.ar  381  TYR381     -0.0009
    186  CE1        7.7120   -5.6790    3.5930 C.ar  381  TYR381      0.0417
    187  CE2        5.4530   -6.0040    4.3320 C.ar  381  TYR381      0.0417
    188  CZ         6.3470   -5.4880    3.4200 C.ar  381  TYR381      0.1957
    189  OH         5.8840   -4.7370    2.3640 O.3   381  TYR381     -0.2866
@<TRIPOS>BOND
     1     1     2    1
     2     4     3    2
     3     5     2    1
     4     5     6    1
     5   147   145   ar
     6     2     3    1
     7     6     7    1
     8   145   144    1
     9   145   146   ar
    10   144   141    1
    11    24    25    1
    12    33    34   ar
    13    33    31   ar
    14    35    34    1
    15    34    32   ar
    16     7     8    2
    17     7     9   am
    18    31    29   ar
    19   142   141    1
    20   142   143    2
    21   141   140    1
    22    27    26    2
    23    25    26    1
    24    25    28    1
    25   140   135   am
    26    32    30   ar
    27    29    30   ar
    28    29    28    1
    29    13    12    2
    30    10    11    1
    31   139   133    1
    32   139   138    1
    33   133   134    1
    34    12    19   am
    35    12    11    1
    36   135   134    1
    37   135   136    2
    38    19    20    1
    39    21    22    2
    40    21    20    1
    41    11    14    1
    42   148   149    1
    43   134   137    1
    44   138   137    1
    45    20    23    1
    46    44    45    1
    47    44    41    1
    48    45    46    1
    49    14    15    1
    50   157   158    1
    51   157   154    1
    52   160   158   ar
    53   160   162   ar
    54    36    37    1
    55   149   150    1
    56   149   152    1
    57   156   155    2
    58   153   150   am
    59   153   154    1
    60    40    38   am
    61    40    41    1
    62    37    38    1
    63    46    47    1
    64    38    39    2
    65   158   159   ar
    66   162   163   ar
    67    41    42    1
    68   128   127    2
    69   150   151    2
    70    43    42    2
    71   154   155    1
    72    15    16    1
    73   155   165   am
    74    42    48   am
    75   159   161   ar
    76   163   161   ar
    77   163   164    1
    78    17    16    2
    79   127   126    1
    80   108   109   ar
    81   108   106   ar
    82    65    63   ar
    83    65    66   ar
    84    16    18   am
    85   132   130    1
    86   165   166    1
    87   109   107   ar
    88    63    62   ar
    89    48    49    1
    90   106   104   ar
    91   129   126    1
    92   129   130    1
    93    68    66   ar
    94    68    70   ar
    95    66    64   ar
    96   166   169    1
    97   166   167    1
    98   126   125    1
    99    50    49    1
   100    50    51    2
   101   169   170    1
   102   130   131    1
   103    62    64   ar
   104    62    61    1
   105    70    69   ar
   106   107   105   ar
   107    64    67   ar
   108    49    52    1
   109   104   105   ar
   110   104   103    1
   111    55    54   ar
   112    61    58    1
   113   167   168    2
   114   103   100    1
   115    69    67   ar
   116   189   188    1
   117    54    53    1
   118    54    56   ar
   119    52    53    1
   120    89    88   ar
   121    89    87   ar
   122    88    86   ar
   123   188   186   ar
   124   188   187   ar
   125    87    85   ar
   126    58    57    1
   127    58    59    1
   128    99   100    1
   129   186   184   ar
   130   100   101    1
   131    86    84   ar
   132    77    76   ar
   133    85    84   ar
   134   187   185   ar
   135    59    60    2
   136    59    71   am
   137    84    83    1
   138   101   102    2
   139   124   122    1
   140   184   183   ar
   141    98    96   ar
   142    71    72    1
   143    76    78   ar
   144    76    75    1
   145    83    80    1
   146   122   123    1
   147   122   119    1
   148   176   177    1
   149   176   175    1
   150   177   171    1
   151    96    97   ar
   152    96    95    1
   153   185   183   ar
   154   183   182    1
   155    72    75    1
   156    72    73    1
   157    95    94    1
   158   120   119    1
   159   120   121    2
   160   119   118    1
   161    80    79    1
   162    80    81    1
   163   171   172    1
   164   175   172    1
   165   182   179    1
   166    73    74    2
   167    94    91    1
   168   178   179    1
   169   178   173   am
   170   172   173    1
   171    81    82    2
   172   179   180    1
   173   173   174    2
   174    91    90    1
   175    91    92    1
   176   113   112    2
   177   180   181    2
   178    92    93    2
   179   112   111    1
   180   110   111    1
   181   111   114    1
   182   116   115    1
   183   114   115    1
   184   115   117    1
