@<TRIPOS>MOLECULE
tmp/5aepA00.pdb
 157 147 0 0 0
SMALL
GASTEIGER

@<TRIPOS>ATOM
      1  N         32.8410   10.2530  -10.0170 N.3    16  LEU16      -0.1231
      2  CA        32.0190   10.2460   -8.7990 C.3    16  LEU16       0.1693
      3  C         31.2400   11.5580   -8.6970 C.2    16  LEU16       0.2593
      4  O         30.0940   11.5450   -8.2940 O.2    16  LEU16      -0.2718
      5  CB        32.7990    9.9260   -7.4950 C.3    16  LEU16       0.0284
      6  CG        33.4820    8.5560   -7.3210 C.3    16  LEU16       0.0019
      7  CD1       34.2530    8.5710   -5.9990 C.3    16  LEU16       0.0001
      8  CD2       32.6340    7.2890   -7.3820 C.3    16  LEU16       0.0001
      9  N         31.8410   12.6790   -9.0600 N.am   17  GLY17      -0.1942
     10  CA        31.0400   13.9220   -9.2100 C.3    17  GLY17       0.2014
     11  C         31.9190   15.0460   -9.6520 C.2    17  GLY17       0.2639
     12  O         33.1390   14.8840   -9.6660 O.2    17  GLY17      -0.2714
     13  N         31.3010   16.1950   -9.9730 N.am   18  LYS18      -0.1963
     14  CA        31.9210   17.3730  -10.5620 C.3    18  LYS18       0.1728
     15  C         31.1870   18.5630   -9.9990 C.2    18  LYS18       0.2616
     16  O         29.9950   18.4440   -9.6730 O.2    18  LYS18      -0.2715
     17  CB        31.6660   17.4460  -12.0630 C.3    18  LYS18       0.0311
     18  CG        32.5350   16.5460  -12.8800 C.3    18  LYS18       0.0038
     19  CD        32.2360   16.7240  -14.3500 C.3    18  LYS18       0.0206
     20  CE        33.5280   16.5900  -15.1330 C.3    18  LYS18       0.1093
     21  NZ        33.3280   16.7910  -16.5840 N.3    18  LYS18      -0.1314
     22  N         31.8990   19.6530   -9.8010 N.am   19  GLY19      -0.1955
     23  CA        31.2950   20.9270   -9.5640 C.3    19  GLY19       0.1869
     24  C         32.2220   22.0740   -9.8240 C.2    19  GLY19       0.2309
     25  O         33.3240   22.0780   -9.3430 O.2    19  GLY19      -0.2863
     26  N         36.2870   21.5670   -9.7210 N.3    22  GLY22      -0.1210
     27  CA        36.8370   20.2070   -9.4880 C.3    22  GLY22       0.1956
     28  C         36.0180   18.9770   -9.8790 C.2    22  GLY22       0.2613
     29  O         34.8050   19.0480  -10.1920 O.2    22  GLY22      -0.2717
     30  N         36.6720   17.8260   -9.8970 N.am   23  SER23      -0.1938
     31  CA        35.9350   16.5830   -9.9890 C.3    23  SER23       0.2055
     32  C         36.5930   15.5720   -9.1290 C.2    23  SER23       0.2642
     33  O         37.8180   15.6710   -8.8550 O.2    23  SER23      -0.2714
     34  CB        35.8200   16.0440  -11.4460 C.3    23  SER23       0.2130
     35  OG        37.0220   15.4570  -11.8610 O.3    23  SER23      -0.2179
     36  N         35.7990   14.5660   -8.7630 N.am   24  VAL24      -0.1977
     37  CA        36.2700   13.4330   -7.9930 C.3    24  VAL24       0.1596
     38  C         36.0170   12.1600   -8.7540 C.2    24  VAL24       0.2287
     39  O         34.8900   11.9650   -9.2740 O.2    24  VAL24      -0.2864
     40  CB        35.6030   13.4000   -6.6230 C.3    24  VAL24       0.0276
     41  CG1       36.1040   12.2090   -5.8120 C.3    24  VAL24       0.0022
     42  CG2       35.9160   14.6950   -5.9430 C.3    24  VAL24       0.0022
     43  N         39.5770    7.6160   -3.7010 N.3    41  ALA41      -0.1245
     44  CA        38.8840    8.7390   -4.3370 C.3    41  ALA41       0.1562
     45  C         39.9750    9.7470   -4.6540 C.2    41  ALA41       0.2260
     46  O         40.8670   10.0160   -3.8080 O.2    41  ALA41      -0.2867
     47  CB        37.8790    9.3480   -3.3620 C.3    41  ALA41       0.0290
     48  N         40.4660   13.7220   -5.9860 N.3    43  LYS43      -0.1245
     49  CA        39.9960   15.0110   -6.4300 C.3    43  LYS43       0.1561
     50  C         41.0300   15.7540   -7.2600 C.2    43  LYS43       0.2260
     51  O         42.2300   15.8310   -6.8790 O.2    43  LYS43      -0.2867
     52  CB        39.4840   15.8470   -5.2750 C.3    43  LYS43       0.0271
     53  CG        38.9460   17.2530   -5.6930 C.3    43  LYS43       0.0035
     54  CD        38.0500   17.7810   -4.5600 C.3    43  LYS43       0.0206
     55  CE        37.4080   19.0780   -5.0080 C.3    43  LYS43       0.1093
     56  NZ        36.6710   19.8160   -3.9570 N.3    43  LYS43      -0.1314
     57  N         36.0730   12.9220    5.9880 N.3    72  VAL72      -0.1245
     58  CA        36.7290   11.9790    5.0700 C.3    72  VAL72       0.1561
     59  C         38.3000   12.0560    5.2500 C.2    72  VAL72       0.2260
     60  O         38.8860   13.1690    5.4540 O.2    72  VAL72      -0.2867
     61  CB        36.2460   12.2250    3.5920 C.3    72  VAL72       0.0252
     62  CG1       36.7420   13.5610    3.0050 C.3    72  VAL72       0.0019
     63  CG2       36.5940   11.0500    2.6980 C.3    72  VAL72       0.0019
     64  N         42.1790   10.3940   -1.4000 N.3    87  MET87      -0.1230
     65  CA        41.3480   10.1890   -0.1590 C.3    87  MET87       0.1702
     66  C         40.8560    8.7970   -0.0400 C.2    87  MET87       0.2592
     67  O         40.8390    8.0520   -1.0430 O.2    87  MET87      -0.2718
     68  CB        40.1630   11.1610   -0.1460 C.3    87  MET87       0.0401
     69  CG        40.5570   12.6170   -0.2360 C.3    87  MET87       0.0596
     70  SD        39.1570   13.7560   -0.5130 S.3    87  MET87      -0.1393
     71  CE        38.9260   13.5010   -2.3300 C.3    87  MET87       0.0692
     72  N         40.3990    8.3800    1.1470 N.am   88  GLU88      -0.1966
     73  CA        39.7550    7.0740    1.2160 C.3    88  GLU88       0.1733
     74  C         38.4830    7.1450    0.3110 C.2    88  GLU88       0.2616
     75  O         37.8820    8.2210    0.1310 O.2    88  GLU88      -0.2715
     76  CB        39.3620    6.7160    2.6720 C.3    88  GLU88       0.0429
     77  CG        38.2870    7.6970    3.1900 C.3    88  GLU88       0.1163
     78  CD        37.8590    7.4590    4.6470 C.2    88  GLU88       0.3649
     79  OE1       38.0950    6.3390    5.1670 O.co2  88  GLU88      -0.2457
     80  OE2       37.3530    8.4320    5.2990 O.co2  88  GLU88      -0.2457
     81  N         38.1080    6.0000   -0.2770 N.am   89  TYR89      -0.1960
     82  CA        36.8890    5.9220   -1.0800 C.3    89  TYR89       0.1771
     83  C         35.7420    5.4600   -0.1450 C.2    89  TYR89       0.2619
     84  O         35.8610    4.4490    0.5180 O.2    89  TYR89      -0.2715
     85  CB        37.0610    4.9110   -2.2070 C.3    89  TYR89       0.0574
     86  CG        35.7830    4.6860   -2.9510 C.ar   89  TYR89      -0.0198
     87  CD1       35.1660    5.7130   -3.6750 C.ar   89  TYR89      -0.0009
     88  CD2       35.1870    3.4320   -2.9220 C.ar   89  TYR89      -0.0009
     89  CE1       33.9360    5.4930   -4.3260 C.ar   89  TYR89       0.0417
     90  CE2       34.0010    3.1790   -3.5740 C.ar   89  TYR89       0.0417
     91  CZ        33.3800    4.1720   -4.2610 C.ar   89  TYR89       0.1957
     92  OH        32.1840    3.8420   -4.8850 O.3    89  TYR89      -0.2866
     93  N         34.6390    6.1900   -0.1210 N.am   90  LEU90      -0.1977
     94  CA        33.4690    5.8250    0.7440 C.3    90  LEU90       0.1596
     95  C         32.3750    5.2690   -0.1410 C.2    90  LEU90       0.2287
     96  O         31.8930    5.9300   -1.0380 O.2    90  LEU90      -0.2864
     97  CB        32.9870    7.0120    1.6160 C.3    90  LEU90       0.0297
     98  CG        34.0920    7.5840    2.5260 C.3    90  LEU90       0.0022
     99  CD1       33.5650    8.7770    3.3530 C.3    90  LEU90       0.0001
    100  CD2       34.6840    6.5540    3.4690 C.3    90  LEU90       0.0001
    101  N         28.3430    6.3270   -1.3490 N.3    93  GLY93      -0.1210
    102  CA        28.0940    7.5740   -2.0810 C.3    93  GLY93       0.1956
    103  C         27.7010    8.7540   -1.1840 C.2    93  GLY93       0.2612
    104  O         27.9510    8.7800    0.0590 O.2    93  GLY93      -0.2717
    105  N         27.1010    9.7530   -1.7990 N.am   94  SER94      -0.1952
    106  CA        26.7160   10.9680   -1.0390 C.3    94  SER94       0.1924
    107  C         25.4200   10.7330   -0.2720 C.2    94  SER94       0.2314
    108  O         24.5680    9.9400   -0.6940 O.2    94  SER94      -0.2863
    109  CB        26.5260   12.1590   -1.9730 C.3    94  SER94       0.2116
    110  OG        25.1960   12.1510   -2.5090 O.3    94  SER94      -0.2180
    111  N         22.1400   11.2670   -2.1990 N.3    97  ASP97      -0.1239
    112  CA        21.7870   10.1420   -3.0760 C.3    97  ASP97       0.1674
    113  C         21.2900    8.9490   -2.3020 C.2    97  ASP97       0.2266
    114  O         20.2550    8.3440   -2.6730 O.2    97  ASP97      -0.2867
    115  CB        23.0000    9.7910   -3.9280 C.3    97  ASP97       0.1410
    116  CG        23.2460   10.8310   -4.9870 C.2    97  ASP97       0.3668
    117  OD1       22.4220   11.7440   -5.1660 O.co2  97  ASP97      -0.2456
    118  OD2       24.2740   10.7630   -5.6580 O.co2  97  ASP97      -0.2456
    119  N         24.4830   17.0470   -0.0450 N.3   138  ARG138     -0.1231
    120  CA        25.2400   16.5790   -1.2400 C.3   138  ARG138      0.1694
    121  C         26.7630   16.5340   -0.8960 C.2   138  ARG138      0.2592
    122  O         27.5200   15.8150   -1.5710 O.2   138  ARG138     -0.2718
    123  CB        25.0320   17.4840   -2.4480 C.3   138  ARG138      0.0321
    124  CG        25.3880   18.9160   -2.2170 C.3   138  ARG138      0.0489
    125  CD        25.3240   19.7090   -3.5100 C.3   138  ARG138      0.2205
    126  NE        25.4150   21.1420   -3.1750 N.pl3 138  ARG138     -0.0865
    127  CZ        26.5460   21.8430   -3.0500 C.cat 138  ARG138      0.5346
    128  NH1       27.7280   21.2690   -3.2600 N.pl3 138  ARG138      0.1354
    129  NH2       26.5010   23.1290   -2.7240 N.pl3 138  ARG138      0.1354
    130  N         27.2050   17.3100    0.1100 N.am  139  ASN139     -0.1974
    131  CA        28.6440   17.2350    0.5210 C.3   139  ASN139      0.1688
    132  C         28.9630   16.3230    1.6800 C.2   139  ASN139      0.2292
    133  O         30.1280   16.3010    2.2140 O.2   139  ASN139     -0.2864
    134  CB        29.1180   18.6430    0.7890 C.3   139  ASN139      0.1181
    135  CG        29.1380   19.4320   -0.4640 C.2   139  ASN139      0.2629
    136  OD1       29.5140   18.8900   -1.5140 O.2   139  ASN139     -0.2716
    137  ND2       28.7350   20.7030   -0.4050 N.am  139  ASN139     -0.0877
    138  N         29.0370   12.2360    2.9280 N.3   141  LEU141     -0.1245
    139  CA        29.2450   10.9320    2.2550 C.3   141  LEU141      0.1561
    140  C         28.9650    9.8550    3.2300 C.2   141  LEU141      0.2260
    141  O         29.1230   10.0390    4.4680 O.2   141  LEU141     -0.2867
    142  CB        30.7320   10.7700    1.7900 C.3   141  LEU141      0.0270
    143  CG        31.2690   11.8120    0.8360 C.3   141  LEU141      0.0019
    144  CD1       32.8070   11.6160    0.7550 C.3   141  LEU141      0.0001
    145  CD2       30.5630   11.7270   -0.5240 C.3   141  LEU141      0.0001
    146  N         32.4920   15.4070    3.3600 N.3   151  GLY151     -0.1210
    147  CA        33.3170   14.7490    2.2930 C.3   151  GLY151      0.1956
    148  C         33.8740   15.6760    1.2300 C.2   151  GLY151      0.2611
    149  O         34.4890   15.2280    0.2580 O.2   151  GLY151     -0.2717
    150  N         33.6630   16.9680    1.3820 N.am  152  ASP152     -0.1973
    151  CA        34.2500   17.9170    0.4170 C.3   152  ASP152      0.1709
    152  C         34.4450   19.1950    1.1790 C.2   152  ASP152      0.2293
    153  O         33.6440   19.4640    2.0590 O.2   152  ASP152     -0.2864
    154  CB        33.3260   18.2350   -0.7530 C.3   152  ASP152      0.1436
    155  CG        34.0100   19.0560   -1.8080 C.2   152  ASP152      0.3671
    156  OD1       34.8220   18.4520   -2.6050 O.co2 152  ASP152     -0.2456
    157  OD2       33.7860   20.3010   -1.8350 O.co2 152  ASP152     -0.2456
@<TRIPOS>BOND
     1    21    20    1
     2    20    19    1
     3    19    18    1
     4    18    17    1
     5    17    14    1
     6    35    34    1
     7    34    31    1
     8    14    15    1
     9    14    13    1
    10    29    28    2
    11     1     2    1
    12    15    22   am
    13    15    16    2
    14    31    30    1
    15    31    32    1
    16    13    11   am
    17    30    28   am
    18    28    27    1
    19    24    23    1
    20    24    25    2
    21    22    23    1
    22    26    27    1
    23    12    11    2
    24    11    10    1
    25    39    38    2
    26    10     9    1
    27    32    33    2
    28    32    36   am
    29     9     3   am
    30     2     3    1
    31     2     5    1
    32    36    37    1
    33    38    37    1
    34     3     4    2
    35    37    40    1
    36     5     6    1
    37     8     6    1
    38     6     7    1
    39    50    51    2
    40    50    49    1
    41    40    42    1
    42    40    41    1
    43    49    48    1
    44    49    52    1
    45    53    52    1
    46    53    54    1
    47   118   116   ar
    48   117   116   ar
    49    55    54    1
    50    55    56    1
    51   116   115    1
    52    92    91    1
    53    45    44    1
    54    45    46    2
    55    44    43    1
    56    44    47    1
    57    89    91   ar
    58    89    87   ar
    59    91    90   ar
    60   115   112    1
    61    87    86   ar
    62    90    88   ar
    63   125   126    1
    64   125   124    1
    65   128   127    1
    66   126   127    2
    67   112   113    1
    68   112   111    1
    69   127   129    1
    70    86    88   ar
    71    86    85    1
    72   114   113    2
    73   156   155   ar
    74   110   109    1
    75   123   124    1
    76   123   120    1
    77    71    70    1
    78    85    82    1
    79   102   101    1
    80   102   103    1
    81   109   106    1
    82   157   155   ar
    83   155   154    1
    84   105   103   am
    85   105   106    1
    86   122   121    2
    87   136   135    2
    88    64    65    1
    89   120   121    1
    90   120   119    1
    91   103   104    2
    92    82    81    1
    93    82    83    1
    94    67    66    2
    95   106   107    1
    96    96    95    2
    97   121   130   am
    98   154   151    1
    99   108   107    2
   100   145   143    1
   101    70    69    1
   102   135   137   am
   103   135   134    1
   104    81    74   am
   105    69    68    1
   106    65    68    1
   107    65    66    1
   108    83    93   am
   109    83    84    2
   110    95    94    1
   111    93    94    1
   112    66    72   am
   113   130   131    1
   114    75    74    2
   115   149   148    2
   116    74    73    1
   117   151   152    1
   118   151   150    1
   119   131   134    1
   120   131   132    1
   121    94    97    1
   122   144   143    1
   123   143   142    1
   124    72    73    1
   125   152   153    2
   126    73    76    1
   127   148   150   am
   128   148   147    1
   129    97    98    1
   130   132   133    2
   131   142   139    1
   132   139   138    1
   133   139   140    1
   134   147   146    1
   135    98    99    1
   136    98   100    1
   137    76    77    1
   138    63    61    1
   139    62    61    1
   140    77    78    1
   141   140   141    2
   142    61    58    1
   143    78    79   ar
   144    78    80   ar
   145    58    59    1
   146    58    57    1
   147    59    60    2
