@<TRIPOS>MOLECULE
tmp/5aesA00.pdb
 171 163 0 0 0
SMALL
GASTEIGER

@<TRIPOS>ATOM
      1  N         30.7050  -63.3560   53.5510 N.3    26  ASP26      -0.1225
      2  CA        29.4290  -62.6670   53.4600 C.3    26  ASP26       0.1805
      3  C         28.5780  -63.2890   54.5620 C.2    26  ASP26       0.2598
      4  O         28.8560  -64.4120   54.9960 O.2    26  ASP26      -0.2718
      5  CB        28.7730  -62.8770   52.0980 C.3    26  ASP26       0.1424
      6  CG        27.3360  -62.3540   52.0510 C.2    26  ASP26       0.3668
      7  OD1       27.1020  -61.1890   52.4300 O.co2  26  ASP26      -0.2456
      8  OD2       26.4300  -63.1210   51.6570 O.co2  26  ASP26      -0.2456
      9  N         27.5540  -62.5790   55.0200 N.am   27  CYS27      -0.1956
     10  CA        26.7730  -63.0480   56.1620 C.3    27  CYS27       0.1843
     11  C         25.4970  -63.7980   55.7760 C.2    27  CYS27       0.2625
     12  O         25.3980  -65.0140   55.9680 O.2    27  CYS27      -0.2714
     13  CB        26.4250  -61.8760   57.0690 C.3    27  CYS27       0.0997
     14  SG        27.8600  -61.0440   57.7180 S.3    27  CYS27      -0.0797
     15  N         24.5170  -63.0700   55.2470 N.am   28  ASP28      -0.1971
     16  CA        23.2520  -63.6820   54.8890 C.3    28  ASP28       0.1709
     17  C         23.4400  -64.7010   53.7750 C.2    28  ASP28       0.2293
     18  O         24.0060  -64.3980   52.7230 O.2    28  ASP28      -0.2864
     19  CB        22.2340  -62.6230   54.4740 C.3    28  ASP28       0.1436
     20  CG        21.6310  -61.8920   55.6630 C.2    28  ASP28       0.3671
     21  OD1       20.6830  -62.4410   56.2730 O.co2  28  ASP28      -0.2456
     22  OD2       22.0990  -60.7730   55.9870 O.co2  28  ASP28      -0.2456
     23  N         28.5030  -57.4430   54.3910 N.3    59  SER59      -0.1202
     24  CA        27.0730  -57.5850   54.2440 C.3    59  SER59       0.2020
     25  C         26.5280  -56.3700   53.5220 C.2    59  SER59       0.2619
     26  O         26.9460  -55.2490   53.7960 O.2    59  SER59      -0.2717
     27  CB        26.4190  -57.7230   55.6160 C.3    59  SER59       0.2103
     28  OG        25.0310  -57.9410   55.4910 O.3    59  SER59      -0.2182
     29  N         25.6090  -56.5890   52.5890 N.am   60  ASN60      -0.1960
     30  CA        24.9440  -55.4870   51.9170 C.3    60  ASN60       0.1819
     31  C         23.6630  -55.1150   52.6680 C.2    60  ASN60       0.2621
     32  O         22.8870  -54.2530   52.2350 O.2    60  ASN60      -0.2715
     33  CB        24.6640  -55.8350   50.4570 C.3    60  ASN60       0.1195
     34  CG        25.8630  -55.5680   49.5540 C.2    60  ASN60       0.2630
     35  OD1       26.8180  -54.8830   49.9450 O.2    60  ASN60      -0.2716
     36  ND2       25.8190  -56.1090   48.3380 N.am   60  ASN60      -0.0877
     37  N         23.4580  -55.7650   53.8110 N.am   61  ASN61      -0.1958
     38  CA        22.3430  -55.4330   54.6780 C.3    61  ASN61       0.1819
     39  C         22.5740  -54.0980   55.3860 C.2    61  ASN61       0.2622
     40  O         23.5300  -53.9330   56.1510 O.2    61  ASN61      -0.2715
     41  CB        22.1230  -56.5490   55.6940 C.3    61  ASN61       0.1195
     42  CG        20.7740  -56.4590   56.3660 C.2    61  ASN61       0.2630
     43  OD1       20.2660  -55.3670   56.6120 O.2    61  ASN61      -0.2716
     44  ND2       20.1730  -57.6080   56.6450 N.am   61  ASN61      -0.0877
     45  N         21.6880  -53.1480   55.1170 N.am   62  SER62      -0.1936
     46  CA        21.7930  -51.8070   55.6730 C.3    62  SER62       0.2055
     47  C         20.7230  -51.5540   56.7160 C.2    62  SER62       0.2642
     48  O         20.3190  -50.4190   56.9380 O.2    62  SER62      -0.2714
     49  CB        21.6730  -50.7680   54.5590 C.3    62  SER62       0.2130
     50  OG        20.4790  -50.9210   53.7990 O.3    62  SER62      -0.2179
     51  N         20.2770  -52.6160   57.3680 N.am   63  ARG63      -0.1977
     52  CA        19.2120  -52.5010   58.3460 C.3    63  ARG63       0.1597
     53  C         19.7410  -52.3500   59.7670 C.2    63  ARG63       0.2287
     54  O         19.0970  -51.7220   60.6090 O.2    63  ARG63      -0.2864
     55  CB        18.2960  -53.7160   58.2630 C.3    63  ARG63       0.0334
     56  CG        17.2430  -53.6120   57.1770 C.3    63  ARG63       0.0492
     57  CD        16.1630  -54.6750   57.3320 C.3    63  ARG63       0.2205
     58  NE        15.6050  -54.7200   58.6820 N.pl3  63  ARG63      -0.0865
     59  CZ        14.4820  -55.3530   59.0050 C.cat  63  ARG63       0.5346
     60  NH1       13.7810  -55.9970   58.0750 N.pl3  63  ARG63       0.1354
     61  NH2       14.0550  -55.3360   60.2610 N.pl3  63  ARG63       0.1354
     62  N         18.0950  -49.8020   51.8400 N.3   147  TYR147     -0.1241
     63  CA        16.8950  -50.6140   51.9640 C.3   147  TYR147      0.1605
     64  C         15.8680  -49.7940   52.7310 C.2   147  TYR147      0.2264
     65  O         16.0540  -49.5050   53.9040 O.2   147  TYR147     -0.2867
     66  CB        17.2130  -51.9160   52.6970 C.3   147  TYR147      0.0534
     67  CG        16.0520  -52.8570   52.8190 C.ar  147  TYR147     -0.0201
     68  CD1       15.7190  -53.7060   51.7830 C.ar  147  TYR147     -0.0009
     69  CD2       15.2850  -52.9040   53.9730 C.ar  147  TYR147     -0.0009
     70  CE1       14.6560  -54.5710   51.8810 C.ar  147  TYR147      0.0417
     71  CE2       14.2170  -53.7730   54.0810 C.ar  147  TYR147      0.0417
     72  CZ        13.9050  -54.6080   53.0280 C.ar  147  TYR147      0.1957
     73  OH        12.8330  -55.4830   53.1160 O.3   147  TYR147     -0.2866
     74  N         24.0820  -50.3570   48.0610 N.3   174  ASP174     -0.1239
     75  CA        24.3500  -51.5340   47.2320 C.3   174  ASP174      0.1674
     76  C         23.3550  -51.6170   46.0770 C.2   174  ASP174      0.2266
     77  O         22.4030  -50.8440   46.0340 O.2   174  ASP174     -0.2867
     78  CB        24.2250  -52.7850   48.0890 C.3   174  ASP174      0.1410
     79  CG        22.8110  -53.0090   48.5710 C.2   174  ASP174      0.3668
     80  OD1       22.3960  -52.3600   49.5560 O.co2 174  ASP174     -0.2456
     81  OD2       22.1140  -53.8440   47.9610 O.co2 174  ASP174     -0.2456
     82  N         21.9010  -54.7800   45.1880 N.3   176  ASP176     -0.1239
     83  CA        21.2220  -56.0670   45.2470 C.3   176  ASP176      0.1674
     84  C         19.7610  -55.8570   44.8700 C.2   176  ASP176      0.2266
     85  O         19.0650  -55.0540   45.4920 O.2   176  ASP176     -0.2867
     86  CB        21.3580  -56.6980   46.6330 C.3   176  ASP176      0.1410
     87  CG        22.7550  -57.2420   46.8990 C.2   176  ASP176      0.3668
     88  OD1       23.6560  -57.0460   46.0590 O.co2 176  ASP176     -0.2456
     89  OD2       22.9530  -57.8620   47.9610 O.co2 176  ASP176     -0.2456
     90  N         15.8400  -59.9360   47.7000 N.3   179  HIS179     -0.1227
     91  CA        16.3380  -60.9030   48.6760 C.3   179  HIS179      0.1737
     92  C         15.2570  -61.9090   49.0200 C.2   179  HIS179      0.2438
     93  O         14.0760  -61.5620   49.0820 O.2   179  HIS179     -0.2733
     94  CB        16.8160  -60.1910   49.9520 C.3   179  HIS179      0.0758
     95  CG        17.8320  -59.1220   49.6980 C.ar  179  HIS179      0.0818
     96  ND1       19.1530  -59.4010   49.4180 N.ar  179  HIS179     -0.2268
     97  CD2       17.7160  -57.7730   49.6610 C.ar  179  HIS179      0.1154
     98  CE1       19.8070  -58.2700   49.2240 C.ar  179  HIS179      0.1986
     99  NE2       18.9580  -57.2670   49.3660 N.ar  179  HIS179     -0.2212
    100  N         15.6570  -63.1640   49.2550 N.am  180  PRO180     -0.2718
    101  CA        14.7070  -64.2090   49.6440 C.3   180  PRO180      0.1535
    102  C         14.3290  -64.0880   51.1090 C.2   180  PRO180      0.2598
    103  O         15.1790  -63.7320   51.9200 O.2   180  PRO180     -0.2715
    104  CB        15.5070  -65.4880   49.4360 C.3   180  PRO180      0.0310
    105  CG        16.9050  -65.0810   49.7370 C.3   180  PRO180      0.0237
    106  CD        17.0420  -63.6640   49.2420 C.3   180  PRO180      0.0939
    107  N         13.0780  -64.3850   51.4400 N.am  181  LEU181     -0.1978
    108  CA        12.6310  -64.3860   52.8260 C.3   181  LEU181      0.1596
    109  C         12.3480  -65.8160   53.2660 C.2   181  LEU181      0.2287
    110  O         12.3910  -66.7490   52.4570 O.2   181  LEU181     -0.2864
    111  CB        11.3750  -63.5360   52.9960 C.3   181  LEU181      0.0297
    112  CG        11.4960  -62.0590   52.6200 C.3   181  LEU181      0.0022
    113  CD1       10.2160  -61.3130   52.9720 C.3   181  LEU181      0.0001
    114  CD2       12.6970  -61.4130   53.3030 C.3   181  LEU181      0.0001
    115  N         11.8700  -59.8380   48.7480 N.3   187  THR187     -0.1218
    116  CA        11.7090  -58.4350   49.0790 C.3   187  THR187      0.1862
    117  C         12.5900  -57.6300   48.1410 C.2   187  THR187      0.2287
    118  O         13.7180  -58.0280   47.8550 O.2   187  THR187     -0.2866
    119  CB        12.0960  -58.1460   50.5460 C.3   187  THR187      0.1770
    120  OG1       11.8530  -56.7640   50.8530 O.3   187  THR187     -0.2211
    121  CG2       13.5610  -58.4720   50.7950 C.3   187  THR187      0.0375
    122  N         17.9630  -52.7010   47.6140 N.3   190  THR190     -0.1218
    123  CA        18.3940  -51.3340   47.3440 C.3   190  THR190      0.1862
    124  C         18.6180  -51.1100   45.8500 C.2   190  THR190      0.2287
    125  O         18.4390  -50.0060   45.3440 O.2   190  THR190     -0.2866
    126  CB        19.6860  -51.0200   48.0860 C.3   190  THR190      0.1770
    127  OG1       19.5540  -51.4140   49.4570 O.3   190  THR190     -0.2211
    128  CG2       20.0150  -49.5300   47.9920 C.3   190  THR190      0.0375
    129  N         29.2980  -54.4650   47.9760 N.3   210  LYS210     -0.1245
    130  CA        29.6630  -55.4670   46.9870 C.3   210  LYS210      0.1561
    131  C         28.6920  -55.4290   45.8180 C.2   210  LYS210      0.2260
    132  O         27.4850  -55.3030   46.0260 O.2   210  LYS210     -0.2867
    133  CB        29.5550  -56.8570   47.5940 C.3   210  LYS210      0.0271
    134  CG        30.3670  -57.1030   48.8270 C.3   210  LYS210      0.0035
    135  CD        29.9330  -58.3870   49.5000 C.3   210  LYS210      0.0206
    136  CE        28.5570  -58.2510   50.1160 C.3   210  LYS210      0.1093
    137  NZ        28.0110  -59.5700   50.5210 N.3   210  LYS210     -0.1314
    138  N         27.4030  -66.4260   48.9440 N.3   235  ASP235     -0.1225
    139  CA        26.3480  -67.2750   48.4200 C.3   235  ASP235      0.1805
    140  C         25.7350  -66.6990   47.1500 C.2   235  ASP235      0.2597
    141  O         24.8340  -67.3040   46.5650 O.2   235  ASP235     -0.2718
    142  CB        25.2490  -67.4320   49.4670 C.3   235  ASP235      0.1424
    143  CG        24.4780  -66.1480   49.6870 C.2   235  ASP235      0.3668
    144  OD1       25.1070  -65.1240   50.0260 O.co2 235  ASP235     -0.2456
    145  OD2       23.2470  -66.1550   49.5110 O.co2 235  ASP235     -0.2456
    146  N         26.2090  -65.5270   46.7340 N.am  236  ARG236     -0.1979
    147  CA        25.6350  -64.8430   45.5780 C.3   236  ARG236      0.1597
    148  C         26.7010  -64.5140   44.5310 C.2   236  ARG236      0.2287
    149  O         27.7150  -63.8980   44.8360 O.2   236  ARG236     -0.2864
    150  CB        24.9220  -63.5720   46.0350 C.3   236  ARG236      0.0334
    151  CG        23.8940  -63.0470   45.0520 C.3   236  ARG236      0.0492
    152  CD        22.9090  -62.1290   45.7440 C.3   236  ARG236      0.2205
    153  NE        21.7630  -61.8220   44.8940 N.pl3 236  ARG236     -0.0865
    154  CZ        20.6390  -61.2540   45.3190 C.cat 236  ARG236      0.5346
    155  NH1       20.4990  -60.9240   46.5930 N.pl3 236  ARG236      0.1354
    156  NH2       19.6520  -61.0120   44.4640 N.pl3 236  ARG236      0.1354
    157  N         27.1780  -60.6710   43.2340 N.3   239  THR239     -0.1203
    158  CA        27.6480  -59.6810   44.2010 C.3   239  THR239      0.1994
    159  C         28.9040  -60.1790   44.9180 C.2   239  THR239      0.2617
    160  O         29.9360  -59.5170   44.8880 O.2   239  THR239     -0.2717
    161  CB        26.5790  -59.3100   45.2660 C.3   239  THR239      0.1784
    162  OG1       26.6420  -60.2320   46.3550 O.3   239  THR239     -0.2211
    163  CG2       25.1850  -59.3110   44.6830 C.3   239  THR239      0.0376
    164  N         28.8150  -61.3470   45.5480 N.am  240  ASP240     -0.1973
    165  CA        29.9150  -61.8750   46.3560 C.3   240  ASP240      0.1709
    166  C         31.1080  -62.3520   45.5220 C.2   240  ASP240      0.2293
    167  O         32.2480  -61.9850   45.8000 O.2   240  ASP240     -0.2864
    168  CB        29.4210  -63.0230   47.2460 C.3   240  ASP240      0.1436
    169  CG        28.3070  -62.5940   48.1890 C.2   240  ASP240      0.3671
    170  OD1       28.4170  -61.4990   48.7710 O.co2 240  ASP240     -0.2456
    171  OD2       27.3220  -63.3470   48.3490 O.co2 240  ASP240     -0.2456
@<TRIPOS>BOND
     1   157   158    1
     2   158   159    1
     3   158   161    1
     4   156   154    1
     5   148   149    2
     6   148   147    1
     7   163   161    1
     8    84    83    1
     9    84    85    2
    10   160   159    2
    11   153   154    2
    12   153   152    1
    13   159   164   am
    14   151   152    1
    15   151   150    1
    16    82    83    1
    17    83    86    1
    18   161   162    1
    19   154   155    1
    20   125   124    2
    21   166   167    2
    22   166   165    1
    23   164   165    1
    24   147   150    1
    25   147   146    1
    26   131   132    2
    27   131   130    1
    28   124   123    1
    29    77    76    2
    30    88    87   ar
    31    76    75    1
    32   165   168    1
    33   141   140    2
    34    86    87    1
    35   146   140   am
    36    87    89   ar
    37   130   133    1
    38   130   129    1
    39   140   139    1
    40    75    74    1
    41    75    78    1
    42   168   169    1
    43   123   122    1
    44   123   126    1
    45   133   134    1
    46    90    91    1
    47   118   117    2
    48    81    79   ar
    49   128   126    1
    50   126   127    1
    51    78    79    1
    52   117   116    1
    53   169   171   ar
    54   169   170   ar
    55    36    34   am
    56   139   138    1
    57   139   142    1
    58    79    80   ar
    59    91    92    1
    60    91    94    1
    61   115   116    1
    62   134   135    1
    63    92    93    2
    64    92   100   am
    65   116   119    1
    66    98    99   ar
    67    98    96   ar
    68   106   100    1
    69   106   105    1
    70   100   101    1
    71    99    97   ar
    72    96    95   ar
    73   104   101    1
    74   104   105    1
    75   142   143    1
    76   135   136    1
    77   145   143   ar
    78    34    35    2
    79    34    33    1
    80   101   102    1
    81    97    95   ar
    82   143   144   ar
    83    95    94    1
    84   136   137    1
    85    33    30    1
    86   119   121    1
    87   119   120    1
    88   102   107   am
    89   102   103    2
    90   107   108    1
    91     8     6   ar
    92    68    70   ar
    93    68    67   ar
    94    62    63    1
    95    70    72   ar
    96    30    29    1
    97    30    31    1
    98    63    66    1
    99    63    64    1
   100     6     5    1
   101     6     7   ar
   102     5     2    1
   103    32    31    2
   104   110   109    2
   105    29    25   am
   106   112   113    1
   107   112   111    1
   108   112   114    1
   109    31    37   am
   110    66    67    1
   111    18    17    2
   112    64    65    2
   113    67    69   ar
   114   108   111    1
   115   108   109    1
   116    72    73    1
   117    72    71   ar
   118     2     1    1
   119     2     3    1
   120    25    26    2
   121    25    24    1
   122    17    16    1
   123    50    49    1
   124    37    38    1
   125    69    71   ar
   126    24    23    1
   127    24    27    1
   128    19    16    1
   129    19    20    1
   130    49    46    1
   131     3     4    2
   132     3     9   am
   133    38    39    1
   134    38    41    1
   135    16    15    1
   136     9    10    1
   137    45    39   am
   138    45    46    1
   139    15    11   am
   140    39    40    2
   141    28    27    1
   142    20    22   ar
   143    20    21   ar
   144    46    47    1
   145    41    42    1
   146    11    12    2
   147    11    10    1
   148    10    13    1
   149    42    43    2
   150    42    44   am
   151    47    48    2
   152    47    51   am
   153    13    14    1
   154    56    57    1
   155    56    55    1
   156    57    58    1
   157    51    52    1
   158    60    59    1
   159    55    52    1
   160    52    53    1
   161    58    59    2
   162    59    61    1
   163    53    54    2
