@<TRIPOS>MOLECULE
tmp/5aezA04.pdb
 87 84 0 0 0
SMALL
GASTEIGER

@<TRIPOS>ATOM
      1  N        -44.3000   49.4540  -14.0910 N.3    71  VAL71      -0.1245
      2  CA       -43.1620   50.3260  -14.3770 C.3    71  VAL71       0.1561
      3  C        -42.4920   49.9450  -15.7010 C.2    71  VAL71       0.2260
      4  O        -42.1720   50.8190  -16.5170 O.2    71  VAL71      -0.2867
      5  CB       -42.1460   50.3120  -13.2040 C.3    71  VAL71       0.0252
      6  CG1      -40.8680   51.0870  -13.5690 C.3    71  VAL71       0.0019
      7  CG2      -42.7880   50.8850  -11.9260 C.3    71  VAL71       0.0019
      8  N        -37.0700   50.7860   -0.3420 N.3   143  ARG143     -0.1245
      9  CA       -38.0890   51.8300   -0.3150 C.3   143  ARG143      0.1563
     10  C        -38.7620   51.8670   -1.6830 C.2   143  ARG143      0.2260
     11  O        -38.0810   51.8460   -2.7160 O.2   143  ARG143     -0.2867
     12  CB       -37.4600   53.1840    0.0220 C.3   143  ARG143      0.0307
     13  CG       -36.8020   53.2080    1.4050 C.3   143  ARG143      0.0489
     14  CD       -36.6310   54.6290    1.9450 C.3   143  ARG143      0.2205
     15  NE       -35.8080   55.4540    1.0670 N.pl3 143  ARG143     -0.0865
     16  CZ       -35.7690   56.7830    1.0960 C.cat 143  ARG143      0.5346
     17  NH1      -36.5120   57.4580    1.9670 N.pl3 143  ARG143      0.1354
     18  NH2      -34.9810   57.4390    0.2540 N.pl3 143  ARG143      0.1354
     19  N        -40.7500   54.0370   -3.5930 N.3   145  GLY145     -0.1210
     20  CA       -40.5760   55.1250   -4.5420 C.3   145  GLY145      0.1940
     21  C        -39.2240   55.0580   -5.2340 C.2   145  GLY145      0.2453
     22  O        -39.1420   55.0270   -6.4710 O.2   145  GLY145     -0.2732
     23  N        -38.1460   55.0310   -4.4480 N.am  146  PRO146     -0.2728
     24  CA       -36.8110   54.8580   -5.0290 C.3   146  PRO146      0.1401
     25  C        -36.6640   53.5860   -5.8680 C.2   146  PRO146      0.2269
     26  O        -36.0080   53.6410   -6.9040 O.2   146  PRO146     -0.2865
     27  CB       -35.9060   54.8210   -3.7940 C.3   146  PRO146      0.0296
     28  CG       -36.6290   55.7150   -2.8010 C.3   146  PRO146      0.0237
     29  CD       -38.0850   55.3840   -3.0150 C.3   146  PRO146      0.0939
     30  N        -38.9720   52.1810   -7.6870 N.3   148  MET148     -0.1230
     31  CA       -39.6280   52.4050   -8.9810 C.3   148  MET148      0.1702
     32  C        -38.7680   53.2790   -9.8910 C.2   148  MET148      0.2592
     33  O        -38.6480   52.9980  -11.0960 O.2   148  MET148     -0.2718
     34  CB       -41.0310   53.0020   -8.8040 C.3   148  MET148      0.0401
     35  CG       -42.0140   52.0450   -8.1160 C.3   148  MET148      0.0596
     36  SD       -43.7160   52.6600   -8.0980 S.3   148  MET148     -0.1393
     37  CE       -43.6320   53.8880   -6.7920 C.3   148  MET148      0.0692
     38  N        -38.1600   54.3160   -9.3240 N.am  149  VAL149     -0.1980
     39  CA       -37.2480   55.1760  -10.0770 C.3   149  VAL149      0.1595
     40  C        -36.0280   54.3850  -10.5350 C.2   149  VAL149      0.2287
     41  O        -35.6150   54.4860  -11.6930 O.2   149  VAL149     -0.2864
     42  CB       -36.8120   56.3870   -9.2370 C.3   149  VAL149      0.0276
     43  CG1      -35.7280   57.1950   -9.9670 C.3   149  VAL149      0.0022
     44  CG2      -38.0250   57.2550   -8.9370 C.3   149  VAL149      0.0022
     45  N        -33.4380   61.4360   -0.9800 N.3   411  PHE411     -0.1227
     46  CA       -34.7890   61.0480   -1.3740 C.3   411  PHE411      0.1736
     47  C        -34.8280   59.9360   -2.4220 C.2   411  PHE411      0.2595
     48  O        -35.8990   59.4280   -2.7460 O.2   411  PHE411     -0.2718
     49  CB       -35.6210   62.2550   -1.8230 C.3   411  PHE411      0.0547
     50  CG       -35.2080   62.8260   -3.1470 C.ar  411  PHE411     -0.0202
     51  CD1      -34.2090   63.7830   -3.2230 C.ar  411  PHE411     -0.0042
     52  CD2      -35.8360   62.4230   -4.3150 C.ar  411  PHE411     -0.0042
     53  CE1      -33.8340   64.3190   -4.4430 C.ar  411  PHE411     -0.0003
     54  CE2      -35.4630   62.9530   -5.5360 C.ar  411  PHE411     -0.0003
     55  CZ       -34.4610   63.9010   -5.6000 C.ar  411  PHE411     -0.0000
     56  N        -33.6640   59.5600   -2.9450 N.am  412  LEU412     -0.1980
     57  CA       -33.5920   58.4810   -3.9280 C.3   412  LEU412      0.1596
     58  C        -32.9040   57.2260   -3.3850 C.2   412  LEU412      0.2287
     59  O        -32.8620   56.1990   -4.0550 O.2   412  LEU412     -0.2864
     60  CB       -32.8920   58.9480   -5.2080 C.3   412  LEU412      0.0297
     61  CG       -33.6670   59.9200   -6.0980 C.3   412  LEU412      0.0022
     62  CD1      -32.8880   60.2220   -7.3690 C.3   412  LEU412      0.0001
     63  CD2      -35.0450   59.3670   -6.4220 C.3   412  LEU412      0.0001
     64  N        -43.2120   50.4150    4.5050 N.3   449  GLU449     -0.1231
     65  CA       -42.1130   51.1910    3.9640 C.3   449  GLU449      0.1684
     66  C        -41.0890   51.5360    5.0410 C.2   449  GLU449      0.2434
     67  O        -41.4570   51.9280    6.1500 O.2   449  GLU449     -0.2733
     68  CB       -42.6970   52.4680    3.3480 C.3   449  GLU449      0.0402
     69  CG       -41.6910   53.4640    2.8330 C.3   449  GLU449      0.1161
     70  CD       -41.1780   53.1330    1.4470 C.2   449  GLU449      0.3649
     71  OE1      -41.5730   52.0910    0.8740 O.co2 449  GLU449     -0.2457
     72  OE2      -40.3690   53.9280    0.9380 O.co2 449  GLU449     -0.2457
     73  N        -39.7930   51.3790    4.7320 N.am  450  PRO450     -0.2718
     74  CA       -38.7600   51.8090    5.6840 C.3   450  PRO450      0.1535
     75  C        -38.8740   53.3030    5.9730 C.2   450  PRO450      0.2598
     76  O        -39.0500   54.0950    5.0480 O.2   450  PRO450     -0.2715
     77  CB       -37.4600   51.5100    4.9360 C.3   450  PRO450      0.0310
     78  CG       -37.8200   50.3620    4.0240 C.3   450  PRO450      0.0237
     79  CD       -39.2250   50.6680    3.5680 C.3   450  PRO450      0.0939
     80  N        -38.7860   53.6760    7.2480 N.am  451  ILE451     -0.1978
     81  CA       -38.9400   55.0620    7.6600 C.3   451  ILE451      0.1596
     82  C        -37.6580   55.5600    8.3060 C.2   451  ILE451      0.2287
     83  O        -37.0520   54.8580    9.1190 O.2   451  ILE451     -0.2864
     84  CB       -40.1020   55.2050    8.6670 C.3   451  ILE451      0.0276
     85  CG1      -41.4260   54.7910    8.0230 C.3   451  ILE451      0.0022
     86  CG2      -40.2000   56.6320    9.2080 C.3   451  ILE451      0.0022
     87  CD1      -41.8060   55.6180    6.8190 C.3   451  ILE451      0.0001
@<TRIPOS>BOND
     1     4     3    2
     2     3     2    1
     3     2     1    1
     4     2     5    1
     5     6     5    1
     6     5     7    1
     7    41    40    2
     8    33    32    2
     9    40    39    1
    10    39    38    1
    11    39    42    1
    12    43    42    1
    13    32    38   am
    14    32    31    1
    15    42    44    1
    16    31    34    1
    17    31    30    1
    18    34    35    1
    19    35    36    1
    20    36    37    1
    21    62    61    1
    22    26    25    2
    23    22    21    2
    24    63    61    1
    25    61    60    1
    26    25    24    1
    27    55    54   ar
    28    55    53   ar
    29    54    52   ar
    30    21    20    1
    31    21    23   am
    32    60    57    1
    33    24    23    1
    34    24    27    1
    35    20    19    1
    36    23    29    1
    37    53    51   ar
    38    52    50   ar
    39    59    58    2
    40    57    58    1
    41    57    56    1
    42    27    28    1
    43    51    50   ar
    44    50    49    1
    45    29    28    1
    46    56    47   am
    47    48    47    2
    48    11    10    2
    49    47    46    1
    50    49    46    1
    51    10     9    1
    52    46    45    1
    53     8     9    1
    54     9    12    1
    55    12    13    1
    56    18    16    1
    57    71    70   ar
    58    72    70   ar
    59    15    16    2
    60    15    14    1
    61    16    17    1
    62    13    14    1
    63    70    69    1
    64    69    68    1
    65    68    65    1
    66    79    78    1
    67    79    73    1
    68    65    64    1
    69    65    66    1
    70    78    77    1
    71    73    66   am
    72    73    74    1
    73    77    74    1
    74    66    67    2
    75    76    75    2
    76    74    75    1
    77    75    80   am
    78    87    85    1
    79    80    81    1
    80    81    82    1
    81    81    84    1
    82    85    84    1
    83    82    83    2
    84    84    86    1
