@<TRIPOS>MOLECULE
tmp/5af2A00.pdb
 100 100 0 0 0
SMALL
GASTEIGER

@<TRIPOS>ATOM
      1  N         23.6820   10.3000   19.5380 N.3    77  LEU77      -0.1245
      2  CA        24.3200    9.1060   18.9520 C.3    77  LEU77       0.1561
      3  C         25.5430    8.6050   19.7120 C.2    77  LEU77       0.2260
      4  O         25.5690    7.4580   20.1450 O.2    77  LEU77      -0.2867
      5  CB        24.7140    9.3590   17.4920 C.3    77  LEU77       0.0270
      6  CG        25.3480    8.1550   16.7810 C.3    77  LEU77       0.0019
      7  CD1       24.2860    7.1700   16.3400 C.3    77  LEU77       0.0001
      8  CD2       26.1650    8.6140   15.5960 C.3    77  LEU77       0.0001
      9  N         24.7900    7.4790   23.1850 N.3    80  TYR80      -0.1227
     10  CA        24.0340    6.2360   23.1220 C.3    80  TYR80       0.1736
     11  C         24.9840    5.0540   22.9250 C.2    80  TYR80       0.2595
     12  O         24.8620    4.0330   23.6030 O.2    80  TYR80      -0.2718
     13  CB        22.9800    6.2820   22.0140 C.3    80  TYR80       0.0548
     14  CG        22.1270    5.0230   21.9760 C.ar   80  TYR80      -0.0200
     15  CD1       20.9670    4.9010   22.7460 C.ar   80  TYR80      -0.0009
     16  CD2       22.4990    3.9370   21.1920 C.ar   80  TYR80      -0.0009
     17  CE1       20.2050    3.7450   22.7100 C.ar   80  TYR80       0.0417
     18  CE2       21.7340    2.7830   21.1520 C.ar   80  TYR80       0.0417
     19  CZ        20.5950    2.7000   21.9090 C.ar   80  TYR80       0.1957
     20  OH        19.8300    1.5510   21.8840 O.3    80  TYR80      -0.2866
     21  N         25.9280    5.1770   21.9970 N.am   81  PHE81      -0.1976
     22  CA        26.8940    4.0950   21.7840 C.3    81  PHE81       0.1639
     23  C         27.6080    3.7280   23.0820 C.2    81  PHE81       0.2290
     24  O         27.7600    2.5480   23.4040 O.2    81  PHE81      -0.2864
     25  CB        27.9800    4.4800   20.7700 C.3    81  PHE81       0.0560
     26  CG        27.5180    4.5710   19.3270 C.ar   81  PHE81      -0.0200
     27  CD1       26.3450    3.9760   18.8770 C.ar   81  PHE81      -0.0042
     28  CD2       28.3130    5.2340   18.4080 C.ar   81  PHE81      -0.0042
     29  CE1       25.9700    4.0670   17.5410 C.ar   81  PHE81      -0.0003
     30  CE2       27.9450    5.3250   17.0830 C.ar   81  PHE81      -0.0003
     31  CZ        26.7790    4.7350   16.6470 C.ar   81  PHE81      -0.0000
     32  N         25.1610    2.0950   25.6070 N.3    84  TYR84      -0.1227
     33  CA        24.8620    0.7850   25.0480 C.3    84  TYR84       0.1736
     34  C         25.9900   -0.1980   25.3510 C.2    84  TYR84       0.2595
     35  O         25.7580   -1.3290   25.8040 O.2    84  TYR84      -0.2718
     36  CB        24.6670    0.8830   23.5300 C.3    84  TYR84       0.0548
     37  CG        24.3660   -0.4490   22.8650 C.ar   84  TYR84      -0.0200
     38  CD1       25.3780   -1.3430   22.5430 C.ar   84  TYR84      -0.0009
     39  CD2       23.0650   -0.8000   22.5490 C.ar   84  TYR84      -0.0009
     40  CE1       25.0890   -2.5600   21.9350 C.ar   84  TYR84       0.0417
     41  CE2       22.7720   -2.0110   21.9430 C.ar   84  TYR84       0.0417
     42  CZ        23.7790   -2.8740   21.6310 C.ar   84  TYR84       0.1957
     43  OH        23.4750   -4.0820   21.0350 O.3    84  TYR84      -0.2866
     44  N         27.2170    0.2440   25.1300 N.am   85  ASN85      -0.1974
     45  CA        28.3650   -0.6330   25.3160 C.3    85  ASN85       0.1688
     46  C         28.6370   -0.9400   26.7860 C.2    85  ASN85       0.2292
     47  O         28.9820   -2.0620   27.1260 O.2    85  ASN85      -0.2864
     48  CB        29.6060   -0.0550   24.6280 C.3    85  ASN85       0.1181
     49  CG        29.5730   -0.2310   23.1280 C.2    85  ASN85       0.2629
     50  OD1       28.9910   -1.1840   22.6170 O.2    85  ASN85      -0.2716
     51  ND2       30.2090    0.6800   22.4160 N.am   85  ASN85      -0.0877
     52  N         18.6240   -1.7910   24.8030 N.3    95  GLY95      -0.1210
     53  CA        18.5620   -1.4930   23.3840 C.3    95  GLY95       0.1956
     54  C         18.5920   -2.7160   22.4900 C.2    95  GLY95       0.2612
     55  O         19.0700   -2.6500   21.3560 O.2    95  GLY95      -0.2717
     56  N         18.0800   -3.8380   22.9840 N.am   96  GLN96      -0.1965
     57  CA        18.0510   -5.0560   22.1870 C.3    96  GLN96       0.1733
     58  C         16.7990   -5.1710   21.3150 C.2    96  GLN96       0.2617
     59  O         16.7700   -5.9750   20.3840 O.2    96  GLN96      -0.2715
     60  CB        18.1890   -6.2720   23.1010 C.3    96  GLN96       0.0408
     61  CG        19.5190   -6.3230   23.8310 C.3    96  GLN96       0.0908
     62  CD        20.7050   -6.2260   22.8870 C.2    96  GLN96       0.2608
     63  OE1       20.9480   -7.1240   22.0830 O.2    96  GLN96      -0.2717
     64  NE2       21.4290   -5.1190   22.9610 N.am   96  GLN96      -0.0878
     65  N         15.7910   -4.3500   21.5970 N.am   97  SER97      -0.1936
     66  CA        14.5360   -4.3930   20.8550 C.3    97  SER97       0.2055
     67  C         14.1170   -3.0420   20.2870 C.2    97  SER97       0.2643
     68  O         13.3070   -2.9770   19.3660 O.2    97  SER97      -0.2714
     69  CB        13.4210   -4.9370   21.7510 C.3    97  SER97       0.2130
     70  OG        13.7070   -6.2620   22.1580 O.3    97  SER97      -0.2179
     71  N         14.6620   -1.9650   20.8250 N.am   98  ARG98      -0.1963
     72  CA        14.2110   -0.6260   20.4720 C.3    98  ARG98       0.1729
     73  C         15.0190   -0.0630   19.3110 C.2    98  ARG98       0.2616
     74  O         16.2470    0.0060   19.3780 O.2    98  ARG98      -0.2715
     75  CB        14.3550    0.2870   21.6900 C.3    98  ARG98       0.0348
     76  CG        13.8530    1.7020   21.5060 C.3    98  ARG98       0.0492
     77  CD        12.3440    1.7840   21.5720 C.3    98  ARG98       0.2205
     78  NE        11.9210    3.1770   21.4760 N.pl3  98  ARG98      -0.0865
     79  CZ        11.0470    3.7840   22.2690 C.cat  98  ARG98       0.5346
     80  NH1       10.4190    3.1350   23.2380 N.pl3  98  ARG98       0.1354
     81  NH2       10.7940    5.0620   22.0750 N.pl3  98  ARG98       0.1354
     82  N         14.3470    0.3490   18.2440 N.am   99  MET99      -0.1963
     83  CA        15.0400    1.0130   17.1540 C.3    99  MET99       0.1736
     84  C         15.6120    2.3400   17.6220 C.2    99  MET99       0.2616
     85  O         14.9630    3.0870   18.3550 O.2    99  MET99      -0.2715
     86  CB        14.0960    1.2580   15.9810 C.3    99  MET99       0.0427
     87  CG        14.7090    2.0260   14.8320 C.3    99  MET99       0.0599
     88  SD        13.6210    1.9870   13.3920 S.3    99  MET99      -0.1393
     89  CE        14.5440    3.0390   12.2530 C.3    99  MET99       0.0692
     90  N         16.8320    2.6330   17.1820 N.am  100  PHE100     -0.1974
     91  CA        17.4490    3.9250   17.4570 C.3   100  PHE100      0.1639
     92  C         16.9630    4.9400   16.4270 C.2   100  PHE100      0.2290
     93  O         17.4390    4.9770   15.2930 O.2   100  PHE100     -0.2864
     94  CB        18.9770    3.8260   17.4310 C.3   100  PHE100      0.0560
     95  CG        19.6570    5.1230   17.7560 C.ar  100  PHE100     -0.0200
     96  CD1       19.8580    5.5080   19.0730 C.ar  100  PHE100     -0.0042
     97  CD2       20.0610    5.9780   16.7470 C.ar  100  PHE100     -0.0042
     98  CE1       20.4430    6.7150   19.3650 C.ar  100  PHE100     -0.0003
     99  CE2       20.6430    7.1840   17.0380 C.ar  100  PHE100     -0.0003
    100  CZ        20.8400    7.5550   18.3450 C.ar  100  PHE100     -0.0000
@<TRIPOS>BOND
     1    89    88    1
     2    88    87    1
     3    87    86    1
     4    93    92    2
     5     8     6    1
     6    86    83    1
     7     7     6    1
     8    92    91    1
     9    31    30   ar
    10    31    29   ar
    11    97    99   ar
    12    97    95   ar
    13     6     5    1
    14    99   100   ar
    15    30    28   ar
    16    83    84    1
    17    83    82    1
    18    90    91    1
    19    90    84   am
    20    94    91    1
    21    94    95    1
    22     5     2    1
    23    29    27   ar
    24    84    85    2
    25    95    96   ar
    26    82    73   am
    27   100    98   ar
    28    28    26   ar
    29    27    26   ar
    30     2     1    1
    31     2     3    1
    32    96    98   ar
    33    73    74    2
    34    73    72    1
    35    26    25    1
    36    68    67    2
    37     3     4    2
    38    67    71   am
    39    67    66    1
    40    59    58    2
    41    72    71    1
    42    72    75    1
    43    25    22    1
    44    66    65    1
    45    66    69    1
    46    43    42    1
    47    18    16   ar
    48    18    19   ar
    49    16    14   ar
    50    58    65   am
    51    58    57    1
    52    55    54    2
    53    78    77    1
    54    78    79    2
    55    76    77    1
    56    76    75    1
    57    42    40   ar
    58    42    41   ar
    59    69    70    1
    60    22    21    1
    61    22    23    1
    62    20    19    1
    63    19    17   ar
    64    40    38   ar
    65    41    39   ar
    66    14    13    1
    67    14    15   ar
    68    21    11   am
    69    13    10    1
    70    81    79    1
    71    63    62    2
    72    57    56    1
    73    57    60    1
    74    79    80    1
    75    51    49   am
    76    54    56   am
    77    54    53    1
    78    38    37   ar
    79    39    37   ar
    80    50    49    2
    81    17    15   ar
    82    37    36    1
    83    62    64   am
    84    62    61    1
    85    11    10    1
    86    11    12    2
    87    23    24    2
    88    60    61    1
    89    10     9    1
    90    49    48    1
    91    53    52    1
    92    36    33    1
    93    48    45    1
    94    33    34    1
    95    33    32    1
    96    44    45    1
    97    44    34   am
    98    45    46    1
    99    34    35    2
   100    46    47    2
