@<TRIPOS>MOLECULE
tmp/5af9A02.pdb
 131 130 0 0 0
SMALL
GASTEIGER

@<TRIPOS>ATOM
      1  N        131.9210  -23.0800   90.4890 N.3   146  GLU146     -0.1245
      2  CA       133.2250  -23.7110   90.5050 C.3   146  GLU146      0.1567
      3  C        133.3350  -24.7920   89.4370 C.2   146  GLU146      0.2260
      4  O        134.3450  -24.9010   88.7340 O.2   146  GLU146     -0.2867
      5  CB       133.4790  -24.3100   91.8770 C.3   146  GLU146      0.0388
      6  CG       134.8570  -24.8990   91.9940 C.3   146  GLU146      0.1160
      7  CD       135.1430  -25.4760   93.3600 C.2   146  GLU146      0.3649
      8  OE1      134.6640  -24.9590   94.3950 O.co2 146  GLU146     -0.2457
      9  OE2      135.8580  -26.4940   93.3890 O.co2 146  GLU146     -0.2457
     10  N        131.0560  -15.3370   95.8050 N.3   192  ASP192     -0.1225
     11  CA       132.5070  -15.3680   95.7080 C.3   192  ASP192      0.1805
     12  C        132.9120  -14.9940   94.3120 C.2   192  ASP192      0.2598
     13  O        132.0820  -14.9780   93.3950 O.2   192  ASP192     -0.2718
     14  CB       133.0020  -16.7850   96.0470 C.3   192  ASP192      0.1424
     15  CG       134.4790  -16.8720   96.3690 C.2   192  ASP192      0.3668
     16  OD1      135.2110  -15.8690   96.4790 O.co2 192  ASP192     -0.2456
     17  OD2      134.9240  -18.0410   96.5470 O.co2 192  ASP192     -0.2456
     18  N        134.1830  -14.6700   94.1420 N.am  193  ALA193     -0.1966
     19  CA       134.8000  -14.6870   92.8430 C.3   193  ALA193      0.1728
     20  C        135.0180  -16.1120   92.3880 C.2   193  ALA193      0.2616
     21  O        134.9510  -17.0660   93.1850 O.2   193  ALA193     -0.2715
     22  CB       136.1250  -13.9230   92.8730 C.3   193  ALA193      0.0334
     23  N        135.3380  -16.2620   91.1190 N.am  194  CYS194     -0.1954
     24  CA       135.6610  -17.5710   90.5710 C.3   194  CYS194      0.1843
     25  C        136.5680  -17.4190   89.3660 C.2   194  CYS194      0.2625
     26  O        137.0660  -16.3360   89.0900 O.2   194  CYS194     -0.2714
     27  CB       134.3820  -18.3500   90.2630 C.3   194  CYS194      0.0997
     28  SG       134.5580  -20.1500   90.1630 S.3   194  CYS194     -0.0797
     29  N        136.7850  -18.5000   88.6320 N.am  195  GLU195     -0.1977
     30  CA       137.7600  -18.5070   87.5520 C.3   195  GLU195      0.1602
     31  C        137.4530  -17.4590   86.4860 C.2   195  GLU195      0.2287
     32  O        136.3790  -17.4740   85.9120 O.2   195  GLU195     -0.2864
     33  CB       137.8120  -19.9110   86.9380 C.3   195  GLU195      0.0415
     34  CG       138.8650  -20.0540   85.8580 C.3   195  GLU195      0.1163
     35  CD       138.9960  -21.4690   85.3200 C.2   195  GLU195      0.3649
     36  OE1      138.8370  -22.4390   86.0950 O.co2 195  GLU195     -0.2457
     37  OE2      139.2720  -21.5970   84.1180 O.co2 195  GLU195     -0.2457
     38  N        139.7850  -13.1450   88.7080 N.3   198  SER198     -0.1217
     39  CA       140.9900  -12.6910   89.3510 C.3   198  SER198      0.1889
     40  C        141.5930  -11.5170   88.5920 C.2   198  SER198      0.2288
     41  O        141.4300  -11.3550   87.3840 O.2   198  SER198     -0.2866
     42  CB       141.9400  -13.8510   89.6530 C.3   198  SER198      0.2089
     43  OG       142.6210  -14.2290   88.5280 O.3   198  SER198     -0.2183
     44  N        141.1450   -9.0630   93.3270 N.3   218  VAL218     -0.1231
     45  CA       140.7890  -10.4810   93.3910 C.3   218  VAL218      0.1692
     46  C        142.0510  -11.3100   93.1700 C.2   218  VAL218      0.2593
     47  O        142.6430  -11.2450   92.0990 O.2   218  VAL218     -0.2718
     48  CB       139.7230  -10.8180   92.3260 C.3   218  VAL218      0.0266
     49  CG1      139.3530  -12.2780   92.4340 C.3   218  VAL218      0.0020
     50  CG2      138.4620   -9.9800   92.4760 C.3   218  VAL218      0.0020
     51  N        142.4680  -12.0730   94.1850 N.am  219  SER219     -0.1938
     52  CA       143.7540  -12.7450   94.1370 C.3   219  SER219      0.2055
     53  C        143.6380  -14.2560   94.0470 C.2   219  SER219      0.2643
     54  O        144.0890  -14.8270   93.0560 O.2   219  SER219     -0.2714
     55  CB       144.6450  -12.2850   95.2890 C.3   219  SER219      0.2130
     56  OG       145.9000  -12.9150   95.2770 O.3   219  SER219     -0.2179
     57  N        143.0320  -14.9040   95.0300 N.am  220  TRP220     -0.1959
     58  CA       142.9740  -16.3580   94.9930 C.3   220  TRP220      0.1771
     59  C        141.8910  -16.8710   95.9120 C.2   220  TRP220      0.2620
     60  O        141.4430  -16.1910   96.8240 O.2   220  TRP220     -0.2715
     61  CB       144.3310  -16.9780   95.3490 C.3   220  TRP220      0.0590
     62  CG       144.8540  -16.6640   96.7440 C.ar  220  TRP220      0.0006
     63  CD1      145.5840  -15.5810   97.1210 C.ar  220  TRP220      0.0946
     64  CD2      144.6860  -17.4620   97.9190 C.ar  220  TRP220      0.0152
     65  NE1      145.8930  -15.6640   98.4580 N.ar  220  TRP220     -0.2442
     66  CE2      145.3500  -16.8110   98.9700 C.ar  220  TRP220      0.0810
     67  CE3      144.0490  -18.6820   98.1790 C.ar  220  TRP220      0.0012
     68  CZ2      145.3970  -17.3360  100.2560 C.ar  220  TRP220      0.0191
     69  CZ3      144.1000  -19.2020   99.4490 C.ar  220  TRP220      0.0001
     70  CH2      144.7610  -18.5280  100.4690 C.ar  220  TRP220      0.0015
     71  N        141.4890  -18.1100   95.6640 N.am  221  GLY221     -0.1940
     72  CA       140.5480  -18.7910   96.5060 C.3   221  GLY221      0.2014
     73  C        140.6830  -20.2800   96.2570 C.2   221  GLY221      0.2639
     74  O        140.9640  -20.7050   95.1280 O.2   221  GLY221     -0.2714
     75  N        140.3380  -21.0630   97.2580 N.am  222  GLU222     -0.1963
     76  CA       140.3550  -22.4990   97.1630 C.3   222  GLU222      0.1733
     77  C        138.9460  -22.9530   96.8580 C.2   222  GLU222      0.2617
     78  O        138.0910  -23.0540   97.7430 O.2   222  GLU222     -0.2715
     79  CB       140.8980  -23.0780   98.4600 C.3   222  GLU222      0.0429
     80  CG       142.3880  -22.8120   98.5890 C.3   222  GLU222      0.1163
     81  CD       142.9440  -23.1880   99.9390 C.2   222  GLU222      0.3649
     82  OE1      142.5000  -22.6050  100.9210 O.co2 222  GLU222     -0.2457
     83  OE2      143.7950  -24.0940  100.0460 O.co2 222  GLU222     -0.2457
     84  N        138.7060  -23.1890   95.5800 N.am  223  GLY223     -0.1940
     85  CA       137.3580  -23.3720   95.0810 C.3   223  GLY223      0.2014
     86  C        136.6700  -22.0340   94.8770 C.2   223  GLY223      0.2639
     87  O        137.2870  -20.9770   94.9650 O.2   223  GLY223     -0.2714
     88  N        135.3860  -22.0820   94.5890 N.am  224  CYS224     -0.1967
     89  CA       134.5590  -20.8790   94.5160 C.3   224  CYS224      0.1712
     90  C        133.3210  -21.0690   95.3430 C.2   224  CYS224      0.2296
     91  O        132.6130  -22.0420   95.1570 O.2   224  CYS224     -0.2864
     92  CB       134.1430  -20.5590   93.0880 C.3   224  CYS224      0.0983
     93  SG       135.4740  -20.6670   91.9190 S.3   224  CYS224     -0.0798
     94  N        132.8040  -21.9790   98.3540 N.3   226  ARG226     -0.1245
     95  CA       132.7040  -23.1350   99.2380 C.3   226  ARG226      0.1563
     96  C        132.3870  -22.6900  100.6590 C.2   226  ARG226      0.2260
     97  O        132.9370  -21.7060  101.1630 O.2   226  ARG226     -0.2867
     98  CB       133.9990  -23.9450   99.2580 C.3   226  ARG226      0.0307
     99  CG       134.3130  -24.5900   97.9470 C.3   226  ARG226      0.0489
    100  CD       135.4880  -25.4860   98.1030 C.3   226  ARG226      0.2205
    101  NE       135.9920  -25.9930   96.8330 N.pl3 226  ARG226     -0.0865
    102  CZ       137.1810  -26.5700   96.6950 C.cat 226  ARG226      0.5346
    103  NH1      137.9740  -26.7400   97.7550 N.pl3 226  ARG226      0.1354
    104  NH2      137.5810  -26.9610   95.5000 N.pl3 226  ARG226      0.1354
    105  N        137.3300  -15.8380   99.8740 N.3   231  GLY231     -0.1210
    106  CA       138.1900  -15.3320   98.8330 C.3   231  GLY231      0.1956
    107  C        139.2490  -14.4150   99.4130 C.2   231  GLY231      0.2612
    108  O        139.0100  -13.7040  100.3850 O.2   231  GLY231     -0.2717
    109  N        140.4320  -14.4650   98.8130 N.am  232  PHE232     -0.1962
    110  CA       141.5620  -13.6310   99.2350 C.3   232  PHE232      0.1771
    111  C        141.8520  -12.5750   98.2000 C.2   232  PHE232      0.2619
    112  O        141.7950  -12.8190   96.9920 O.2   232  PHE232     -0.2715
    113  CB       142.7820  -14.5000   99.5330 C.3   232  PHE232      0.0574
    114  CG       142.6430  -15.2350  100.8270 C.ar  232  PHE232     -0.0200
    115  CD1      141.8560  -16.3740  100.9330 C.ar  232  PHE232     -0.0042
    116  CD2      143.2170  -14.7290  101.9710 C.ar  232  PHE232     -0.0042
    117  CE1      141.6930  -17.0060  102.1650 C.ar  232  PHE232     -0.0003
    118  CE2      143.0590  -15.3490  103.1910 C.ar  232  PHE232     -0.0003
    119  CZ       142.3000  -16.4860  103.2830 C.ar  232  PHE232     -0.0000
    120  N        142.1920  -11.4070   98.7150 N.am  233  TYR233     -0.1974
    121  CA       142.3320  -10.1820   97.9450 C.3   233  TYR233      0.1639
    122  C        143.6480   -9.5060   98.3040 C.2   233  TYR233      0.2290
    123  O        144.0320   -9.4470   99.4720 O.2   233  TYR233     -0.2864
    124  CB       141.1500   -9.2350   98.2610 C.3   233  TYR233      0.0560
    125  CG       139.8270   -9.8300   97.8910 C.ar  233  TYR233     -0.0198
    126  CD1      139.1800  -10.7260   98.7300 C.ar  233  TYR233     -0.0009
    127  CD2      139.2490   -9.5710   96.6660 C.ar  233  TYR233     -0.0009
    128  CE1      138.0110  -11.3280   98.3810 C.ar  233  TYR233      0.0417
    129  CE2      138.0820  -10.1760   96.3110 C.ar  233  TYR233      0.0417
    130  CZ       137.4630  -11.0690   97.1410 C.ar  233  TYR233      0.1957
    131  OH       136.3020  -11.6590   96.7120 O.3   233  TYR233     -0.2866
@<TRIPOS>BOND
     1    37    35   ar
     2    35    34    1
     3    35    36   ar
     4    34    33    1
     5    32    31    2
     6    31    30    1
     7    33    30    1
     8    41    40    2
     9    30    29    1
    10    43    42    1
    11    40    39    1
    12    29    25   am
    13    38    39    1
    14     4     3    2
    15    26    25    2
    16    39    42    1
    17    25    24    1
    18     3     2    1
    19    28    27    1
    20    28    93    1
    21    27    24    1
    22     1     2    1
    23     2     5    1
    24    24    23    1
    25    23    20   am
    26     5     6    1
    27    93    92    1
    28     6     7    1
    29    47    46    2
    30    48    49    1
    31    48    50    1
    32    48    45    1
    33    20    19    1
    34    20    21    2
    35    19    22    1
    36    19    18    1
    37    54    53    2
    38    92    89    1
    39    46    45    1
    40    46    51   am
    41    44    45    1
    42     7     9   ar
    43     7     8   ar
    44    13    12    2
    45    53    52    1
    46    53    57   am
    47    52    51    1
    48    52    55    1
    49    18    12   am
    50    12    11    1
    51    89    88    1
    52    89    90    1
    53    88    86   am
    54    86    87    2
    55    86    85    1
    56    58    57    1
    57    58    61    1
    58    58    59    1
    59    85    84    1
    60    74    73    2
    61    91    90    2
    62    56    55    1
    63    61    62    1
    64   104   102    1
    65    84    77   am
    66    71    59   am
    67    71    72    1
    68    11    10    1
    69    11    14    1
    70    59    60    2
    71    14    15    1
    72    73    72    1
    73    73    75   am
    74   129   127   ar
    75   129   130   ar
    76    15    16   ar
    77    15    17   ar
    78   127   125   ar
    79   102   101    2
    80   102   103    1
    81   131   130    1
    82    62    63   ar
    83    62    64   ar
    84   101   100    1
    85    77    76    1
    86    77    78    2
    87   112   111    2
    88    63    65   ar
    89   130   128   ar
    90    76    75    1
    91    76    79    1
    92   125   124    1
    93   125   126   ar
    94    64    67   ar
    95    64    66   ar
    96   121   124    1
    97   121   122    1
    98   121   120    1
    99    99   100    1
   100    99    98    1
   101    67    69   ar
   102   111   120   am
   103   111   110    1
   104   122   123    2
   105    94    95    1
   106   128   126   ar
   107    65    66   ar
   108    79    80    1
   109    80    81    1
   110   109   110    1
   111   109   107   am
   112   106   107    1
   113   106   105    1
   114    66    68   ar
   115   110   113    1
   116    95    98    1
   117    95    96    1
   118   107   108    2
   119    69    70   ar
   120   113   114    1
   121    81    83   ar
   122    81    82   ar
   123    68    70   ar
   124    96    97    2
   125   114   115   ar
   126   114   116   ar
   127   115   117   ar
   128   116   118   ar
   129   117   119   ar
   130   118   119   ar
