@<TRIPOS>MOLECULE
tmp/5afeA00.pdb
 123 123 0 0 0
SMALL
GASTEIGER

@<TRIPOS>ATOM
      1  N         22.5130   -5.1950   23.2170 N.3    17  TRP17      -0.1227
      2  CA        23.9060   -5.1350   22.7570 C.3    17  TRP17       0.1737
      3  C         24.8430   -5.7700   23.7880 C.2    17  TRP17       0.2596
      4  O         24.4220   -6.1340   24.8870 O.2    17  TRP17      -0.2718
      5  CB        24.3340   -3.6840   22.4680 C.3    17  TRP17       0.0564
      6  CG        23.7970   -3.1470   21.1740 C.ar   17  TRP17       0.0003
      7  CD1       24.1260   -3.5650   19.9170 C.ar   17  TRP17       0.0946
      8  CD2       22.8410   -2.0920   21.0080 C.ar   17  TRP17       0.0152
      9  NE1       23.4290   -2.8440   18.9810 N.ar   17  TRP17      -0.2442
     10  CE2       22.6330   -1.9320   19.6230 C.ar   17  TRP17       0.0810
     11  CE3       22.1370   -1.2680   21.8960 C.ar   17  TRP17       0.0012
     12  CZ2       21.7520   -0.9780   19.1020 C.ar   17  TRP17       0.0191
     13  CZ3       21.2610   -0.3200   21.3780 C.ar   17  TRP17       0.0001
     14  CH2       21.0770   -0.1850   19.9940 C.ar   17  TRP17       0.0015
     15  N         26.1120   -5.9100   23.4130 N.am   18  GLY18      -0.1957
     16  CA        27.1370   -6.4430   24.3050 C.3    18  GLY18       0.1869
     17  C         27.2920   -7.9490   24.2590 C.2    18  GLY18       0.2309
     18  O         28.0020   -8.5190   25.0870 O.2    18  GLY18      -0.2863
     19  N         27.5630  -11.5130   21.3560 N.3    20  ASP20      -0.1225
     20  CA        28.4640  -11.9650   20.2930 C.3    20  ASP20       0.1805
     21  C         28.1740  -11.2560   18.9770 C.2    20  ASP20       0.2598
     22  O         29.0390  -10.5740   18.4310 O.2    20  ASP20      -0.2718
     23  CB        28.3340  -13.4760   20.0750 C.3    20  ASP20       0.1424
     24  CG        28.7750  -14.2800   21.2760 C.2    20  ASP20       0.3668
     25  OD1       29.9740  -14.2240   21.6270 O.co2  20  ASP20      -0.2456
     26  OD2       27.9210  -14.9790   21.8610 O.co2  20  ASP20      -0.2456
     27  N         26.9470  -11.4250   18.4870 N.am   21  ASP21      -0.1960
     28  CA        26.5520  -10.9840   17.1520 C.3    21  ASP21       0.1840
     29  C         25.3010  -10.1090   17.2130 C.2    21  ASP21       0.2622
     30  O         24.3950  -10.3680   18.0040 O.2    21  ASP21      -0.2715
     31  CB        26.2890  -12.2150   16.2700 C.3    21  ASP21       0.1450
     32  CG        25.7090  -11.8610   14.9000 C.2    21  ASP21       0.3671
     33  OD1       26.1500  -10.8640   14.2900 O.co2  21  ASP21      -0.2456
     34  OD2       24.8120  -12.5930   14.4260 O.co2  21  ASP21      -0.2456
     35  N         25.2730   -9.0690   16.3790 N.am   22  TRP22      -0.1974
     36  CA        24.0770   -8.2600   16.1620 C.3    22  TRP22       0.1640
     37  C         23.4830   -8.6610   14.8070 C.2    22  TRP22       0.2290
     38  O         23.9300   -8.1750   13.7700 O.2    22  TRP22      -0.2864
     39  CB        24.4340   -6.7680   16.1960 C.3    22  TRP22       0.0576
     40  CG        23.2600   -5.8280   16.0010 C.ar   22  TRP22       0.0006
     41  CD1       21.9310   -6.1310   16.1190 C.ar   22  TRP22       0.0946
     42  CD2       23.3220   -4.4270   15.6890 C.ar   22  TRP22       0.0152
     43  NE1       21.1640   -5.0130   15.8850 N.ar   22  TRP22      -0.2442
     44  CE2       21.9910   -3.9540   15.6200 C.ar   22  TRP22       0.0810
     45  CE3       24.3700   -3.5290   15.4550 C.ar   22  TRP22       0.0012
     46  CZ2       21.6820   -2.6240   15.3260 C.ar   22  TRP22       0.0191
     47  CZ3       24.0600   -2.2080   15.1620 C.ar   22  TRP22       0.0001
     48  CH2       22.7270   -1.7690   15.1010 C.ar   22  TRP22       0.0015
     49  N         20.6380   -8.5500    4.5790 N.3    27  GLU27      -0.1245
     50  CA        22.0030   -8.0310    4.4200 C.3    27  GLU27       0.1567
     51  C         22.6950   -8.4730    3.1200 C.2    27  GLU27       0.2260
     52  O         22.4490   -9.5730    2.6190 O.2    27  GLU27      -0.2867
     53  CB        22.8650   -8.4500    5.6120 C.3    27  GLU27       0.0388
     54  CG        22.7830   -9.9330    5.9310 C.3    27  GLU27       0.1160
     55  CD        23.8970  -10.4060    6.8420 C.2    27  GLU27       0.3649
     56  OE1       24.6240   -9.5610    7.4040 O.co2  27  GLU27      -0.2457
     57  OE2       24.0420  -11.6360    6.9990 O.co2  27  GLU27      -0.2457
     58  N         34.8870   -1.6280    6.0500 N.3    61  TRP61      -0.1241
     59  CA        35.7580   -2.1110    7.1280 C.3    61  TRP61       0.1605
     60  C         37.1270   -1.4220    7.1890 C.2    61  TRP61       0.2264
     61  O         37.6030   -1.0920    8.2750 O.2    61  TRP61      -0.2867
     62  CB        35.9890   -3.6270    7.0210 C.3    61  TRP61       0.0550
     63  CG        34.7620   -4.4980    6.8380 C.ar   61  TRP61       0.0003
     64  CD1       34.6320   -5.5350    5.9610 C.ar   61  TRP61       0.0946
     65  CD2       33.5170   -4.4200    7.5510 C.ar   61  TRP61       0.0152
     66  NE1       33.3910   -6.1080    6.0790 N.ar   61  TRP61      -0.2442
     67  CE2       32.6840   -5.4440    7.0460 C.ar   61  TRP61       0.0810
     68  CE3       33.0230   -3.5870    8.5660 C.ar   61  TRP61       0.0012
     69  CZ2       31.3820   -5.6570    7.5180 C.ar   61  TRP61       0.0191
     70  CZ3       31.7250   -3.7990    9.0360 C.ar   61  TRP61       0.0001
     71  CH2       30.9220   -4.8270    8.5090 C.ar   61  TRP61       0.0015
     72  N         36.8230    1.9760    8.1000 N.3    64  ASP64      -0.1239
     73  CA        36.1530    1.7920    9.3840 C.3    64  ASP64       0.1674
     74  C         35.0030    2.7790    9.5390 C.2    64  ASP64       0.2266
     75  O         34.9820    3.6020   10.4520 O.2    64  ASP64      -0.2867
     76  CB        37.1510    1.8860   10.5500 C.3    64  ASP64       0.1410
     77  CG        36.7380    1.0370   11.7510 C.2    64  ASP64       0.3668
     78  OD1       35.5420    0.6820   11.8760 O.co2  64  ASP64      -0.2456
     79  OD2       37.6210    0.7150   12.5740 O.co2  64  ASP64      -0.2456
     80  N         30.7310    3.1720    9.8100 N.3    66  TRP66      -0.1241
     81  CA        29.4940    2.4870   10.1810 C.3    66  TRP66       0.1605
     82  C         28.3700    3.5120   10.1720 C.2    66  TRP66       0.2264
     83  O         27.9440    4.0020   11.2160 O.2    66  TRP66      -0.2867
     84  CB        29.6350    1.8180   11.5500 C.3    66  TRP66       0.0550
     85  CG        28.4630    0.9510   11.9920 C.ar   66  TRP66       0.0003
     86  CD1       27.3060    1.3690   12.6000 C.ar   66  TRP66       0.0946
     87  CD2       28.3710   -0.4780   11.9100 C.ar   66  TRP66       0.0152
     88  NE1       26.5000    0.2930   12.8810 N.ar   66  TRP66      -0.2442
     89  CE2       27.1290   -0.8520   12.4690 C.ar   66  TRP66       0.0810
     90  CE3       29.2130   -1.4770   11.4120 C.ar   66  TRP66       0.0012
     91  CZ2       26.7100   -2.1810   12.5410 C.ar   66  TRP66       0.0191
     92  CZ3       28.7920   -2.8020   11.4830 C.ar   66  TRP66       0.0001
     93  CH2       27.5520   -3.1390   12.0430 C.ar   66  TRP66       0.0015
     94  N         24.7840    4.4140   10.1120 N.3    68  GLN68      -0.1245
     95  CA        23.6230    3.7260   10.6540 C.3    68  GLN68       0.1566
     96  C         22.5500    4.7800   10.8290 C.2    68  GLN68       0.2260
     97  O         22.7850    5.7840   11.5080 O.2    68  GLN68      -0.2867
     98  CB        23.9880    3.0980   12.0010 C.3    68  GLN68       0.0367
     99  CG        22.8270    2.5120   12.7920 C.3    68  GLN68       0.0905
    100  CD        23.2740    1.9520   14.1290 C.2    68  GLN68       0.2608
    101  OE1       24.2550    1.2090   14.2080 O.2    68  GLN68      -0.2717
    102  NE2       22.5600    2.3080   15.1880 N.am   68  GLN68      -0.0878
    103  N         29.4520   -3.5460    3.0910 N.3   100  TYR100     -0.1241
    104  CA        28.3430   -4.1410    3.8210 C.3   100  TYR100      0.1605
    105  C         27.1080   -3.2470    3.8590 C.2   100  TYR100      0.2264
    106  O         27.2140   -2.0410    4.0820 O.2   100  TYR100     -0.2867
    107  CB        28.8310   -4.4530    5.2330 C.3   100  TYR100      0.0534
    108  CG        27.8590   -5.1990    6.1130 C.ar  100  TYR100     -0.0201
    109  CD1       27.5710   -6.5420    5.8820 C.ar  100  TYR100     -0.0009
    110  CD2       27.2550   -4.5700    7.2050 C.ar  100  TYR100     -0.0009
    111  CE1       26.6870   -7.2320    6.6960 C.ar  100  TYR100      0.0417
    112  CE2       26.3700   -5.2490    8.0260 C.ar  100  TYR100      0.0417
    113  CZ        26.0880   -6.5800    7.7730 C.ar  100  TYR100      0.1957
    114  OH        25.2100   -7.2530    8.5970 O.3   100  TYR100     -0.2866
    115  N         18.7730   -3.9680   10.3090 N.3   104  LYS104     -0.1245
    116  CA        18.9580   -4.5710   11.6210 C.3   104  LYS104      0.1561
    117  C         17.9490   -4.0230   12.6260 C.2   104  LYS104      0.2260
    118  O         17.6160   -2.8360   12.5790 O.2   104  LYS104     -0.2867
    119  CB        20.3750   -4.2930   12.1160 C.3   104  LYS104      0.0271
    120  CG        21.4520   -5.0350   11.3490 C.3   104  LYS104      0.0035
    121  CD        22.8310   -4.6740   11.8750 C.3   104  LYS104      0.0206
    122  CE        23.9270   -5.4700   11.1890 C.3   104  LYS104      0.1093
    123  NZ        23.8010   -6.9300   11.4390 N.3   104  LYS104     -0.1314
@<TRIPOS>BOND
     1    52    51    2
     2   103   104    1
     3    51    50    1
     4   104   105    1
     5   104   107    1
     6   105   106    2
     7    50    49    1
     8    50    53    1
     9   107   108    1
    10    53    54    1
    11   109   108   ar
    12   109   111   ar
    13    54    55    1
    14    64    66   ar
    15    64    63   ar
    16    58    59    1
    17    66    67   ar
    18   108   110   ar
    19   111   113   ar
    20    63    62    1
    21    63    65   ar
    22    55    57   ar
    23    55    56   ar
    24    62    59    1
    25    67    69   ar
    26    67    65   ar
    27    59    60    1
    28    60    61    2
    29   110   112   ar
    30    69    71   ar
    31    65    68   ar
    32   113   112   ar
    33   113   114    1
    34    72    73    1
    35    71    70   ar
    36    68    70   ar
    37    73    74    1
    38    73    76    1
    39    74    75    2
    40    80    81    1
    41    94    95    1
    42    82    81    1
    43    82    83    2
    44    81    84    1
    45   115   116    1
    46    76    77    1
    47    95    96    1
    48    95    98    1
    49    96    97    2
    50   122   123    1
    51   122   121    1
    52   120   121    1
    53   120   119    1
    54    90    92   ar
    55    90    87   ar
    56    92    93   ar
    57    84    85    1
    58   116   119    1
    59   116   117    1
    60    77    78   ar
    61    77    79   ar
    62    87    85   ar
    63    87    89   ar
    64    85    86   ar
    65    98    99    1
    66    93    91   ar
    67    89    91   ar
    68    89    88   ar
    69   118   117    2
    70    86    88   ar
    71    99   100    1
    72    38    37    2
    73   100   101    2
    74   100   102   am
    75    33    32   ar
    76    34    32   ar
    77    37    36    1
    78    32    31    1
    79    48    47   ar
    80    48    46   ar
    81    47    45   ar
    82    46    44   ar
    83    45    42   ar
    84    44    42   ar
    85    44    43   ar
    86    42    40   ar
    87    43    41   ar
    88    40    41   ar
    89    40    39    1
    90    36    39    1
    91    36    35    1
    92    31    28    1
    93    35    29   am
    94    28    29    1
    95    28    27    1
    96    29    30    2
    97    22    21    2
    98    27    21   am
    99    21    20    1
   100     9    10   ar
   101     9     7   ar
   102    12    10   ar
   103    12    14   ar
   104    10     8   ar
   105     7     6   ar
   106    14    13   ar
   107    23    20    1
   108    23    24    1
   109    20    19    1
   110     8     6   ar
   111     8    11   ar
   112     6     5    1
   113    24    25   ar
   114    24    26   ar
   115    13    11   ar
   116     5     2    1
   117     2     1    1
   118     2     3    1
   119    15     3   am
   120    15    16    1
   121     3     4    2
   122    17    16    1
   123    17    18    2
