@<TRIPOS>MOLECULE
tmp/5afjC01.pdb
 97 93 0 0 0
SMALL
GASTEIGER

@<TRIPOS>ATOM
      1  N          4.0450  -12.0460   41.2890 N.3    35  SER35      -0.1217
      2  CA         4.0730  -13.3490   40.6160 C.3    35  SER35       0.1889
      3  C          5.4770  -13.5790   40.1230 C.2    35  SER35       0.2288
      4  O          6.0130  -12.7940   39.3340 O.2    35  SER35      -0.2866
      5  CB         3.1250  -13.4250   39.4170 C.3    35  SER35       0.2089
      6  OG         1.7760  -13.4830   39.8180 O.3    35  SER35      -0.2183
      7  N          8.2170  -15.2340   37.8730 N.3    37  LEU37      -0.1245
      8  CA         8.2750  -15.7280   36.5100 C.3    37  LEU37       0.1561
      9  C          9.4810  -16.5980   36.2440 C.2    37  LEU37       0.2260
     10  O          9.3700  -17.7480   35.7830 O.2    37  LEU37      -0.2867
     11  CB         8.3370  -14.5510   35.5660 C.3    37  LEU37       0.0270
     12  CG         7.0640  -13.7850   35.6750 C.3    37  LEU37       0.0019
     13  CD1        7.0440  -12.6040   34.6940 C.3    37  LEU37       0.0001
     14  CD2        6.0030  -14.8350   35.4260 C.3    37  LEU37       0.0001
     15  N          6.0870  -10.1280   38.0570 N.3    54  TRP54      -0.1241
     16  CA         5.0620   -9.1010   37.9750 C.3    54  TRP54       0.1605
     17  C          4.6650   -8.6710   39.3530 C.2    54  TRP54       0.2264
     18  O          4.5030   -9.5070   40.2490 O.2    54  TRP54      -0.2867
     19  CB         3.8010   -9.6320   37.3270 C.3    54  TRP54       0.0550
     20  CG         3.8630   -9.6650   35.8930 C.ar   54  TRP54       0.0003
     21  CD1        3.9050   -8.6050   35.0520 C.ar   54  TRP54       0.0946
     22  CD2        3.8600  -10.8300   35.0840 C.ar   54  TRP54       0.0152
     23  NE1        3.9480   -9.0440   33.7480 N.ar   54  TRP54      -0.2442
     24  CE2        3.9230  -10.4100   33.7470 C.ar   54  TRP54       0.0810
     25  CE3        3.8280  -12.1940   35.3610 C.ar   54  TRP54       0.0012
     26  CZ2        3.9370  -11.2890   32.7020 C.ar   54  TRP54       0.0191
     27  CZ3        3.8180  -13.0620   34.3060 C.ar   54  TRP54       0.0001
     28  CH2        3.9080  -12.6050   33.0010 C.ar   54  TRP54       0.0015
     29  N          4.4250   -1.7230   29.0930 N.3   103  PRO103     -0.2116
     30  CA         4.0270   -0.3200   28.9700 C.3   103  PRO103      0.1372
     31  C          3.6630    0.2560   30.3310 C.2   103  PRO103      0.2244
     32  O          3.0080   -0.3910   31.1390 O.2   103  PRO103     -0.2868
     33  CB         2.7960   -0.3840   28.0740 C.3   103  PRO103      0.0268
     34  CG         2.9930   -1.6440   27.2590 C.3   103  PRO103      0.0207
     35  CD         3.6590   -2.6060   28.1900 C.3   103  PRO103      0.0892
     36  N          1.4560    2.0250   31.9580 N.3   105  LEU105     -0.1231
     37  CA         0.0930    2.5290   31.9920 C.3   105  LEU105      0.1693
     38  C         -0.6680    1.8030   33.0950 C.2   105  LEU105      0.2592
     39  O         -0.4200    0.6240   33.3310 O.2   105  LEU105     -0.2718
     40  CB        -0.5920    2.1980   30.6790 C.3   105  LEU105      0.0284
     41  CG        -0.0160    2.6840   29.3700 C.3   105  LEU105      0.0019
     42  CD1       -0.7850    1.9870   28.2720 C.3   105  LEU105      0.0001
     43  CD2       -0.2070    4.1980   29.2880 C.3   105  LEU105      0.0001
     44  N         -1.6060    2.4950   33.7400 N.am  106  ALA106     -0.1966
     45  CA        -2.4930    1.8820   34.7290 C.3   106  ALA106      0.1728
     46  C         -3.9390    1.9800   34.2820 C.2   106  ALA106      0.2616
     47  O         -4.3090    2.8930   33.5410 O.2   106  ALA106     -0.2715
     48  CB        -2.3350    2.5450   36.0980 C.3   106  ALA106      0.0334
     49  N         -4.7570    1.0470   34.7590 N.am  107  LEU107     -0.1977
     50  CA        -6.1910    1.0470   34.4990 C.3   107  LEU107      0.1596
     51  C         -6.8930    1.7710   35.6220 C.2   107  LEU107      0.2287
     52  O         -6.6290    1.5040   36.7950 O.2   107  LEU107     -0.2864
     53  CB        -6.7210   -0.3860   34.4270 C.3   107  LEU107      0.0297
     54  CG        -6.7460   -1.0890   33.0720 C.3   107  LEU107      0.0022
     55  CD1       -7.1470   -2.5440   33.2360 C.3   107  LEU107      0.0001
     56  CD2       -7.6990   -0.3800   32.1250 C.3   107  LEU107      0.0001
     57  N         -5.4160    0.1660   38.7830 N.3   115  GLN115     -0.1231
     58  CA        -4.7290   -1.1120   38.6800 C.3   115  GLN115      0.1698
     59  C         -3.4580   -0.8950   37.8900 C.2   115  GLN115      0.2592
     60  O         -3.5000   -0.3300   36.7940 O.2   115  GLN115     -0.2718
     61  CB        -5.6040   -2.1330   37.9610 C.3   115  GLN115      0.0381
     62  CG        -6.7240   -2.7230   38.7940 C.3   115  GLN115      0.0905
     63  CD        -6.5120   -4.2020   39.0680 C.2   115  GLN115      0.2608
     64  OE1       -5.4360   -4.7430   38.7970 O.2   115  GLN115     -0.2717
     65  NE2       -7.5380   -4.8660   39.5930 N.am  115  GLN115     -0.0878
     66  N         -2.3340   -1.3360   38.4500 N.am  116  TYR116     -0.1962
     67  CA        -1.0340   -1.2130   37.8080 C.3   116  TYR116      0.1771
     68  C         -0.2530   -2.5200   37.9360 C.2   116  TYR116      0.2619
     69  O          0.0770   -2.9570   39.0520 O.2   116  TYR116     -0.2715
     70  CB        -0.2480   -0.0740   38.4350 C.3   116  TYR116      0.0574
     71  CG         1.1580    0.1280   37.8910 C.ar  116  TYR116     -0.0198
     72  CD1        1.4050    0.2000   36.5170 C.ar  116  TYR116     -0.0009
     73  CD2        2.2390    0.2920   38.7610 C.ar  116  TYR116     -0.0009
     74  CE1        2.7090    0.4160   36.0270 C.ar  116  TYR116      0.0417
     75  CE2        3.5320    0.5120   38.2820 C.ar  116  TYR116      0.0417
     76  CZ         3.7540    0.5760   36.9240 C.ar  116  TYR116      0.1957
     77  OH         5.0340    0.7900   36.4770 O.3   116  TYR116     -0.2866
     78  N          0.0520   -3.1340   36.7950 N.am  117  LEU117     -0.1977
     79  CA         0.6320   -4.4750   36.7830 C.3   117  LEU117      0.1596
     80  C          1.9370   -4.5680   35.9870 C.2   117  LEU117      0.2287
     81  O          1.9400   -5.1480   34.9070 O.2   117  LEU117     -0.2864
     82  CB        -0.3820   -5.4500   36.1720 C.3   117  LEU117      0.0297
     83  CG        -1.7930   -5.6460   36.7440 C.3   117  LEU117      0.0022
     84  CD1       -2.2290   -7.0880   36.5380 C.3   117  LEU117      0.0001
     85  CD2       -1.9030   -5.2830   38.2130 C.3   117  LEU117      0.0001
     86  N          1.5210  -15.5350   43.4170 N.3   161  ASP161     -0.1239
     87  CA         1.2650  -16.5030   42.3570 C.3   161  ASP161      0.1674
     88  C          2.5530  -17.0980   41.8160 C.2   161  ASP161      0.2266
     89  O          3.5660  -16.4080   41.6750 O.2   161  ASP161     -0.2867
     90  CB         0.4460  -15.8810   41.2220 C.3   161  ASP161      0.1410
     91  CG        -0.3730  -16.9100   40.4560 C.2   161  ASP161      0.3668
     92  OD1        0.0990  -18.0580   40.2890 O.co2 161  ASP161     -0.2456
     93  OD2       -1.4990  -16.5690   40.0310 O.co2 161  ASP161     -0.2456
     94  N          2.5060  -18.9890   36.9410 N.3   164  GLY164     -0.1225
     95  CA         3.1630  -18.4060   35.7850 C.3   164  GLY164      0.1811
     96  C          4.6550  -18.6700   35.7780 C.2   164  GLY164      0.2280
     97  O          5.3680  -18.2610   34.8650 O.2   164  GLY164     -0.2866
@<TRIPOS>BOND
     1    34    33    1
     2    34    35    1
     3    33    30    1
     4    35    29    1
     5    42    41    1
     6    30    29    1
     7    30    31    1
     8    43    41    1
     9    41    40    1
    10    31    32    2
    11    40    37    1
    12    36    37    1
    13    37    38    1
    14    56    54    1
    15    26    28   ar
    16    26    24   ar
    17    28    27   ar
    18    54    55    1
    19    54    53    1
    20    38    39    2
    21    38    44   am
    22    47    46    2
    23    44    45    1
    24    24    23   ar
    25    24    22   ar
    26    23    21   ar
    27    46    45    1
    28    46    49   am
    29    27    25   ar
    30    53    50    1
    31    50    49    1
    32    50    51    1
    33    13    12    1
    34    45    48    1
    35    97    96    2
    36    81    80    2
    37    21    20   ar
    38    22    25   ar
    39    22    20   ar
    40    14    12    1
    41    11    12    1
    42    11     8    1
    43    51    52    2
    44    96    95    1
    45    10     9    2
    46    95    94    1
    47    20    19    1
    48    80    79    1
    49    74    72   ar
    50    74    76   ar
    51    82    83    1
    52    82    79    1
    53     9     8    1
    54    77    76    1
    55     8     7    1
    56    72    71   ar
    57    84    83    1
    58    83    85    1
    59    79    78    1
    60    60    59    2
    61    78    68   am
    62    76    75   ar
    63    19    16    1
    64    67    68    1
    65    67    70    1
    66    67    66    1
    67    59    66   am
    68    59    58    1
    69    71    70    1
    70    71    73   ar
    71    68    69    2
    72    61    58    1
    73    61    62    1
    74    16    15    1
    75    16    17    1
    76    75    73   ar
    77    58    57    1
    78    62    63    1
    79    64    63    2
    80    63    65   am
    81     4     3    2
    82    17    18    2
    83     5     6    1
    84     5     2    1
    85    93    91   ar
    86     3     2    1
    87    92    91   ar
    88    91    90    1
    89     2     1    1
    90    90    87    1
    91    89    88    2
    92    88    87    1
    93    87    86    1
