@<TRIPOS>MOLECULE
tmp/5afjD03.pdb
 150 147 0 0 0
SMALL
GASTEIGER

@<TRIPOS>ATOM
      1  N         -0.2460   23.1890   48.7660 N.3     7  LEU7       -0.1231
      2  CA         1.1560   23.2760   49.1330 C.3     7  LEU7        0.1693
      3  C          2.0740   23.0300   47.9360 C.2     7  LEU7        0.2592
      4  O          2.9710   23.8320   47.6660 O.2     7  LEU7       -0.2718
      5  CB         1.4720   22.3000   50.2680 C.3     7  LEU7        0.0284
      6  CG         2.8350   22.4460   50.9670 C.3     7  LEU7        0.0019
      7  CD1        2.9150   23.7150   51.8260 C.3     7  LEU7        0.0001
      8  CD2        3.1350   21.2100   51.8120 C.3     7  LEU7        0.0001
      9  N          1.8470   21.9310   47.2190 N.am    8  TYR8       -0.1976
     10  CA         2.7250   21.5550   46.1130 C.3     8  TYR8        0.1639
     11  C          2.6150   22.5650   44.9720 C.2     8  TYR8        0.2290
     12  O          3.5910   22.8010   44.2510 O.2     8  TYR8       -0.2864
     13  CB         2.4030   20.1610   45.5780 C.3     8  TYR8        0.0560
     14  CG         2.8660   18.9850   46.4100 C.ar    8  TYR8       -0.0198
     15  CD1        2.1140   18.5350   47.4890 C.ar    8  TYR8       -0.0009
     16  CD2        4.0380   18.2940   46.0940 C.ar    8  TYR8       -0.0009
     17  CE1        2.5100   17.4430   48.2380 C.ar    8  TYR8        0.0417
     18  CE2        4.4360   17.1880   46.8350 C.ar    8  TYR8        0.0417
     19  CZ         3.6710   16.7660   47.9060 C.ar    8  TYR8        0.1957
     20  OH         4.0530   15.6670   48.6650 O.3     8  TYR8       -0.2866
     21  N          2.2270   25.8110   45.3020 N.3    10  GLU10      -0.1231
     22  CA         3.1390   26.8880   45.6920 C.3    10  GLU10       0.1699
     23  C          4.5690   26.5530   45.3380 C.2    10  GLU10       0.2592
     24  O          5.3580   27.4300   44.9860 O.2    10  GLU10      -0.2718
     25  CB         3.0520   27.1920   47.1880 C.3    10  GLU10       0.0402
     26  CG         1.8750   28.0620   47.5690 C.3    10  GLU10       0.1161
     27  CD         1.8520   29.3760   46.8030 C.2    10  GLU10       0.3649
     28  OE1        2.7720   30.2030   47.0030 O.co2  10  GLU10      -0.2457
     29  OE2        0.9230   29.5730   45.9880 O.co2  10  GLU10      -0.2457
     30  N          4.9090   25.2780   45.4320 N.am   11  LEU11      -0.1980
     31  CA         6.2580   24.8610   45.1090 C.3    11  LEU11       0.1596
     32  C          6.6180   25.1530   43.6400 C.2    11  LEU11       0.2287
     33  O          7.7540   25.5040   43.3300 O.2    11  LEU11      -0.2864
     34  CB         6.4210   23.3820   45.4230 C.3    11  LEU11       0.0297
     35  CG         7.8500   22.9180   45.6490 C.3    11  LEU11       0.0022
     36  CD1        8.5020   23.7540   46.7330 C.3    11  LEU11       0.0001
     37  CD2        7.8290   21.4620   46.0240 C.3    11  LEU11       0.0001
     38  N          6.3570   29.5180   43.2720 N.3    14  ASN14      -0.1225
     39  CA         7.0030   30.4100   44.2280 C.3    14  ASN14       0.1785
     40  C          8.2820   29.8280   44.8400 C.2    14  ASN14       0.2597
     41  O          8.5000   29.9690   46.0480 O.2    14  ASN14      -0.2718
     42  CB         6.0020   30.7360   45.3450 C.3    14  ASN14       0.1169
     43  CG         6.2890   32.0520   46.0420 C.2    14  ASN14       0.2627
     44  OD1        7.3510   32.6540   45.8610 O.2    14  ASN14      -0.2716
     45  ND2        5.3380   32.5010   46.8610 N.am   14  ASN14      -0.0877
     46  N          9.1210   29.1800   44.0230 N.am   15  TYR15      -0.1976
     47  CA        10.3360   28.5260   44.5210 C.3    15  TYR15       0.1639
     48  C         11.3220   28.1700   43.4010 C.2    15  TYR15       0.2290
     49  O         10.9110   27.7660   42.3120 O.2    15  TYR15      -0.2864
     50  CB         9.9800   27.2490   45.3080 C.3    15  TYR15       0.0560
     51  CG        11.1840   26.5000   45.8840 C.ar   15  TYR15      -0.0198
     52  CD1       11.7050   26.8460   47.1370 C.ar   15  TYR15      -0.0009
     53  CD2       11.7940   25.4440   45.1850 C.ar   15  TYR15      -0.0009
     54  CE1       12.8050   26.1780   47.6870 C.ar   15  TYR15       0.0417
     55  CE2       12.9160   24.7480   45.7360 C.ar   15  TYR15       0.0417
     56  CZ        13.4070   25.1330   46.9940 C.ar   15  TYR15       0.1957
     57  OH        14.4910   24.4980   47.5780 O.3    15  TYR15      -0.2866
     58  N         13.3800   28.6070   52.6650 N.3    63  TYR63      -0.1227
     59  CA        12.3390   28.8470   51.6720 C.3    63  TYR63       0.1736
     60  C         11.2630   27.7560   51.7020 C.2    63  TYR63       0.2595
     61  O         10.2010   27.8990   51.0880 O.2    63  TYR63      -0.2718
     62  CB        12.9340   28.9140   50.2560 C.3    63  TYR63       0.0548
     63  CG        13.6840   30.1880   49.9360 C.ar   63  TYR63      -0.0200
     64  CD1       13.0510   31.4170   49.9810 C.ar   63  TYR63      -0.0009
     65  CD2       15.0270   30.1540   49.5650 C.ar   63  TYR63      -0.0009
     66  CE1       13.7410   32.5890   49.6820 C.ar   63  TYR63       0.0417
     67  CE2       15.7240   31.3160   49.2550 C.ar   63  TYR63       0.0417
     68  CZ        15.0750   32.5270   49.3160 C.ar   63  TYR63       0.1957
     69  OH        15.7610   33.6840   49.0220 O.3    63  TYR63      -0.2866
     70  N         11.5440   26.6560   52.3910 N.am   64  LEU64      -0.1966
     71  CA        10.6350   25.5210   52.3560 C.3    64  LEU64       0.1728
     72  C          9.7440   25.4400   53.5780 C.2    64  LEU64       0.2616
     73  O          9.0440   24.4400   53.7730 O.2    64  LEU64      -0.2715
     74  CB        11.4010   24.2110   52.1900 C.3    64  LEU64       0.0311
     75  CG        11.9430   23.9730   50.7910 C.3    64  LEU64       0.0022
     76  CD1       12.6220   22.6030   50.7290 C.3    64  LEU64       0.0001
     77  CD2       10.8180   24.1050   49.7670 C.3    64  LEU64       0.0001
     78  N          9.7660   26.4740   54.4080 N.am   65  GLN65      -0.1963
     79  CA         8.8820   26.4510   55.5500 C.3    65  GLN65       0.1733
     80  C          7.5020   26.9460   55.1360 C.2    65  GLN65       0.2616
     81  O          7.3680   27.7000   54.1720 O.2    65  GLN65      -0.2715
     82  CB         9.4660   27.2150   56.7460 C.3    65  GLN65       0.0408
     83  CG         9.8710   28.6340   56.4790 C.3    65  GLN65       0.0908
     84  CD        10.7410   29.2030   57.5920 C.2    65  GLN65       0.2608
     85  OE1       10.4070   29.1000   58.7780 O.2    65  GLN65      -0.2717
     86  NE2       11.8670   29.8000   57.2130 N.am   65  GLN65      -0.0878
     87  N          6.4730   26.4620   55.8220 N.am   66  TRP66      -0.1974
     88  CA         5.1110   26.9210   55.5730 C.3    66  TRP66       0.1640
     89  C          4.3740   27.0430   56.8900 C.2    66  TRP66       0.2290
     90  O          4.8130   26.4920   57.9060 O.2    66  TRP66      -0.2864
     91  CB         4.3530   25.9870   54.6130 C.3    66  TRP66       0.0576
     92  CG         3.9700   24.6280   55.1850 C.ar   66  TRP66       0.0006
     93  CD1        2.8700   24.3310   55.9430 C.ar   66  TRP66       0.0946
     94  CD2        4.6770   23.3850   55.0030 C.ar   66  TRP66       0.0152
     95  NE1        2.8550   22.9860   56.2440 N.ar   66  TRP66      -0.2442
     96  CE2        3.9500   22.3860   55.6770 C.ar   66  TRP66       0.0810
     97  CE3        5.8500   23.0280   54.3330 C.ar   66  TRP66       0.0012
     98  CZ2        4.3630   21.0490   55.7130 C.ar   66  TRP66       0.0191
     99  CZ3        6.2580   21.6940   54.3590 C.ar   66  TRP66       0.0001
    100  CH2        5.5150   20.7240   55.0520 C.ar   66  TRP66       0.0015
    101  N         -2.2090   27.4100   57.8650 N.3    70  GLU70      -0.1231
    102  CA        -2.6370   27.6150   56.4860 C.3    70  GLU70       0.1699
    103  C         -2.8790   26.2710   55.7820 C.2    70  GLU70       0.2592
    104  O         -3.7690   26.1570   54.9480 O.2    70  GLU70      -0.2718
    105  CB        -1.5840   28.4380   55.7450 C.3    70  GLU70       0.0402
    106  CG        -1.9980   28.9310   54.3730 C.3    70  GLU70       0.1161
    107  CD        -0.8560   29.6300   53.6420 C.2    70  GLU70       0.3649
    108  OE1        0.2090   29.8640   54.2530 O.co2  70  GLU70      -0.2457
    109  OE2       -1.0150   29.9330   52.4490 O.co2  70  GLU70      -0.2457
    110  N         -2.0870   25.2570   56.1270 N.am   71  TYR71      -0.1976
    111  CA        -2.3010   23.9000   55.6240 C.3    71  TYR71       0.1639
    112  C         -2.4290   22.9160   56.8020 C.2    71  TYR71       0.2290
    113  O         -1.5360   22.0920   57.0170 O.2    71  TYR71      -0.2864
    114  CB        -1.1430   23.4620   54.7220 C.3    71  TYR71       0.0560
    115  CG        -0.6840   24.4760   53.6910 C.ar   71  TYR71      -0.0198
    116  CD1        0.1540   25.5340   54.0460 C.ar   71  TYR71      -0.0009
    117  CD2       -1.0700   24.3650   52.3590 C.ar   71  TYR71      -0.0009
    118  CE1        0.5800   26.4590   53.1090 C.ar   71  TYR71       0.0417
    119  CE2       -0.6430   25.2790   51.4090 C.ar   71  TYR71       0.0417
    120  CZ         0.1820   26.3250   51.7880 C.ar   71  TYR71       0.1957
    121  OH         0.6090   27.2340   50.8460 O.3    71  TYR71      -0.2866
    122  N          5.7410   16.3310   53.9190 N.3    77  VAL77      -0.1245
    123  CA         5.3730   15.8350   52.6150 C.3    77  VAL77       0.1561
    124  C          6.5180   15.1130   51.9150 C.2    77  VAL77       0.2260
    125  O          7.7030   15.3300   52.2040 O.2    77  VAL77      -0.2867
    126  CB         4.8330   16.9680   51.7180 C.3    77  VAL77       0.0252
    127  CG1        3.4760   17.4210   52.2220 C.3    77  VAL77       0.0019
    128  CG2        5.8180   18.1320   51.6740 C.3    77  VAL77       0.0019
    129  N          8.4200   14.6570   48.4980 N.3    79  VAL79      -0.1245
    130  CA         8.6330   15.5320   47.3410 C.3    79  VAL79       0.1561
    131  C          9.7340   15.0330   46.3940 C.2    79  VAL79       0.2260
    132  O         10.8140   14.6740   46.8490 O.2    79  VAL79      -0.2867
    133  CB         9.0350   16.9540   47.8200 C.3    79  VAL79       0.0252
    134  CG1        9.3120   17.8580   46.6420 C.3    79  VAL79       0.0019
    135  CG2        7.9450   17.5680   48.7460 C.3    79  VAL79       0.0019
    136  N         13.3840   20.3120   44.3480 N.3    84  LEU84      -0.1245
    137  CA        14.0190   20.9440   45.4990 C.3    84  LEU84       0.1561
    138  C         15.4680   21.3000   45.2420 C.2    84  LEU84       0.2260
    139  O         16.1290   20.6590   44.4360 O.2    84  LEU84      -0.2867
    140  CB        14.0130   19.9830   46.6820 C.3    84  LEU84       0.0270
    141  CG        12.6920   19.3710   47.1250 C.3    84  LEU84       0.0019
    142  CD1       12.9670   18.3970   48.2750 C.3    84  LEU84       0.0001
    143  CD2       11.7530   20.4800   47.5430 C.3    84  LEU84       0.0001
    144  N         10.0020   16.5940   53.5490 N.3   108  VAL108     -0.1245
    145  CA        10.1360   17.9920   53.9050 C.3   108  VAL108      0.1561
    146  C          9.0990   18.2680   54.9730 C.2   108  VAL108      0.2260
    147  O          7.9150   18.0040   54.7540 O.2   108  VAL108     -0.2867
    148  CB         9.8430   18.9410   52.6860 C.3   108  VAL108      0.0252
    149  CG1       10.1090   20.3980   53.0620 C.3   108  VAL108      0.0019
    150  CG2       10.6630   18.5530   51.4610 C.3   108  VAL108      0.0019
@<TRIPOS>BOND
     1    49    48    2
     2    38    39    1
     3    33    32    2
     4    48    47    1
     5    32    31    1
     6    46    47    1
     7    46    40   am
     8    39    40    1
     9    39    42    1
    10    12    11    2
    11   136   137    1
    12   139   138    2
    13    47    50    1
    14    40    41    2
    15    11    10    1
    16    24    23    2
    17    31    34    1
    18    31    30    1
    19    53    55   ar
    20    53    51   ar
    21   138   137    1
    22    21    22    1
    23    50    51    1
    24    23    30   am
    25    23    22    1
    26    42    43    1
    27    34    35    1
    28   137   140    1
    29    13    10    1
    30    13    14    1
    31    35    37    1
    32    35    36    1
    33    22    25    1
    34    55    56   ar
    35    44    43    2
    36    51    52   ar
    37    29    27   ar
    38    43    45   am
    39    16    14   ar
    40    16    18   ar
    41    10     9    1
    42   131   132    2
    43   131   130    1
    44    14    15   ar
    45   134   133    1
    46   140   141    1
    47    27    28   ar
    48    27    26    1
    49    18    19   ar
    50    56    57    1
    51    56    54   ar
    52   141   143    1
    53   141   142    1
    54    52    54   ar
    55    25    26    1
    56     9     3   am
    57   130   133    1
    58   130   129    1
    59    15    17   ar
    60     4     3    2
    61   133   135    1
    62    19    17   ar
    63    19    20    1
    64     3     2    1
    65     1     2    1
    66    69    68    1
    67     2     5    1
    68    67    68   ar
    69    67    65   ar
    70    68    66   ar
    71    65    63   ar
    72    66    64   ar
    73    77    75    1
    74    63    64   ar
    75    63    62    1
    76    62    59    1
    77     5     6    1
    78    76    75    1
    79    75    74    1
    80   121   120    1
    81     6     8    1
    82     6     7    1
    83    61    60    2
    84   119   120   ar
    85   119   117   ar
    86   150   148    1
    87    59    60    1
    88    59    58    1
    89   128   126    1
    90    60    70   am
    91   126   127    1
    92   126   123    1
    93   120   118   ar
    94   124   125    2
    95   124   123    1
    96    74    71    1
    97    71    70    1
    98    71    72    1
    99   117   115   ar
   100   109   107   ar
   101   123   122    1
   102   148   149    1
   103   148   145    1
   104   118   116   ar
   105   144   145    1
   106    72    73    2
   107    72    78   am
   108   107   108   ar
   109   107   106    1
   110   115   116   ar
   111   115   114    1
   112   145   146    1
   113    81    80    2
   114    97    99   ar
   115    97    94   ar
   116    99   100   ar
   117   106   105    1
   118    78    79    1
   119    91    92    1
   120    91    88    1
   121   114   111    1
   122   147   146    2
   123   104   103    2
   124    94    92   ar
   125    94    96   ar
   126   100    98   ar
   127    80    79    1
   128    80    87   am
   129    92    93   ar
   130    79    82    1
   131    88    87    1
   132    88    89    1
   133   111   110    1
   134   111   112    1
   135    96    98   ar
   136    96    95   ar
   137   105   102    1
   138   103   110   am
   139   103   102    1
   140    93    95   ar
   141    83    82    1
   142    83    84    1
   143   102   101    1
   144   112   113    2
   145    89    90    2
   146    86    84   am
   147    84    85    2
