@<TRIPOS>MOLECULE
tmp/5afkE03.pdb
 92 93 0 0 0
SMALL
GASTEIGER

@<TRIPOS>ATOM
      1  N        -47.4210    5.5820  -29.1950 N.3    17  PRO17      -0.2102
      2  CA       -46.2800    4.8330  -29.7210 C.3    17  PRO17       0.1504
      3  C        -46.2660    3.3450  -29.2830 C.2    17  PRO17       0.2576
      4  O        -45.3220    2.6200  -29.6080 O.2    17  PRO17      -0.2718
      5  CB       -45.0730    5.5950  -29.1470 C.3    17  PRO17       0.0282
      6  CG       -45.5830    6.1110  -27.8220 C.3    17  PRO17       0.0208
      7  CD       -47.0620    6.4130  -28.0300 C.3    17  PRO17       0.0893
      8  N        -47.2860    2.8850  -28.5650 N.am   18  ASP18      -0.1960
      9  CA       -47.3380    1.4600  -28.2330 C.3    18  ASP18       0.1840
     10  C        -48.2240    0.6760  -29.2010 C.2    18  ASP18       0.2622
     11  O        -48.2970   -0.5480  -29.1110 O.2    18  ASP18      -0.2715
     12  CB       -47.8320    1.2370  -26.8090 C.3    18  ASP18       0.1450
     13  CG       -46.8630    1.7620  -25.7610 C.2    18  ASP18       0.3671
     14  OD1      -45.6570    1.9230  -26.0840 O.co2  18  ASP18      -0.2456
     15  OD2      -47.3130    2.0020  -24.6070 O.co2  18  ASP18      -0.2456
     16  N        -48.9040    1.3770  -30.1130 N.am   19  VAL19      -0.1963
     17  CA       -49.8070    0.7170  -31.0510 C.3    19  VAL19       0.1727
     18  C        -49.2320    0.6030  -32.4580 C.2    19  VAL19       0.2616
     19  O        -48.9390    1.6140  -33.1080 O.2    19  VAL19      -0.2715
     20  CB       -51.1650    1.3990  -31.1060 C.3    19  VAL19       0.0290
     21  CG1      -52.0260    0.7480  -32.1660 C.3    19  VAL19       0.0023
     22  CG2      -51.8320    1.2910  -29.7490 C.3    19  VAL19       0.0023
     23  N        -49.0480   -0.6370  -32.9160 N.am   20  ILE20      -0.1977
     24  CA       -48.5270   -0.8560  -34.2570 C.3    20  ILE20       0.1596
     25  C        -49.4940   -0.2110  -35.2460 C.2    20  ILE20       0.2287
     26  O        -50.7070   -0.4050  -35.1610 O.2    20  ILE20      -0.2864
     27  CB       -48.3190   -2.3590  -34.5620 C.3    20  ILE20       0.0276
     28  CG1      -47.7430   -2.5560  -35.9670 C.3    20  ILE20       0.0022
     29  CG2      -49.6130   -3.1370  -34.3620 C.3    20  ILE20       0.0022
     30  CD1      -47.3390   -3.9950  -36.2770 C.3    20  ILE20       0.0001
     31  N        -43.6560    4.6180  -32.6190 N.3    85  TRP85      -0.1227
     32  CA       -43.7320    3.1640  -32.7060 C.3    85  TRP85       0.1737
     33  C        -42.5340    2.7300  -33.5260 C.2    85  TRP85       0.2595
     34  O        -42.2720    3.3010  -34.5830 O.2    85  TRP85      -0.2718
     35  CB       -44.9990    2.6730  -33.4000 C.3    85  TRP85       0.0564
     36  CG       -45.0230    1.1660  -33.5330 C.ar   85  TRP85       0.0003
     37  CD1      -45.4950    0.2680  -32.6160 C.ar   85  TRP85       0.0946
     38  CD2      -44.5420    0.3910  -34.6400 C.ar   85  TRP85       0.0152
     39  NE1      -45.3450   -1.0070  -33.0840 N.ar   85  TRP85      -0.2442
     40  CE2      -44.7570   -0.9640  -34.3210 C.ar   85  TRP85       0.0810
     41  CE3      -43.9500    0.7130  -35.8650 C.ar   85  TRP85       0.0012
     42  CZ2      -44.4020   -2.0000  -35.1780 C.ar   85  TRP85       0.0191
     43  CZ3      -43.5960   -0.3160  -36.7170 C.ar   85  TRP85       0.0001
     44  CH2      -43.8240   -1.6630  -36.3670 C.ar   85  TRP85       0.0015
     45  N        -41.7850    1.7540  -33.0220 N.am   86  VAL86      -0.1966
     46  CA       -40.7070    1.1570  -33.8070 C.3    86  VAL86       0.1712
     47  C        -40.8950   -0.3590  -33.8650 C.2    86  VAL86       0.2458
     48  O        -41.4440   -0.9520  -32.9510 O.2    86  VAL86      -0.2730
     49  CB       -39.3160    1.5080  -33.2480 C.3    86  VAL86       0.0289
     50  CG1      -39.1310    3.0360  -33.2170 C.3    86  VAL86       0.0023
     51  CG2      -39.1730    0.9550  -31.8790 C.3    86  VAL86       0.0023
     52  N        -40.4870   -0.9810  -34.9750 N.am   87  PRO87      -0.2716
     53  CA       -40.6140   -2.4360  -35.0380 C.3    87  PRO87       0.1536
     54  C        -39.8410   -3.1000  -33.8830 C.2    87  PRO87       0.2598
     55  O        -38.7490   -2.6510  -33.5290 O.2    87  PRO87      -0.2715
     56  CB       -39.9810   -2.7780  -36.3790 C.3    87  PRO87       0.0310
     57  CG       -40.1910   -1.5370  -37.2160 C.3    87  PRO87       0.0237
     58  CD       -40.0730   -0.3850  -36.2620 C.3    87  PRO87       0.0939
     59  N        -40.4160   -4.1410  -33.2910 N.am   88  ASP88      -0.1972
     60  CA       -39.7880   -4.7820  -32.1500 C.3    88  ASP88       0.1709
     61  C        -38.8730   -5.8900  -32.6740 C.2    88  ASP88       0.2293
     62  O        -38.9950   -7.0650  -32.2850 O.2    88  ASP88      -0.2864
     63  CB       -40.8580   -5.3380  -31.2020 C.3    88  ASP88       0.1436
     64  CG       -41.7600   -6.3620  -31.8900 C.2    88  ASP88       0.3671
     65  OD1      -41.8710   -6.2870  -33.1470 O.co2  88  ASP88      -0.2456
     66  OD2      -42.3370   -7.2460  -31.1920 O.co2  88  ASP88      -0.2456
     67  N        -42.8890  -10.1900  -31.2510 N.3   147  THR147     -0.1203
     68  CA       -44.2820  -10.4160  -30.8670 C.3   147  THR147      0.1994
     69  C        -45.2450  -10.3080  -32.0430 C.2   147  THR147      0.2617
     70  O        -46.3780  -10.7630  -31.9560 O.2   147  THR147     -0.2717
     71  CB       -44.7400   -9.3620  -29.8360 C.3   147  THR147      0.1784
     72  OG1      -44.6080   -8.0500  -30.4140 O.3   147  THR147     -0.2211
     73  CG2      -43.8950   -9.4490  -28.5500 C.3   147  THR147      0.0376
     74  N        -44.8210   -9.6770  -33.1330 N.am  148  HIS148     -0.1975
     75  CA       -45.7190   -9.4980  -34.2800 C.3   148  HIS148      0.1656
     76  C        -45.5260  -10.5400  -35.3990 C.2   148  HIS148      0.2291
     77  O        -44.4140  -10.7700  -35.8550 O.2   148  HIS148     -0.2864
     78  CB       -45.5970   -8.0900  -34.8470 C.3   148  HIS148      0.0771
     79  CG       -45.9960   -7.0200  -33.8850 C.ar  148  HIS148      0.0820
     80  ND1      -47.2890   -6.8560  -33.4520 N.ar  148  HIS148     -0.2267
     81  CD2      -45.2670   -6.0450  -33.2800 C.ar  148  HIS148      0.1154
     82  CE1      -47.3490   -5.8310  -32.6190 C.ar  148  HIS148      0.1986
     83  NE2      -46.1340   -5.3240  -32.5040 N.ar  148  HIS148     -0.2212
     84  N        -49.3320   -8.9100  -39.3630 N.3   152  GLU152     -0.1245
     85  CA       -49.2910   -7.6210  -38.6490 C.3   152  GLU152      0.1567
     86  C        -48.0540   -6.8120  -39.0190 C.2   152  GLU152      0.2260
     87  O        -48.1130   -5.5880  -39.1470 O.2   152  GLU152     -0.2867
     88  CB       -49.3010   -7.8240  -37.1320 C.3   152  GLU152      0.0388
     89  CG       -50.5550   -8.4840  -36.5990 C.3   152  GLU152      0.1160
     90  CD       -50.4540   -8.7920  -35.1210 C.2   152  GLU152      0.3649
     91  OE1      -49.3390   -8.6640  -34.5750 O.co2 152  GLU152     -0.2457
     92  OE2      -51.4780   -9.1630  -34.5060 O.co2 152  GLU152     -0.2457
@<TRIPOS>BOND
     1    84    85    1
     2    87    86    2
     3    86    85    1
     4    85    88    1
     5    57    56    1
     6    57    58    1
     7    88    89    1
     8    43    44   ar
     9    43    41   ar
    10    89    90    1
    11    56    53    1
    12    44    42   ar
    13    30    28    1
    14    58    52    1
    15    28    27    1
    16    41    38   ar
    17    77    76    2
    18    76    75    1
    19    25    26    2
    20    25    24    1
    21    42    40   ar
    22    90    91   ar
    23    90    92   ar
    24    53    52    1
    25    53    54    1
    26    52    47   am
    27    78    75    1
    28    78    79    1
    29    38    40   ar
    30    38    36   ar
    31    34    33    2
    32    27    29    1
    33    27    24    1
    34    40    39   ar
    35    75    74    1
    36    24    23    1
    37    79    80   ar
    38    79    81   ar
    39    54    55    2
    40    54    59   am
    41    47    46    1
    42    47    48    2
    43    46    49    1
    44    46    45    1
    45    36    35    1
    46    36    37   ar
    47    33    45   am
    48    33    32    1
    49    80    82   ar
    50    35    32    1
    51    59    60    1
    52    81    83   ar
    53    49    50    1
    54    49    51    1
    55    65    64   ar
    56    74    69   am
    57    19    18    2
    58    39    37   ar
    59    23    18   am
    60    32    31    1
    61    61    62    2
    62    61    60    1
    63    82    83   ar
    64    18    17    1
    65    21    20    1
    66    60    63    1
    67    69    70    2
    68    69    68    1
    69    64    63    1
    70    64    66   ar
    71    67    68    1
    72    20    17    1
    73    20    22    1
    74    17    16    1
    75    68    71    1
    76    72    71    1
    77    16    10   am
    78    71    73    1
    79     2     3    1
    80     2     1    1
    81     2     5    1
    82     4     3    2
    83     3     8   am
    84    10    11    2
    85    10     9    1
    86     1     7    1
    87     5     6    1
    88     8     9    1
    89     9    12    1
    90     7     6    1
    91    12    13    1
    92    14    13   ar
    93    13    15   ar
