@<TRIPOS>MOLECULE
tmp/5afkA02.pdb
 105 101 0 0 0
SMALL
GASTEIGER

@<TRIPOS>ATOM
      1  N        -57.4150   -0.7960  -32.1210 N.3     4  GLN4       -0.1245
      2  CA       -56.3210   -1.0090  -31.1750 C.3     4  GLN4        0.1566
      3  C        -56.0640    0.2350  -30.3270 C.2     4  GLN4        0.2260
      4  O        -55.7200    0.1290  -29.1530 O.2     4  GLN4       -0.2867
      5  CB       -55.0480   -1.4490  -31.8910 C.3     4  GLN4        0.0367
      6  CG       -54.9310   -2.9510  -32.0310 C.3     4  GLN4        0.0905
      7  CD       -54.0280   -3.3590  -33.1760 C.2     4  GLN4        0.2608
      8  OE1      -53.9580   -2.6690  -34.1990 O.2     4  GLN4       -0.2717
      9  NE2      -53.3290   -4.4880  -33.0140 N.am    4  GLN4       -0.0878
     10  N        -59.0170    0.1720  -27.7780 N.3     7  LEU7       -0.1231
     11  CA       -58.7990   -0.8650  -26.7790 C.3     7  LEU7        0.1693
     12  C        -57.7800   -0.4190  -25.7440 C.2     7  LEU7        0.2592
     13  O        -57.9550   -0.6540  -24.5510 O.2     7  LEU7       -0.2718
     14  CB       -58.3370   -2.1560  -27.4530 C.3     7  LEU7        0.0284
     15  CG       -58.0270   -3.3210  -26.5060 C.3     7  LEU7        0.0019
     16  CD1      -59.2230   -3.6170  -25.6130 C.3     7  LEU7        0.0001
     17  CD2      -57.6100   -4.5740  -27.2720 C.3     7  LEU7        0.0001
     18  N        -56.7230    0.2410  -26.2050 N.am    8  TYR8       -0.1976
     19  CA       -55.6820    0.7250  -25.3070 C.3     8  TYR8        0.1639
     20  C        -56.2540    1.7030  -24.2880 C.2     8  TYR8        0.2290
     21  O        -56.0020    1.5800  -23.0900 O.2     8  TYR8       -0.2864
     22  CB       -54.5590    1.3770  -26.1020 C.3     8  TYR8        0.0560
     23  CG       -53.4940    2.0690  -25.2700 C.ar    8  TYR8       -0.0198
     24  CD1      -53.6850    3.3670  -24.7780 C.ar    8  TYR8       -0.0009
     25  CD2      -52.2810    1.4390  -25.0020 C.ar    8  TYR8       -0.0009
     26  CE1      -52.7050    4.0000  -24.0290 C.ar    8  TYR8        0.0417
     27  CE2      -51.2920    2.0690  -24.2540 C.ar    8  TYR8        0.0417
     28  CZ       -51.5120    3.3470  -23.7720 C.ar    8  TYR8        0.1957
     29  OH       -50.5320    3.9660  -23.0300 O.3     8  TYR8       -0.2866
     30  N        -58.3670   -0.3460  -21.6900 N.3    11  LEU11      -0.1231
     31  CA       -57.6000   -1.2020  -20.7990 C.3    11  LEU11       0.1693
     32  C        -56.7350   -0.3860  -19.8650 C.2    11  LEU11       0.2591
     33  O        -56.4070   -0.8360  -18.7730 O.2    11  LEU11      -0.2718
     34  CB       -56.6980   -2.1510  -21.5870 C.3    11  LEU11       0.0284
     35  CG       -57.3360   -3.2630  -22.4190 C.3    11  LEU11       0.0019
     36  CD1      -56.3030   -3.8350  -23.3730 C.3    11  LEU11       0.0001
     37  CD2      -57.9200   -4.3620  -21.5330 C.3    11  LEU11       0.0001
     38  N        -56.3500    0.8080  -20.2910 N.am   12  VAL12      -0.1980
     39  CA       -55.4320    1.6070  -19.4890 C.3    12  VAL12       0.1595
     40  C        -56.1250    2.2920  -18.3150 C.2    12  VAL12       0.2287
     41  O        -55.5390    2.4320  -17.2440 O.2    12  VAL12      -0.2864
     42  CB       -54.6380    2.6190  -20.3510 C.3    12  VAL12       0.0276
     43  CG1      -54.6040    3.9960  -19.7070 C.3    12  VAL12       0.0022
     44  CG2      -53.2330    2.1000  -20.5910 C.3    12  VAL12       0.0022
     45  N        -56.3760    0.5390  -14.6720 N.3    15  TYR15      -0.1241
     46  CA       -55.4260   -0.5660  -14.5670 C.3    15  TYR15       0.1605
     47  C        -54.2790   -0.2560  -13.6180 C.2    15  TYR15       0.2264
     48  O        -53.5770    0.7420  -13.7710 O.2    15  TYR15      -0.2867
     49  CB       -54.8640   -1.0290  -15.9190 C.3    15  TYR15       0.0534
     50  CG       -54.0390   -2.3050  -15.7750 C.ar   15  TYR15      -0.0201
     51  CD1      -54.6540   -3.5580  -15.7690 C.ar   15  TYR15      -0.0009
     52  CD2      -52.6590   -2.2540  -15.5970 C.ar   15  TYR15      -0.0009
     53  CE1      -53.9120   -4.7340  -15.6160 C.ar   15  TYR15       0.0417
     54  CE2      -51.9080   -3.4140  -15.4400 C.ar   15  TYR15       0.0417
     55  CZ       -52.5410   -4.6540  -15.4560 C.ar   15  TYR15       0.1957
     56  OH       -51.8000   -5.8100  -15.3060 O.3    15  TYR15      -0.2866
     57  N        -57.4570   -7.5090  -18.0730 N.3    64  LEU64      -0.1245
     58  CA       -56.9180   -7.2570  -19.3970 C.3    64  LEU64       0.1561
     59  C        -57.7100   -7.9450  -20.4950 C.2    64  LEU64       0.2260
     60  O        -57.1700   -8.2090  -21.5640 O.2    64  LEU64      -0.2867
     61  CB       -55.4590   -7.7060  -19.4700 C.3    64  LEU64       0.0270
     62  CG       -54.4800   -6.8990  -18.6180 C.3    64  LEU64       0.0019
     63  CD1      -53.0960   -7.4770  -18.7320 C.3    64  LEU64       0.0001
     64  CD2      -54.4770   -5.4590  -19.0870 C.3    64  LEU64       0.0001
     65  N        -52.7360   -8.2250  -28.5380 N.3    77  VAL77      -0.1231
     66  CA       -51.9370   -7.0000  -28.5650 C.3    77  VAL77       0.1692
     67  C        -50.5800   -7.1530  -27.8740 C.2    77  VAL77       0.2593
     68  O        -50.4330   -7.9600  -26.9540 O.2    77  VAL77      -0.2718
     69  CB       -52.6810   -5.8410  -27.8910 C.3    77  VAL77       0.0266
     70  CG1      -53.8520   -5.4030  -28.7520 C.3    77  VAL77       0.0020
     71  CG2      -53.1380   -6.2480  -26.4710 C.3    77  VAL77       0.0020
     72  N        -49.5940   -6.3720  -28.3160 N.am   78  SER78      -0.1938
     73  CA       -48.2570   -6.3890  -27.7240 C.3    78  SER78       0.2055
     74  C        -48.1410   -5.2020  -26.7990 C.2    78  SER78       0.2643
     75  O        -48.3580   -4.0710  -27.2120 O.2    78  SER78      -0.2714
     76  CB       -47.1630   -6.2560  -28.7790 C.3    78  SER78       0.2130
     77  OG       -47.3500   -7.1590  -29.8390 O.3    78  SER78      -0.2179
     78  N        -47.7490   -5.4760  -25.5620 N.am   79  VAL79      -0.1963
     79  CA       -47.8120   -4.5300  -24.4740 C.3    79  VAL79       0.1712
     80  C        -46.4600   -4.4990  -23.7940 C.2    79  VAL79       0.2458
     81  O        -45.8900   -5.5560  -23.5000 O.2    79  VAL79      -0.2730
     82  CB       -48.8520   -5.0070  -23.4410 C.3    79  VAL79       0.0289
     83  CG1      -48.9120   -4.0700  -22.2390 C.3    79  VAL79       0.0023
     84  CG2      -50.2220   -5.1420  -24.0940 C.3    79  VAL79       0.0023
     85  N        -45.9340   -3.2940  -23.5330 N.am   80  PRO80      -0.2727
     86  CA       -44.6510   -3.2330  -22.8320 C.3    80  PRO80       0.1402
     87  C        -44.8770   -3.7670  -21.4310 C.2    80  PRO80       0.2269
     88  O        -45.9080   -3.4700  -20.8290 O.2    80  PRO80      -0.2865
     89  CB       -44.3170   -1.7370  -22.8150 C.3    80  PRO80       0.0296
     90  CG       -45.6060   -1.0440  -23.0120 C.3    80  PRO80       0.0237
     91  CD       -46.5420   -1.9690  -23.7280 C.3    80  PRO80       0.0939
     92  N        -45.9080   -1.8880  -18.1670 N.3    83  SER83      -0.1202
     93  CA       -47.2790   -1.4290  -17.9660 C.3    83  SER83       0.2020
     94  C        -48.1780   -2.5300  -17.4030 C.2    83  SER83       0.2618
     95  O        -49.3760   -2.3210  -17.1950 O.2    83  SER83      -0.2717
     96  CB       -47.8580   -0.9200  -19.2840 C.3    83  SER83       0.2103
     97  OG       -47.0980    0.1730  -19.7910 O.3    83  SER83      -0.2182
     98  N        -47.6010   -3.7040  -17.1620 N.am   84  LEU84      -0.1979
     99  CA       -48.3770   -4.8570  -16.7020 C.3    84  LEU84       0.1596
    100  C        -47.9540   -5.3270  -15.3190 C.2    84  LEU84       0.2287
    101  O        -46.7780   -5.2060  -14.9350 O.2    84  LEU84      -0.2864
    102  CB       -48.1770   -6.0250  -17.6670 C.3    84  LEU84       0.0297
    103  CG       -48.8310   -5.9180  -19.0290 C.3    84  LEU84       0.0022
    104  CD1      -48.7420   -7.2420  -19.7210 C.3    84  LEU84       0.0001
    105  CD2      -50.2540   -5.5320  -18.8120 C.3    84  LEU84       0.0001
@<TRIPOS>BOND
     1     8     7    2
     2     7     9   am
     3     7     6    1
     4     1     2    1
     5     6     5    1
     6     5     2    1
     7     2     3    1
     8     3     4    2
     9    77    76    1
    10    76    73    1
    11    70    69    1
    12    66    65    1
    13    66    69    1
    14    66    67    1
    15    72    67   am
    16    72    73    1
    17    69    71    1
    18    67    68    2
    19    10    11    1
    20    73    74    1
    21    14    11    1
    22    14    15    1
    23    17    15    1
    24    75    74    2
    25    74    78   am
    26    11    12    1
    27    15    16    1
    28    18    12   am
    29    18    19    1
    30    22    19    1
    31    22    23    1
    32    12    13    2
    33    78    79    1
    34    19    20    1
    35    23    25   ar
    36    23    24   ar
    37    25    27   ar
    38    24    26   ar
    39    79    80    1
    40    79    82    1
    41    20    21    2
    42    27    28   ar
    43    84    82    1
    44    26    28   ar
    45    80    85   am
    46    80    81    2
    47    28    29    1
    48    91    85    1
    49    91    90    1
    50    85    86    1
    51    82    83    1
    52    36    35    1
    53    90    89    1
    54    86    89    1
    55    86    87    1
    56    35    34    1
    57    35    37    1
    58    30    31    1
    59    34    31    1
    60    60    59    2
    61    87    88    2
    62    31    32    1
    63    44    42    1
    64    59    58    1
    65    42    43    1
    66    42    39    1
    67    38    32   am
    68    38    39    1
    69    32    33    2
    70    97    96    1
    71   104   103    1
    72    39    40    1
    73    61    58    1
    74    61    62    1
    75    58    57    1
    76    96    93    1
    77    64    62    1
    78   103   105    1
    79   103   102    1
    80    63    62    1
    81    40    41    2
    82    92    93    1
    83    93    94    1
    84   102    99    1
    85    94    95    2
    86    94    98   am
    87    98    99    1
    88    99   100    1
    89    49    50    1
    90    49    46    1
    91    50    51   ar
    92    50    52   ar
    93    51    53   ar
    94    53    55   ar
    95    52    54   ar
    96    55    54   ar
    97    55    56    1
    98   100   101    2
    99    45    46    1
   100    46    47    1
   101    48    47    2
