@<TRIPOS>MOLECULE
tmp/5aflB02.pdb
 82 79 0 0 0
SMALL
GASTEIGER

@<TRIPOS>ATOM
      1  N         11.9530   -0.1800    2.6010 N.3     8  TYR8       -0.1241
      2  CA        10.7410    0.4610    3.1040 C.3     8  TYR8        0.1605
      3  C         11.0110    1.9330    3.3640 C.2     8  TYR8        0.2264
      4  O         10.1680    2.7890    3.0960 O.2     8  TYR8       -0.2867
      5  CB        10.2680   -0.1870    4.4030 C.3     8  TYR8        0.0534
      6  CG         9.3790   -1.4050    4.2470 C.ar    8  TYR8       -0.0201
      7  CD1        9.9130   -2.6450    3.9090 C.ar    8  TYR8       -0.0009
      8  CD2        8.0090   -1.3220    4.4600 C.ar    8  TYR8       -0.0009
      9  CE1        9.1080   -3.7680    3.7790 C.ar    8  TYR8        0.0417
     10  CE2        7.1930   -2.4400    4.3330 C.ar    8  TYR8        0.0417
     11  CZ         7.7490   -3.6600    3.9940 C.ar    8  TYR8        0.1957
     12  OH         6.9500   -4.7790    3.8720 O.3     8  TYR8       -0.2866
     13  N         11.1700    3.8670    0.0590 N.3    11  LEU11      -0.1231
     14  CA         9.8770    3.8650   -0.6150 C.3    11  LEU11       0.1693
     15  C          8.9170    4.8830   -0.0090 C.2    11  LEU11       0.2591
     16  O          8.0900    5.4490   -0.7120 O.2    11  LEU11      -0.2718
     17  CB         9.2450    2.4650   -0.5950 C.3    11  LEU11       0.0284
     18  CG         9.7360    1.4550   -1.6400 C.3    11  LEU11       0.0019
     19  CD1        8.9980    0.1270   -1.5260 C.3    11  LEU11       0.0001
     20  CD2        9.6020    2.0140   -3.0500 C.3    11  LEU11       0.0001
     21  N          9.0210    5.1060    1.2960 N.am   12  VAL12      -0.1980
     22  CA         8.1150    6.0140    1.9930 C.3    12  VAL12       0.1595
     23  C          8.5620    7.4480    1.7540 C.2    12  VAL12       0.2287
     24  O          7.7890    8.3890    1.9270 O.2    12  VAL12      -0.2864
     25  CB         8.0740    5.7170    3.5110 C.3    12  VAL12       0.0276
     26  CG1        9.2780    6.3040    4.2090 C.3    12  VAL12       0.0022
     27  CG2        6.8060    6.2710    4.1220 C.3    12  VAL12       0.0022
     28  N          6.6130   10.0570   -0.5910 N.3    15  TYR15      -0.1241
     29  CA         5.4600    9.3810   -1.1550 C.3    15  TYR15       0.1605
     30  C          4.1940    9.8830   -0.4750 C.2    15  TYR15       0.2264
     31  O          4.1630   10.0510    0.7410 O.2    15  TYR15      -0.2867
     32  CB         5.6050    7.8680   -0.9840 C.3    15  TYR15       0.0534
     33  CG         4.4770    7.0610   -1.5880 C.ar   15  TYR15      -0.0201
     34  CD1        3.3390    6.7600   -0.8480 C.ar   15  TYR15      -0.0009
     35  CD2        4.5550    6.5890   -2.8950 C.ar   15  TYR15      -0.0009
     36  CE1        2.3100    6.0210   -1.3920 C.ar   15  TYR15       0.0417
     37  CE2        3.5290    5.8450   -3.4450 C.ar   15  TYR15       0.0417
     38  CZ         2.4120    5.5640   -2.6960 C.ar   15  TYR15       0.1957
     39  OH         1.3870    4.8160   -3.2400 O.3    15  TYR15      -0.2866
     40  N          0.2030    8.8910   -0.1360 N.3    17  PRO17      -0.2116
     41  CA        -0.8330    7.8790   -0.3570 C.3    17  PRO17       0.1372
     42  C         -2.2140    8.4730   -0.6680 C.2    17  PRO17       0.2244
     43  O         -3.1250    7.7260   -1.0280 O.2    17  PRO17      -0.2868
     44  CB        -0.8500    7.1090    0.9760 C.3    17  PRO17       0.0268
     45  CG        -0.3770    8.0780    1.9650 C.3    17  PRO17       0.0207
     46  CD         0.6550    8.9230    1.2640 C.3    17  PRO17       0.0892
     47  N          6.5520    3.1220   -6.5940 N.3    64  LEU64      -0.1245
     48  CA         6.8910    2.0390   -5.6850 C.3    64  LEU64       0.1561
     49  C          7.7530    0.9900   -6.3580 C.2    64  LEU64       0.2260
     50  O          7.6520   -0.1890   -6.0390 O.2    64  LEU64      -0.2867
     51  CB         5.6230    1.3670   -5.1500 C.3    64  LEU64       0.0270
     52  CG         4.6330    2.2070   -4.3540 C.3    64  LEU64       0.0019
     53  CD1        3.4210    1.3720   -4.0050 C.3    64  LEU64       0.0001
     54  CD2        5.3090    2.7400   -3.1040 C.3    64  LEU64       0.0001
     55  N          2.8210   -4.5400    2.5870 N.3    79  VAL79      -0.1231
     56  CA         2.6720   -3.1460    2.9960 C.3    79  VAL79       0.1678
     57  C          1.2370   -2.8390    3.4470 C.2    79  VAL79       0.2434
     58  O          0.2810   -3.1870    2.7500 O.2    79  VAL79      -0.2733
     59  CB         3.0250   -2.2070    1.8130 C.3    79  VAL79       0.0265
     60  CG1        2.8550   -0.7660    2.2140 C.3    79  VAL79       0.0020
     61  CG2        4.4460   -2.4470    1.3630 C.3    79  VAL79       0.0020
     62  N          1.0820   -2.1890    4.6180 N.am   80  PRO80      -0.2729
     63  CA        -0.2470   -1.7580    5.0680 C.3    80  PRO80       0.1401
     64  C         -0.8010   -0.7060    4.1240 C.2    80  PRO80       0.2269
     65  O         -0.0470    0.1950    3.7370 O.2    80  PRO80      -0.2865
     66  CB         0.0300   -1.1110    6.4420 C.3    80  PRO80       0.0296
     67  CG         1.4660   -0.8090    6.4450 C.3    80  PRO80       0.0237
     68  CD         2.1290   -1.8540    5.5980 C.3    80  PRO80       0.0939
     69  N         -0.4640    3.1340    4.1880 N.3    83  SER83      -0.1202
     70  CA         0.7700    3.7530    3.7270 C.3    83  SER83       0.2020
     71  C          0.9010    3.8730    2.1880 C.2    83  SER83       0.2618
     72  O          1.8380    4.4900    1.6850 O.2    83  SER83      -0.2717
     73  CB         1.9920    3.0590    4.3340 C.3    83  SER83       0.2103
     74  OG         2.3930    1.9770    3.5280 O.3    83  SER83      -0.2182
     75  N         -0.0150    3.3050    1.4210 N.am   84  LEU84      -0.1979
     76  CA         0.0700    3.5740   -0.0140 C.3    84  LEU84       0.1596
     77  C         -1.2630    3.9950   -0.6040 C.2    84  LEU84       0.2287
     78  O         -2.3040    3.7960    0.0240 O.2    84  LEU84      -0.2864
     79  CB         0.7200    2.4160   -0.7890 C.3    84  LEU84       0.0297
     80  CG         0.3270    0.9530   -0.5880 C.3    84  LEU84       0.0022
     81  CD1       -1.1510    0.8140   -0.4250 C.3    84  LEU84       0.0001
     82  CD2        0.7760    0.1160   -1.7880 C.3    84  LEU84       0.0001
@<TRIPOS>BOND
     1    47    48    1
     2    49    50    2
     3    49    48    1
     4    48    51    1
     5    51    52    1
     6    52    53    1
     7    52    54    1
     8    37    35   ar
     9    37    38   ar
    10    39    38    1
    11    20    18    1
    12    35    33   ar
    13    38    36   ar
    14    82    80    1
    15    18    19    1
    16    18    17    1
    17    33    32    1
    18    33    34   ar
    19    36    34   ar
    20    29    32    1
    21    29    28    1
    22    29    30    1
    23    43    42    2
    24    79    80    1
    25    79    76    1
    26    16    15    2
    27    42    41    1
    28    14    17    1
    29    14    15    1
    30    14    13    1
    31    77    76    1
    32    77    78    2
    33    80    81    1
    34    30    31    2
    35    41    40    1
    36    41    44    1
    37    40    46    1
    38    76    75    1
    39    15    21   am
    40    44    45    1
    41    46    45    1
    42    21    22    1
    43    61    59    1
    44    75    71   am
    45    72    71    2
    46    23    24    2
    47    23    22    1
    48    59    60    1
    49    59    56    1
    50    22    25    1
    51    71    70    1
    52    55    56    1
    53     1     2    1
    54    58    57    2
    55    56    57    1
    56     4     3    2
    57     2     3    1
    58     2     5    1
    59    57    62   am
    60    25    27    1
    61    25    26    1
    62    74    73    1
    63    70    69    1
    64    70    73    1
    65    65    64    2
    66     9     7   ar
    67     9    11   ar
    68    12    11    1
    69     7     6   ar
    70    11    10   ar
    71    64    63    1
    72     6     5    1
    73     6     8   ar
    74    10     8   ar
    75    62    63    1
    76    62    68    1
    77    63    66    1
    78    68    67    1
    79    66    67    1
