@<TRIPOS>MOLECULE
tmp/5aflE03.pdb
 105 101 0 0 0
SMALL
GASTEIGER

@<TRIPOS>ATOM
      1  N         -0.4760   23.5380   38.1160 N.3     4  GLN4       -0.1245
      2  CA        -0.8510   22.2890   37.4430 C.3     4  GLN4        0.1566
      3  C         -0.2610   22.2190   36.0250 C.2     4  GLN4        0.2260
      4  O          0.2120   21.1670   35.6060 O.2     4  GLN4       -0.2867
      5  CB        -2.3730   22.0770   37.4320 C.3     4  GLN4        0.0367
      6  CG        -2.9580   21.5740   38.7550 C.3     4  GLN4        0.0905
      7  CD        -4.1490   20.6420   38.5480 C.2     4  GLN4        0.2608
      8  OE1       -4.5170   20.3430   37.4100 O.2     4  GLN4       -0.2717
      9  NE2       -4.7490   20.1670   39.6480 N.am    4  GLN4       -0.0878
     10  N          3.3760   21.3910   36.3910 N.3     7  LEU7       -0.1231
     11  CA         3.5940   20.0320   36.8740 C.3     7  LEU7        0.1693
     12  C          3.5120   18.9950   35.7360 C.2     7  LEU7        0.2592
     13  O          4.3680   18.1200   35.6430 O.2     7  LEU7       -0.2718
     14  CB         2.6370   19.6620   38.0270 C.3     7  LEU7        0.0284
     15  CG         2.7660   18.2180   38.5580 C.3     7  LEU7        0.0019
     16  CD1        4.1510   17.9870   39.1720 C.3     7  LEU7        0.0001
     17  CD2        1.6810   17.8770   39.5720 C.3     7  LEU7        0.0001
     18  N          2.4790   19.0840   34.8990 N.am    8  TYR8       -0.1976
     19  CA         2.3760   18.2400   33.6950 C.3     8  TYR8        0.1639
     20  C          3.6740   18.2680   32.8820 C.2     8  TYR8        0.2290
     21  O          4.2110   17.2230   32.5090 O.2     8  TYR8       -0.2864
     22  CB         1.1960   18.6720   32.8060 C.3     8  TYR8        0.0560
     23  CG         1.2050   18.0670   31.4030 C.ar    8  TYR8       -0.0198
     24  CD1        1.8930   18.6830   30.3480 C.ar    8  TYR8       -0.0009
     25  CD2        0.5110   16.8910   31.1260 C.ar    8  TYR8       -0.0009
     26  CE1        1.8980   18.1320   29.0750 C.ar    8  TYR8        0.0417
     27  CE2        0.5150   16.3360   29.8560 C.ar    8  TYR8        0.0417
     28  CZ         1.2060   16.9610   28.8350 C.ar    8  TYR8        0.1957
     29  OH         1.2050   16.4020   27.5710 O.3     8  TYR8       -0.2866
     30  N          6.2290   16.1590   34.7070 N.3    11  LEU11      -0.1231
     31  CA         5.8720   14.7560   34.8580 C.3    11  LEU11       0.1693
     32  C          5.9350   13.9840   33.5460 C.2    11  LEU11       0.2591
     33  O          6.1890   12.7730   33.5430 O.2    11  LEU11      -0.2718
     34  CB         4.4730   14.6300   35.4630 C.3    11  LEU11       0.0284
     35  CG         4.3220   14.9370   36.9580 C.3    11  LEU11       0.0019
     36  CD1        2.9470   14.4970   37.4610 C.3    11  LEU11       0.0001
     37  CD2        5.4390   14.2930   37.7700 C.3    11  LEU11       0.0001
     38  N          5.7070   14.6830   32.4340 N.am   12  VAL12      -0.1980
     39  CA         5.6670   14.0310   31.1270 C.3    12  VAL12       0.1595
     40  C          7.0700   13.7580   30.5890 C.2    12  VAL12       0.2287
     41  O          7.2600   12.8610   29.7680 O.2    12  VAL12      -0.2864
     42  CB         4.8320   14.8270   30.1040 C.3    12  VAL12       0.0276
     43  CG1        5.5690   16.0880   29.6750 C.3    12  VAL12       0.0022
     44  CG2        4.5290   13.9690   28.8990 C.3    12  VAL12       0.0022
     45  N          8.4860   10.1980   30.4630 N.3    15  TYR15      -0.1241
     46  CA         7.5200    9.2210   30.9120 C.3    15  TYR15       0.1605
     47  C          7.1370    8.2760   29.7740 C.2    15  TYR15       0.2264
     48  O          6.7800    8.7200   28.6920 O.2    15  TYR15      -0.2867
     49  CB         6.2890    9.8800   31.5210 C.3    15  TYR15       0.0534
     50  CG         5.4040    8.8850   32.2410 C.ar   15  TYR15      -0.0201
     51  CD1        5.5990    8.6010   33.5840 C.ar   15  TYR15      -0.0009
     52  CD2        4.3810    8.2160   31.5670 C.ar   15  TYR15      -0.0009
     53  CE1        4.7890    7.6900   34.2510 C.ar   15  TYR15       0.0417
     54  CE2        3.5690    7.3090   32.2150 C.ar   15  TYR15       0.0417
     55  CZ         3.7730    7.0510   33.5580 C.ar   15  TYR15       0.1957
     56  OH         2.9590    6.1420   34.1980 O.3    15  TYR15      -0.2866
     57  N          5.5710    9.5150   39.1240 N.3    64  LEU64      -0.1245
     58  CA         4.4710   10.4740   39.1240 C.3    64  LEU64       0.1561
     59  C          4.3800   11.2270   40.4530 C.2    64  LEU64       0.2260
     60  O          3.3150   11.7080   40.8330 O.2    64  LEU64      -0.2867
     61  CB         3.1440    9.7680   38.8250 C.3    64  LEU64       0.0270
     62  CG         2.9470    9.1630   37.4190 C.3    64  LEU64       0.0019
     63  CD1        1.5090    8.7280   37.2250 C.3    64  LEU64       0.0001
     64  CD2        3.3290   10.1530   36.3400 C.3    64  LEU64       0.0001
     65  N         -4.1110   15.4050   40.7490 N.3    77  VAL77      -0.1231
     66  CA        -4.4620   15.8260   39.4020 C.3    77  VAL77       0.1692
     67  C         -5.2270   14.7320   38.6520 C.2    77  VAL77       0.2593
     68  O         -5.1060   13.5360   38.9580 O.2    77  VAL77      -0.2718
     69  CB        -3.2260   16.2590   38.5990 C.3    77  VAL77       0.0266
     70  CG1       -2.5110   17.4270   39.3050 C.3    77  VAL77       0.0020
     71  CG2       -2.2920   15.0920   38.4190 C.3    77  VAL77       0.0020
     72  N         -6.0420   15.1620   37.6930 N.am   78  SER78      -0.1938
     73  CA        -6.8190   14.2580   36.8550 C.3    78  SER78       0.2055
     74  C         -6.0980   14.0050   35.5520 C.2    78  SER78       0.2643
     75  O         -5.8900   14.9300   34.7700 O.2    78  SER78      -0.2714
     76  CB        -8.1910   14.8450   36.5450 C.3    78  SER78       0.2130
     77  OG        -9.0380   14.7220   37.6630 O.3    78  SER78      -0.2179
     78  N         -5.7450   12.7450   35.3090 N.am   79  VAL79      -0.1963
     79  CA        -4.9530   12.3810   34.1370 C.3    79  VAL79       0.1712
     80  C         -5.6680   11.3340   33.2840 C.2    79  VAL79       0.2458
     81  O         -6.1280   10.2990   33.8200 O.2    79  VAL79      -0.2730
     82  CB        -3.5750   11.8190   34.5650 C.3    79  VAL79       0.0289
     83  CG1       -2.6820   11.5890   33.3470 C.3    79  VAL79       0.0023
     84  CG2       -2.9090   12.7710   35.5380 C.3    79  VAL79       0.0023
     85  N         -5.7630   11.5890   31.9610 N.am   80  PRO80      -0.2727
     86  CA        -6.3210   10.5790   31.0470 C.3    80  PRO80       0.1402
     87  C         -5.5240    9.2880   31.1940 C.2    80  PRO80       0.2269
     88  O         -4.2930    9.3660   31.2310 O.2    80  PRO80      -0.2865
     89  CB        -6.0710   11.1770   29.6410 C.3    80  PRO80       0.0296
     90  CG        -5.8780   12.6410   29.8620 C.3    80  PRO80       0.0237
     91  CD        -5.2370   12.7630   31.2350 C.3    80  PRO80       0.0939
     92  N         -2.4360    8.3140   29.0190 N.3    83  SER83      -0.1202
     93  CA        -1.1480    8.9630   29.2170 C.3    83  SER83       0.2020
     94  C         -0.2770    8.2700   30.2510 C.2    83  SER83       0.2618
     95  O          0.8830    8.6380   30.4330 O.2    83  SER83      -0.2717
     96  CB        -1.3620   10.4120   29.6580 C.3    83  SER83       0.2103
     97  OG        -2.1980   11.0810   28.7380 O.3    83  SER83      -0.2182
     98  N         -0.8300    7.2960   30.9600 N.am   84  LEU84      -0.1979
     99  CA        -0.0630    6.6740   32.0470 C.3    84  LEU84       0.1596
    100  C         -0.0220    5.1490   31.9660 C.2    84  LEU84       0.2287
    101  O         -0.7910    4.5530   31.2320 O.2    84  LEU84      -0.2864
    102  CB        -0.4920    7.1960   33.4330 C.3    84  LEU84       0.0297
    103  CG        -1.8840    7.1340   34.0690 C.3    84  LEU84       0.0022
    104  CD1       -1.8670    7.6690   35.4940 C.3    84  LEU84       0.0001
    105  CD2       -2.8160    7.9640   33.3280 C.3    84  LEU84       0.0001
@<TRIPOS>BOND
     1    29    28    1
     2    48    47    2
     3    97    96    1
     4    28    26   ar
     5    28    27   ar
     6    44    42    1
     7    92    93    1
     8    26    24   ar
     9    93    96    1
    10    93    94    1
    11    89    90    1
    12    89    86    1
    13    43    42    1
    14    41    40    2
    15    47    46    1
    16    27    25   ar
    17    90    91    1
    18    42    39    1
    19    94    95    2
    20    94    98   am
    21    24    23   ar
    22    45    46    1
    23    40    39    1
    24    46    49    1
    25    98    99    1
    26    86    87    1
    27    86    85    1
    28    25    23   ar
    29    39    38    1
    30    87    88    2
    31   101   100    2
    32    91    85    1
    33    23    22    1
    34    49    50    1
    35    52    54   ar
    36    52    50   ar
    37    85    80   am
    38   100    99    1
    39    99   102    1
    40    54    55   ar
    41    50    51   ar
    42    38    32   am
    43    21    20    2
    44    22    19    1
    45    20    19    1
    46    80    81    2
    47    80    79    1
    48   105   103    1
    49    83    82    1
    50   102   103    1
    51    33    32    2
    52    32    31    1
    53    55    56    1
    54    55    53   ar
    55    51    53   ar
    56    19    18    1
    57   103   104    1
    58    79    82    1
    59    79    78    1
    60    82    84    1
    61    30    31    1
    62    75    74    2
    63    31    34    1
    64    18    12   am
    65    78    74   am
    66    34    35    1
    67    74    73    1
    68     4     3    2
    69    13    12    2
    70    12    11    1
    71     3     2    1
    72    64    62    1
    73    10    11    1
    74    76    73    1
    75    76    77    1
    76    73    72    1
    77    11    14    1
    78    35    36    1
    79    35    37    1
    80    63    62    1
    81     8     7    2
    82    62    61    1
    83     5     2    1
    84     5     6    1
    85     2     1    1
    86    72    67   am
    87    14    15    1
    88    71    69    1
    89     7     6    1
    90     7     9   am
    91    15    16    1
    92    15    17    1
    93    69    70    1
    94    69    66    1
    95    67    68    2
    96    67    66    1
    97    61    58    1
    98    57    58    1
    99    58    59    1
   100    66    65    1
   101    59    60    2
