@<TRIPOS>MOLECULE
tmp/5afnB03.pdb
 145 138 0 0 0
SMALL
GASTEIGER

@<TRIPOS>ATOM
      1  N         25.2680  -11.4500    0.0780 N.3    53  PHE53      -0.1241
      2  CA        25.8960  -11.6020   -1.2130 C.3    53  PHE53       0.1605
      3  C         27.3660  -11.2660   -1.1290 C.2    53  PHE53       0.2264
      4  O         27.8060  -10.5860   -0.2010 O.2    53  PHE53      -0.2867
      5  CB        25.2000  -10.7250   -2.2600 C.3    53  PHE53       0.0534
      6  CG        25.0780   -9.2780   -1.8560 C.ar   53  PHE53      -0.0203
      7  CD1       24.0280   -8.8540   -1.0630 C.ar   53  PHE53      -0.0042
      8  CD2       26.0180   -8.3470   -2.2650 C.ar   53  PHE53      -0.0042
      9  CE1       23.9190   -7.5310   -0.6970 C.ar   53  PHE53      -0.0003
     10  CE2       25.9080   -7.0130   -1.9040 C.ar   53  PHE53      -0.0003
     11  CZ        24.8600   -6.6030   -1.1250 C.ar   53  PHE53      -0.0000
     12  N         30.4540   -9.4550   -3.0880 N.3    55  LEU55      -0.1245
     13  CA        30.7960   -8.5160   -4.1590 C.3    55  LEU55       0.1561
     14  C         32.2460   -8.6830   -4.5580 C.2    55  LEU55       0.2260
     15  O         33.1150   -8.8020   -3.7030 O.2    55  LEU55      -0.2867
     16  CB        30.5620   -7.0650   -3.7250 C.3    55  LEU55       0.0270
     17  CG        29.1300   -6.5490   -3.5890 C.3    55  LEU55       0.0019
     18  CD1       29.1730   -5.0450   -3.3450 C.3    55  LEU55       0.0001
     19  CD2       28.2620   -6.8880   -4.8210 C.3    55  LEU55       0.0001
     20  N         34.9750   -6.5480   -6.5390 N.3    57  MET57      -0.1245
     21  CA        35.2770   -5.2700   -7.1590 C.3    57  MET57       0.1570
     22  C         36.7580   -5.2040   -7.3940 C.2    57  MET57       0.2261
     23  O         37.5420   -5.5310   -6.5150 O.2    57  MET57      -0.2867
     24  CB        34.8830   -4.1230   -6.2470 C.3    57  MET57       0.0387
     25  CG        33.3840   -3.9130   -6.1060 C.3    57  MET57       0.0595
     26  SD        33.0810   -2.7180   -4.7740 S.3    57  MET57      -0.1393
     27  CE        33.1550   -3.8130   -3.3660 C.3    57  MET57       0.0692
     28  N         40.8880   -0.8780    3.7620 N.3    81  ILE81      -0.1245
     29  CA        40.2570   -0.0550    2.7330 C.3    81  ILE81       0.1561
     30  C         40.3020    1.4450    3.0860 C.2    81  ILE81       0.2260
     31  O         40.3340    2.2990    2.2090 O.2    81  ILE81      -0.2867
     32  CB        38.8240   -0.5230    2.4320 C.3    81  ILE81       0.0252
     33  CG1       37.9040   -0.2670    3.6160 C.3    81  ILE81       0.0019
     34  CG2       38.8080   -2.0130    2.1060 C.3    81  ILE81       0.0019
     35  CD1       36.4600   -0.6740    3.3280 C.3    81  ILE81       0.0001
     36  N         38.5400    3.7890   -2.6150 N.3    86  VAL86      -0.1231
     37  CA        37.6620    2.7000   -3.0480 C.3    86  VAL86       0.1678
     38  C         36.4130    3.3150   -3.6900 C.2    86  VAL86       0.2434
     39  O         35.9640    4.3900   -3.2800 O.2    86  VAL86      -0.2733
     40  CB        37.2420    1.7220   -1.8900 C.3    86  VAL86       0.0265
     41  CG1       38.4550    1.2330   -1.0920 C.3    86  VAL86       0.0020
     42  CG2       36.2410    2.3780   -0.9880 C.3    86  VAL86       0.0020
     43  N         35.8470    2.6370   -4.6960 N.am   87  PRO87      -0.2718
     44  CA        34.6850    3.1700   -5.4230 C.3    87  PRO87       0.1535
     45  C         33.5100    3.4050   -4.4820 C.2    87  PRO87       0.2599
     46  O         33.2050    2.5560   -3.6440 O.2    87  PRO87      -0.2715
     47  CB        34.3430    2.0390   -6.4000 C.3    87  PRO87       0.0310
     48  CG        35.6310    1.3040   -6.5850 C.3    87  PRO87       0.0237
     49  CD        36.2130    1.3000   -5.1800 C.3    87  PRO87       0.0939
     50  N         32.8540    4.5480   -4.6130 N.am   88  ASP88      -0.1958
     51  CA        31.7140    4.8480   -3.7540 C.3    88  ASP88       0.1840
     52  C         30.4520    4.1810   -4.2960 C.2    88  ASP88       0.2622
     53  O         29.4560    4.8590   -4.5790 O.2    88  ASP88      -0.2715
     54  CB        31.5100    6.3590   -3.7050 C.3    88  ASP88       0.1450
     55  CG        31.2460    6.9540   -5.0800 C.2    88  ASP88       0.3671
     56  OD1       31.7330    6.3550   -6.0650 O.co2  88  ASP88      -0.2456
     57  OD2       30.5380    7.9920   -5.1840 O.co2  88  ASP88      -0.2456
     58  N         30.4890    2.8640   -4.4670 N.am   89  LEU89      -0.1963
     59  CA        29.3200    2.1700   -5.0080 C.3    89  LEU89       0.1728
     60  C         28.1920    2.1320   -4.0040 C.2    89  LEU89       0.2616
     61  O         28.3970    1.8180   -2.8460 O.2    89  LEU89      -0.2715
     62  CB        29.6520    0.7580   -5.4570 C.3    89  LEU89       0.0311
     63  CG        30.4700    0.6890   -6.7470 C.3    89  LEU89       0.0022
     64  CD1       30.3700   -0.6870   -7.3510 C.3    89  LEU89       0.0001
     65  CD2       30.0310    1.7460   -7.7430 C.3    89  LEU89       0.0001
     66  N         26.9970    2.4560   -4.4700 N.am   90  ALA90      -0.1963
     67  CA        25.8150    2.4590   -3.6380 C.3    90  ALA90       0.1728
     68  C         24.7760    1.4920   -4.1960 C.2    90  ALA90       0.2616
     69  O         24.6740    1.2770   -5.4250 O.2    90  ALA90      -0.2715
     70  CB        25.2240    3.8510   -3.6000 C.3    90  ALA90       0.0334
     71  N         23.9850    0.9400   -3.2850 N.am   91  ALA91      -0.1977
     72  CA        22.8160    0.1550   -3.6380 C.3    91  ALA91       0.1597
     73  C         21.6500    1.1140   -3.7830 C.2    91  ALA91       0.2287
     74  O         21.1240    1.6130   -2.7790 O.2    91  ALA91      -0.2864
     75  CB        22.5220   -0.8550   -2.5570 C.3    91  ALA91       0.0319
     76  N         24.5500   -1.2540    4.3900 N.3    98  PRO98      -0.2116
     77  CA        25.1690   -2.5690    4.1720 C.3    98  PRO98       0.1372
     78  C         25.8790   -3.0250    5.4330 C.2    98  PRO98       0.2244
     79  O         26.4780   -2.2110    6.1220 O.2    98  PRO98      -0.2868
     80  CB        26.1710   -2.3080    3.0390 C.3    98  PRO98       0.0268
     81  CG        26.4640   -0.8360    3.1230 C.3    98  PRO98       0.0207
     82  CD        25.2220   -0.1760    3.6410 C.3    98  PRO98       0.0892
     83  N         28.9130   -5.1580    6.3580 N.3   100  VAL100     -0.1245
     84  CA        30.0580   -5.8470    5.7750 C.3   100  VAL100      0.1561
     85  C         30.4780   -6.9690    6.7170 C.2   100  VAL100      0.2260
     86  O         30.7190   -6.7280    7.9000 O.2   100  VAL100     -0.2867
     87  CB        31.2410   -4.9000    5.5320 C.3   100  VAL100      0.0252
     88  CG1       32.4300   -5.6710    4.9270 C.3   100  VAL100      0.0019
     89  CG2       30.8320   -3.7880    4.6110 C.3   100  VAL100      0.0019
     90  N         37.8440   -5.8320    6.2600 N.3   104  GLN104     -0.1245
     91  CA        37.8030   -4.7130    5.3260 C.3   104  GLN104      0.1566
     92  C         39.1920   -4.3840    4.8110 C.2   104  GLN104      0.2260
     93  O         39.7460   -3.3220    5.1030 O.2   104  GLN104     -0.2867
     94  CB        37.1180   -3.5060    5.9650 C.3   104  GLN104      0.0367
     95  CG        35.6740   -3.8200    6.3300 C.3   104  GLN104      0.0905
     96  CD        34.8100   -2.5840    6.4050 C.2   104  GLN104      0.2608
     97  OE1       34.7050   -1.9540    7.4560 O.2   104  GLN104     -0.2717
     98  NE2       34.1700   -2.2370    5.2920 N.am  104  GLN104     -0.0878
     99  N         38.9300   -5.8760   -3.9940 N.3   116  TYR116     -0.1241
    100  CA        38.1720   -5.7630   -2.7440 C.3   116  TYR116      0.1605
    101  C         36.9660   -6.6760   -2.9030 C.2   116  TYR116      0.2264
    102  O         36.2000   -6.5410   -3.8560 O.2   116  TYR116     -0.2867
    103  CB        37.7520   -4.2990   -2.4850 C.3   116  TYR116      0.0534
    104  CG        36.9500   -4.0900   -1.2160 C.ar  116  TYR116     -0.0201
    105  CD1       37.3360   -4.6910   -0.0260 C.ar  116  TYR116     -0.0009
    106  CD2       35.8220   -3.2710   -1.2020 C.ar  116  TYR116     -0.0009
    107  CE1       36.5980   -4.5220    1.1470 C.ar  116  TYR116      0.0417
    108  CE2       35.0800   -3.0790   -0.0300 C.ar  116  TYR116      0.0417
    109  CZ        35.4760   -3.7160    1.1420 C.ar  116  TYR116      0.1957
    110  OH        34.7650   -3.5450    2.3170 O.3   116  TYR116     -0.2866
    111  N         34.2190   -7.9280   -0.5550 N.3   118  PRO118     -0.2116
    112  CA        33.5210   -8.1020    0.7240 C.3   118  PRO118      0.1372
    113  C         32.2870   -8.9680    0.5720 C.2   118  PRO118      0.2244
    114  O         31.6640   -8.9910   -0.5000 O.2   118  PRO118     -0.2868
    115  CB        33.1180   -6.6610    1.0880 C.3   118  PRO118      0.0268
    116  CG        32.8900   -6.0120   -0.2820 C.3   118  PRO118      0.0207
    117  CD        33.9100   -6.6270   -1.1930 C.3   118  PRO118      0.0892
    118  N         28.4850   -9.2780    2.1640 N.3   120  ILE120     -0.1245
    119  CA        27.6090   -8.2210    2.6510 C.3   120  ILE120      0.1561
    120  C         26.1780   -8.6870    2.8630 C.2   120  ILE120      0.2260
    121  O         25.6150   -9.4000    2.0330 O.2   120  ILE120     -0.2867
    122  CB        27.5880   -7.0080    1.6560 C.3   120  ILE120      0.0252
    123  CG1       28.9250   -6.2580    1.6810 C.3   120  ILE120      0.0019
    124  CG2       26.4380   -6.0330    1.9820 C.3   120  ILE120      0.0019
    125  CD1       29.1830   -5.4500    0.4470 C.3   120  ILE120      0.0001
    126  N         22.3450   -7.0250    3.3440 N.3   122  GLN122     -0.1245
    127  CA        21.6460   -5.7650    3.1660 C.3   122  GLN122      0.1566
    128  C         20.2350   -6.0650    2.7290 C.2   122  GLN122      0.2260
    129  O         19.9780   -7.1020    2.1180 O.2   122  GLN122     -0.2867
    130  CB        22.3370   -4.9360    2.0820 C.3   122  GLN122      0.0367
    131  CG        21.8520   -3.5030    1.9680 C.3   122  GLN122      0.0905
    132  CD        22.8190   -2.6600    1.1570 C.2   122  GLN122      0.2608
    133  OE1       23.5850   -3.1980    0.3650 O.2   122  GLN122     -0.2717
    134  NE2       22.8040   -1.3520    1.3640 N.am  122  GLN122     -0.0878
    135  N         23.2260   -1.2670   -8.5400 N.3   143  PHE143     -0.1241
    136  CA        24.4070   -0.6370   -7.9510 C.3   143  PHE143      0.1605
    137  C         25.0680    0.3430   -8.8840 C.2   143  PHE143      0.2264
    138  O         25.1730    0.0900  -10.0880 O.2   143  PHE143     -0.2867
    139  CB        25.4650   -1.6780   -7.6010 C.3   143  PHE143      0.0534
    140  CG        25.0510   -2.6160   -6.5360 C.ar  143  PHE143     -0.0203
    141  CD1       24.3150   -3.7550   -6.8470 C.ar  143  PHE143     -0.0042
    142  CD2       25.3850   -2.3650   -5.2140 C.ar  143  PHE143     -0.0042
    143  CE1       23.9250   -4.6380   -5.8490 C.ar  143  PHE143     -0.0003
    144  CE2       25.0100   -3.2500   -4.2090 C.ar  143  PHE143     -0.0003
    145  CZ        24.2820   -4.3840   -4.5230 C.ar  143  PHE143     -0.0000
@<TRIPOS>BOND
     1   138   137    2
     2   137   136    1
     3   135   136    1
     4   136   139    1
     5    65    63    1
     6   139   140    1
     7    22    21    1
     8    22    23    2
     9    64    63    1
    10    21    20    1
    11    21    24    1
    12   141   140   ar
    13   141   143   ar
    14    63    62    1
    15    48    47    1
    16    48    49    1
    17   140   142   ar
    18    47    44    1
    19    24    25    1
    20    25    26    1
    21    56    55   ar
    22   143   145   ar
    23    62    59    1
    24    69    68    2
    25    44    43    1
    26    44    45    1
    27   142   144   ar
    28    57    55   ar
    29    49    43    1
    30    55    54    1
    31    59    58    1
    32    59    60    1
    33    19    17    1
    34    26    27    1
    35    43    38   am
    36    50    45   am
    37    50    51    1
    38    53    52    2
    39    14    13    1
    40    14    15    2
    41   145   144   ar
    42    45    46    2
    43    66    60   am
    44    66    67    1
    45    58    52   am
    46    52    51    1
    47    68    67    1
    48    68    71   am
    49    13    16    1
    50    13    12    1
    51    60    61    2
    52    99   100    1
    53   102   101    2
    54    73    72    1
    55    73    74    2
    56    51    54    1
    57    16    17    1
    58    38    39    2
    59    38    37    1
    60    72    71    1
    61    72    75    1
    62    67    70    1
    63    17    18    1
    64    37    36    1
    65    37    40    1
    66   101   100    1
    67   100   103    1
    68   103   104    1
    69     8    10   ar
    70     8     6   ar
    71     5     6    1
    72     5     2    1
    73    10    11   ar
    74    40    41    1
    75    40    42    1
    76     6     7   ar
    77   104   106   ar
    78   104   105   ar
    79     2     3    1
    80     2     1    1
    81   106   108   ar
    82   117   111    1
    83   117   116    1
    84     3     4    2
    85    11     9   ar
    86     7     9   ar
    87   111   112    1
    88   114   113    2
    89   116   115    1
    90   108   109   ar
    91   105   107   ar
    92   133   132    2
    93   125   123    1
    94   113   112    1
    95   112   115    1
    96   109   107   ar
    97   109   110    1
    98   132   134   am
    99   132   131    1
   100   122   123    1
   101   122   124    1
   102   122   119    1
   103   131   130    1
   104   121   120    2
   105   130   127    1
   106    34    32    1
   107   129   128    2
   108   118   119    1
   109    31    30    2
   110    32    29    1
   111    32    33    1
   112   119   120    1
   113   128   127    1
   114    29    30    1
   115    29    28    1
   116    80    81    1
   117    80    77    1
   118    81    82    1
   119   127   126    1
   120    35    33    1
   121    82    76    1
   122    77    76    1
   123    77    78    1
   124    89    87    1
   125    92    93    2
   126    92    91    1
   127    88    87    1
   128    98    96   am
   129    91    94    1
   130    91    90    1
   131    78    79    2
   132    87    84    1
   133    84    83    1
   134    84    85    1
   135    94    95    1
   136    95    96    1
   137    96    97    2
   138    85    86    2
