@<TRIPOS>MOLECULE
tmp/5afqB00.pdb
 115 111 0 0 0
SMALL
GASTEIGER

@<TRIPOS>ATOM
      1  N         82.0580   -7.4760   57.6200 N.3    15  GLU15      -0.1231
      2  CA        81.5100   -6.2810   56.9810 C.3    15  GLU15       0.1699
      3  C         80.8110   -5.3710   57.9750 C.2    15  GLU15       0.2592
      4  O         81.0010   -4.1580   57.9160 O.2    15  GLU15      -0.2718
      5  CB        80.5650   -6.6550   55.8170 C.3    15  GLU15       0.0402
      6  CG        79.8300   -5.4960   55.1350 C.3    15  GLU15       0.1161
      7  CD        80.5950   -4.5560   54.2160 C.2    15  GLU15       0.3649
      8  OE1       81.5890   -4.9900   53.5950 O.co2  15  GLU15      -0.2457
      9  OE2       80.1420   -3.4020   54.0510 O.co2  15  GLU15      -0.2457
     10  N         80.0320   -5.9330   58.8960 N.am   16  HIS16      -0.1962
     11  CA        79.2640   -5.0790   59.7770 C.3    16  HIS16       0.1787
     12  C         79.9820   -4.5460   61.0140 C.2    16  HIS16       0.2620
     13  O         79.7090   -3.4000   61.3880 O.2    16  HIS16      -0.2715
     14  CB        77.9520   -5.7560   60.1800 C.3    16  HIS16       0.0785
     15  CG        76.7610   -5.1770   59.4830 C.ar   16  HIS16       0.0821
     16  ND1       75.7810   -4.4950   60.1800 N.ar   16  HIS16      -0.2267
     17  CD2       76.4610   -5.1420   58.1640 C.ar   16  HIS16       0.1154
     18  CE1       74.9100   -4.0930   59.2710 C.ar   16  HIS16       0.1986
     19  NE2       75.2800   -4.4490   58.0460 N.ar   16  HIS16      -0.2212
     20  N         80.8500   -5.3330   61.6750 N.am   17  PHE17      -0.1974
     21  CA        81.3880   -4.8530   62.9500 C.3    17  PHE17       0.1639
     22  C         82.9050   -4.7740   63.0690 C.2    17  PHE17       0.2290
     23  O         83.4180   -3.8440   63.7000 O.2    17  PHE17      -0.2864
     24  CB        80.8190   -5.7020   64.1030 C.3    17  PHE17       0.0560
     25  CG        79.3400   -6.0380   64.0020 C.ar   17  PHE17      -0.0200
     26  CD1       78.3970   -5.0430   63.7850 C.ar   17  PHE17      -0.0042
     27  CD2       78.8930   -7.3450   64.1670 C.ar   17  PHE17      -0.0042
     28  CE1       77.0510   -5.3560   63.6740 C.ar   17  PHE17      -0.0003
     29  CE2       77.5360   -7.6500   64.0850 C.ar   17  PHE17      -0.0003
     30  CZ        76.6280   -6.6580   63.8250 C.ar   17  PHE17      -0.0000
     31  N         68.3000   -6.0990   53.8000 N.3    89  PRO89      -0.2102
     32  CA        67.8080   -4.9960   52.9610 C.3    89  PRO89       0.1504
     33  C         66.4280   -5.2260   52.3910 C.2    89  PRO89       0.2575
     34  O         65.6250   -4.3050   52.3980 O.2    89  PRO89      -0.2718
     35  CB        68.8490   -4.8930   51.8470 C.3    89  PRO89       0.0282
     36  CG        70.0470   -5.5720   52.3660 C.3    89  PRO89       0.0208
     37  CD        69.5610   -6.6490   53.2600 C.3    89  PRO89       0.0893
     38  N         66.1540   -6.4360   51.8880 N.am   90  ARG90      -0.1980
     39  CA        64.8660   -6.7100   51.2780 C.3    90  ARG90       0.1597
     40  C         63.7720   -6.5640   52.3080 C.2    90  ARG90       0.2287
     41  O         62.7650   -5.9130   52.0270 O.2    90  ARG90      -0.2864
     42  CB        64.8590   -8.0440   50.5140 C.3    90  ARG90       0.0334
     43  CG        64.4190   -9.2910   51.2620 C.3    90  ARG90       0.0492
     44  CD        63.4100   -9.9940   50.3840 C.3    90  ARG90       0.2205
     45  NE        63.1230  -11.3740   50.7770 N.pl3  90  ARG90      -0.0865
     46  CZ        62.4200  -12.2220   50.0310 C.cat  90  ARG90       0.5346
     47  NH1       61.9490  -11.8430   48.8510 N.pl3  90  ARG90       0.1354
     48  NH2       62.2030  -13.4610   50.4490 N.pl3  90  ARG90       0.1354
     49  N         63.8920   -4.5950   54.8310 N.3    92  ILE92      -0.1231
     50  CA        63.7920   -3.1520   54.9310 C.3    92  ILE92       0.1692
     51  C         62.9550   -2.5450   53.8320 C.2    92  ILE92       0.2592
     52  O         61.9890   -1.8530   54.1270 O.2    92  ILE92      -0.2718
     53  CB        65.1880   -2.5020   54.9520 C.3    92  ILE92       0.0266
     54  CG1       66.0220   -3.0020   56.1290 C.3    92  ILE92       0.0019
     55  CG2       65.0840   -0.9740   54.9660 C.3    92  ILE92       0.0020
     56  CD1       67.4980   -2.7860   55.9720 C.3    92  ILE92       0.0001
     57  N         63.3440   -2.7570   52.5740 N.am   93  TYR93      -0.1976
     58  CA        62.6950   -2.0880   51.4550 C.3    93  TYR93       0.1639
     59  C         61.2450   -2.4570   51.2850 C.2    93  TYR93       0.2290
     60  O         60.4440   -1.6120   50.8770 O.2    93  TYR93      -0.2864
     61  CB        63.4690   -2.2670   50.1510 C.3    93  TYR93       0.0560
     62  CG        63.3870   -1.0560   49.2410 C.ar   93  TYR93      -0.0198
     63  CD1       62.3500   -0.9180   48.3250 C.ar   93  TYR93      -0.0009
     64  CD2       64.3550   -0.0570   49.2860 C.ar   93  TYR93      -0.0009
     65  CE1       62.2720    0.1870   47.4820 C.ar   93  TYR93       0.0417
     66  CE2       64.2870    1.0540   48.4480 C.ar   93  TYR93       0.0417
     67  CZ        63.2400    1.1740   47.5510 C.ar   93  TYR93       0.1957
     68  OH        63.1610    2.2680   46.7250 O.3    93  TYR93      -0.2866
     69  N         70.1420   -2.7660   62.8300 N.3   112  LEU112     -0.1245
     70  CA        71.5010   -2.2370   62.9250 C.3   112  LEU112      0.1561
     71  C         71.9520   -1.7990   64.3240 C.2   112  LEU112      0.2260
     72  O         73.1580   -1.7130   64.5620 O.2   112  LEU112     -0.2867
     73  CB        71.7430   -1.1280   61.9170 C.3   112  LEU112      0.0270
     74  CG        72.7450   -1.5080   60.8390 C.3   112  LEU112      0.0019
     75  CD1       72.5910   -0.6490   59.6310 C.3   112  LEU112      0.0001
     76  CD2       74.1700   -1.4350   61.3540 C.3   112  LEU112      0.0001
     77  N         83.9460   -8.0920   45.9210 N.3   362  ARG362     -0.1245
     78  CA        83.5580   -6.7560   46.3730 C.3   362  ARG362      0.1563
     79  C         84.5940   -6.2580   47.3630 C.2   362  ARG362      0.2260
     80  O         85.1910   -5.2090   47.1380 O.2   362  ARG362     -0.2867
     81  CB        82.1630   -6.7400   47.0100 C.3   362  ARG362      0.0307
     82  CG        81.6750   -5.3230   47.3050 C.3   362  ARG362      0.0489
     83  CD        80.4950   -5.2670   48.2520 C.3   362  ARG362      0.2205
     84  NE        80.8530   -5.6030   49.6340 N.pl3 362  ARG362     -0.0865
     85  CZ        80.6150   -6.7820   50.1960 C.cat 362  ARG362      0.5346
     86  NH1       80.0300   -7.7510   49.5010 N.pl3 362  ARG362      0.1354
     87  NH2       80.9700   -7.0070   51.4520 N.pl3 362  ARG362      0.1354
     88  N         81.2500   -3.7310   41.1530 N.3   418  VAL418     -0.1245
     89  CA        80.5240   -3.6420   42.4180 C.3   418  VAL418      0.1561
     90  C         79.0590   -3.9920   42.1360 C.2   418  VAL418      0.2260
     91  O         78.4590   -4.7450   42.9000 O.2   418  VAL418     -0.2867
     92  CB        80.6940   -2.2360   43.0630 C.3   418  VAL418      0.0252
     93  CG1       79.6170   -1.9320   44.0960 C.3   418  VAL418      0.0019
     94  CG2       82.0700   -2.0790   43.6820 C.3   418  VAL418      0.0019
     95  N         76.5870   -6.8630   43.5400 N.3   422  ASP422     -0.1225
     96  CA        75.3960   -6.4040   44.2630 C.3   422  ASP422      0.1805
     97  C         74.0910   -7.0050   43.7600 C.2   422  ASP422      0.2597
     98  O         73.2360   -7.3730   44.5640 O.2   422  ASP422     -0.2718
     99  CB        75.3020   -4.8680   44.2420 C.3   422  ASP422      0.1424
    100  CG        76.1430   -4.1490   45.2820 C.2   422  ASP422      0.3668
    101  OD1       76.9400   -4.8240   45.9770 O.co2 422  ASP422     -0.2456
    102  OD2       76.0230   -2.9050   45.3860 O.co2 422  ASP422     -0.2456
    103  N         73.9570   -7.1250   42.4330 N.am  423  ALA423     -0.1979
    104  CA        72.7700   -7.6520   41.7770 C.3   423  ALA423      0.1597
    105  C         72.6450   -9.1470   41.9610 C.2   423  ALA423      0.2287
    106  O         71.6170   -9.6310   42.4570 O.2   423  ALA423     -0.2864
    107  CB        72.8120   -7.3020   40.2970 C.3   423  ALA423      0.0319
    108  N         71.5500  -10.0440   45.4340 N.3   426  ILE426     -0.1245
    109  CA        70.1040   -9.9590   45.6530 C.3   426  ILE426      0.1561
    110  C         69.4080  -11.2090   45.1380 C.2   426  ILE426      0.2260
    111  O         68.6680  -11.8720   45.8740 O.2   426  ILE426     -0.2867
    112  CB        69.5370   -8.6830   44.9730 C.3   426  ILE426      0.0252
    113  CG1       70.1490   -7.4040   45.5730 C.3   426  ILE426      0.0019
    114  CG2       68.0030   -8.6560   45.0540 C.3   426  ILE426      0.0019
    115  CD1       70.0310   -6.1410   44.7040 C.3   426  ILE426      0.0001
@<TRIPOS>BOND
     1   107   104    1
     2    88    89    1
     3   104   105    1
     4   104   103    1
     5   105   106    2
     6    90    89    1
     7    90    91    2
     8    89    92    1
     9   103    97   am
    10    92    94    1
    11    92    93    1
    12    95    96    1
    13    97    96    1
    14    97    98    2
    15    99    96    1
    16    99   100    1
    17   115   113    1
    18   112   114    1
    19   112   113    1
    20   112   109    1
    21   110   109    1
    22   110   111    2
    23   100   102   ar
    24   100   101   ar
    25   108   109    1
    26    77    78    1
    27    78    81    1
    28    78    79    1
    29    68    67    1
    30    81    82    1
    31    80    79    2
    32    82    83    1
    33    65    67   ar
    34    65    63   ar
    35    67    66   ar
    36    83    84    1
    37    63    62   ar
    38    66    64   ar
    39    47    46    1
    40    62    64   ar
    41    62    61    1
    42    86    85    1
    43    84    85    2
    44    46    48    1
    45    46    45    2
    46    61    58    1
    47    85    87    1
    48    44    45    1
    49    44    43    1
    50    42    43    1
    51    42    39    1
    52    60    59    2
    53    39    38    1
    54    39    40    1
    55    59    58    1
    56    58    57    1
    57    35    36    1
    58    35    32    1
    59    38    33   am
    60    41    40    2
    61    36    37    1
    62    33    34    2
    63    33    32    1
    64    57    51   am
    65    32    31    1
    66    37    31    1
    67     8     7   ar
    68    51    52    2
    69    51    50    1
    70     9     7   ar
    71     7     6    1
    72    49    50    1
    73    50    53    1
    74    53    55    1
    75    53    54    1
    76     6     5    1
    77     5     2    1
    78    56    54    1
    79     2     1    1
    80     2     3    1
    81     4     3    2
    82     3    10   am
    83    19    17   ar
    84    19    18   ar
    85    17    15   ar
    86    10    11    1
    87    18    16   ar
    88    15    14    1
    89    15    16   ar
    90    75    74    1
    91    11    14    1
    92    11    12    1
    93    74    76    1
    94    74    73    1
    95    12    13    2
    96    12    20   am
    97    20    21    1
    98    73    70    1
    99    69    70    1
   100    70    71    1
   101    21    22    1
   102    21    24    1
   103    22    23    2
   104    28    26   ar
   105    28    30   ar
   106    26    25   ar
   107    30    29   ar
   108    25    24    1
   109    25    27   ar
   110    29    27   ar
   111    71    72    2
