@<TRIPOS>MOLECULE
tmp/5afvA00.pdb
 149 145 0 0 0
SMALL
GASTEIGER

@<TRIPOS>ATOM
      1  N         10.8020   -5.5060   -1.1960 N.3   203  ASP203     -0.1239
      2  CA        11.2910   -6.7100   -1.8850 C.3   203  ASP203      0.1674
      3  C         12.7780   -6.5850   -2.0370 C.2   203  ASP203      0.2266
      4  O         13.3780   -6.9410   -3.1140 O.2   203  ASP203     -0.2867
      5  CB        10.6100   -6.8730   -3.2640 C.3   203  ASP203      0.1410
      6  CG        10.9190   -8.2270   -3.9350 C.2   203  ASP203      0.3668
      7  OD1       11.2600   -9.2230   -3.2280 O.co2 203  ASP203     -0.2456
      8  OD2       10.8100   -8.3080   -5.1770 O.co2 203  ASP203     -0.2456
      9  N         15.5760   -8.0480   -1.8050 N.3   205  GLN205     -0.1245
     10  CA        16.3830   -9.2460   -1.8810 C.3   205  GLN205      0.1566
     11  C         17.6090   -9.0960   -2.8260 C.2   205  GLN205      0.2260
     12  O         17.6760   -8.1560   -3.6240 O.2   205  GLN205     -0.2867
     13  CB        15.5400  -10.4260   -2.3630 C.3   205  GLN205      0.0367
     14  CG        14.9420  -10.2580   -3.7640 C.3   205  GLN205      0.0905
     15  CD        15.0900  -11.5180   -4.5870 C.2   205  GLN205      0.2608
     16  OE1       16.2300  -11.9790   -4.8910 O.2   205  GLN205     -0.2717
     17  NE2       13.9640  -12.1090   -4.9250 N.am  205  GLN205     -0.0878
     18  N         17.7750   -8.0650   -6.4160 N.3   208  ASN208     -0.1240
     19  CA        17.3960   -6.7060   -6.6980 C.3   208  ASN208      0.1653
     20  C         18.4170   -5.7060   -6.2730 C.2   208  ASN208      0.2266
     21  O         18.1010   -4.5290   -6.1680 O.2   208  ASN208     -0.2867
     22  CB        16.0140   -6.3910   -6.0910 C.3   208  ASN208      0.1155
     23  CG        14.8800   -7.1610   -6.7760 C.2   208  ASN208      0.2627
     24  OD1       14.9240   -7.3890   -7.9880 O.2   208  ASN208     -0.2716
     25  ND2       13.8780   -7.5720   -6.0230 N.am  208  ASN208     -0.0877
     26  N          8.8730   -2.8430   -8.3580 N.3   229  GLU229     -0.1231
     27  CA         7.5000   -3.1800   -8.7380 C.3   229  GLU229      0.1699
     28  C          6.5450   -3.2210   -7.5710 C.2   229  GLU229      0.2592
     29  O          5.3460   -3.0600   -7.7480 O.2   229  GLU229     -0.2718
     30  CB         7.3880   -4.5750   -9.3770 C.3   229  GLU229      0.0402
     31  CG         8.4830   -5.1010  -10.3190 C.3   229  GLU229      0.1161
     32  CD         8.5650   -6.6320  -10.2580 C.2   229  GLU229      0.3649
     33  OE1        7.4820   -7.2750  -10.3140 O.co2 229  GLU229     -0.2457
     34  OE2        9.6790   -7.1910  -10.0990 O.co2 229  GLU229     -0.2457
     35  N          7.0580   -3.5460   -6.3930 N.am  230  TYR230     -0.1976
     36  CA         6.2330   -3.7660   -5.2190 C.3   230  TYR230      0.1639
     37  C          6.2140   -2.5740   -4.2660 C.2   230  TYR230      0.2290
     38  O          5.5480   -2.6380   -3.2500 O.2   230  TYR230     -0.2864
     39  CB         6.7440   -5.0030   -4.4800 C.3   230  TYR230      0.0560
     40  CG         6.4910   -6.2610   -5.2520 C.ar  230  TYR230     -0.0198
     41  CD1        5.2120   -6.7680   -5.3410 C.ar  230  TYR230     -0.0009
     42  CD2        7.5070   -6.9200   -5.9430 C.ar  230  TYR230     -0.0009
     43  CE1        4.9480   -7.9130   -6.0690 C.ar  230  TYR230      0.0417
     44  CE2        7.2400   -8.0560   -6.6920 C.ar  230  TYR230      0.0417
     45  CZ         5.9600   -8.5500   -6.7360 C.ar  230  TYR230      0.1957
     46  OH         5.6470   -9.6850   -7.4360 O.3   230  TYR230     -0.2866
     47  N         15.3460  -12.4080    3.9300 N.3   246  GLU246     -0.1245
     48  CA        15.9850  -12.8280    2.6690 C.3   246  GLU246      0.1567
     49  C         17.4550  -13.3220    2.8610 C.2   246  GLU246      0.2260
     50  O         18.0250  -13.9250    1.9490 O.2   246  GLU246     -0.2867
     51  CB        15.9650  -11.6970    1.6720 C.3   246  GLU246      0.0388
     52  CG        14.6100  -11.4320    1.0300 C.3   246  GLU246      0.1160
     53  CD        14.1630  -12.5650    0.1020 C.2   246  GLU246      0.3649
     54  OE1       14.9950  -13.4340   -0.2070 O.co2 246  GLU246     -0.2457
     55  OE2       12.9870  -12.5960   -0.2910 O.co2 246  GLU246     -0.2457
     56  N         17.8540  -18.5170   -4.0420 N.3   251  TYR251     -0.1241
     57  CA        17.0790  -18.8590   -5.1740 C.3   251  TYR251      0.1605
     58  C         17.9510  -19.3160   -6.3560 C.2   251  TYR251      0.2264
     59  O         17.4130  -19.4710   -7.4530 O.2   251  TYR251     -0.2867
     60  CB        16.2380  -17.6370   -5.6060 C.3   251  TYR251      0.0534
     61  CG        15.4210  -17.0270   -4.4870 C.ar  251  TYR251     -0.0201
     62  CD1       14.2870  -17.6620   -4.0010 C.ar  251  TYR251     -0.0009
     63  CD2       15.7880  -15.8090   -3.9250 C.ar  251  TYR251     -0.0009
     64  CE1       13.5340  -17.0910   -2.9960 C.ar  251  TYR251      0.0417
     65  CE2       15.0610  -15.2360   -2.8830 C.ar  251  TYR251      0.0417
     66  CZ        13.9360  -15.8730   -2.4310 C.ar  251  TYR251      0.1957
     67  OH        13.2270  -15.3120   -1.4070 O.3   251  TYR251     -0.2866
     68  N          4.3800  -13.1440    1.8810 N.3   317  TRP317     -0.1241
     69  CA         4.9930  -13.9450    0.8470 C.3   317  TRP317      0.1605
     70  C          4.5750  -15.4180    0.8810 C.2   317  TRP317      0.2264
     71  O          4.4950  -16.0450   -0.1610 O.2   317  TRP317     -0.2867
     72  CB         6.5160  -13.8030    0.8600 C.3   317  TRP317      0.0550
     73  CG         6.9600  -12.4110    0.5800 C.ar  317  TRP317      0.0003
     74  CD1        7.7120  -11.6110    1.3920 C.ar  317  TRP317      0.0946
     75  CD2        6.6300  -11.6100   -0.5790 C.ar  317  TRP317      0.0152
     76  NE1        7.9110  -10.3870    0.7970 N.ar  317  TRP317     -0.2442
     77  CE2        7.2560  -10.3570   -0.4050 C.ar  317  TRP317      0.0810
     78  CE3        5.8850  -11.8370   -1.7530 C.ar  317  TRP317      0.0012
     79  CZ2        7.1470   -9.3240   -1.3470 C.ar  317  TRP317      0.0191
     80  CZ3        5.7960  -10.7950   -2.7170 C.ar  317  TRP317      0.0001
     81  CH2        6.4220   -9.5610   -2.4920 C.ar  317  TRP317      0.0015
     82  N          0.9950  -15.1540   -0.8480 N.3   320  TRP320     -0.1241
     83  CA         1.2630  -14.8000   -2.2330 C.3   320  TRP320      0.1605
     84  C          1.7150  -16.0360   -3.0060 C.2   320  TRP320      0.2264
     85  O          1.2860  -16.2580   -4.1190 O.2   320  TRP320     -0.2867
     86  CB         2.3400  -13.7140   -2.3020 C.3   320  TRP320      0.0550
     87  CG         2.7410  -13.3330   -3.7120 C.ar  320  TRP320      0.0003
     88  CD1        2.2030  -12.3410   -4.4890 C.ar  320  TRP320      0.0946
     89  CD2        3.8270  -13.8940   -4.4650 C.ar  320  TRP320      0.0152
     90  NE1        2.8530  -12.2910   -5.6940 N.ar  320  TRP320     -0.2442
     91  CE2        3.8660  -13.2240   -5.6950 C.ar  320  TRP320      0.0810
     92  CE3        4.7660  -14.9080   -4.2150 C.ar  320  TRP320      0.0012
     93  CZ2        4.8140  -13.5350   -6.6870 C.ar  320  TRP320      0.0191
     94  CZ3        5.6990  -15.2140   -5.1890 C.ar  320  TRP320      0.0001
     95  CH2        5.7100  -14.5300   -6.4230 C.ar  320  TRP320      0.0015
     96  N          5.5980  -20.3790  -14.3750 N.3   330  ILE330     -0.1245
     97  CA         6.9820  -20.3710  -13.9200 C.3   330  ILE330      0.1561
     98  C          7.3040  -21.6290  -13.1010 C.2   330  ILE330      0.2260
     99  O          6.5390  -22.0310  -12.2170 O.2   330  ILE330     -0.2867
    100  CB         7.2560  -19.1210  -13.0600 C.3   330  ILE330      0.0252
    101  CG1        6.8800  -17.8360  -13.8450 C.3   330  ILE330      0.0019
    102  CG2        8.7330  -19.0760  -12.6510 C.3   330  ILE330      0.0019
    103  CD1        7.3180  -16.5310  -13.1950 C.3   330  ILE330      0.0001
    104  N          8.7380  -23.3360  -10.3690 N.3   332  PHE332     -0.1241
    105  CA         9.2060  -22.9620   -9.0340 C.3   332  PHE332      0.1605
    106  C          8.3150  -23.7070   -8.0830 C.2   332  PHE332      0.2264
    107  O          7.1020  -23.7540   -8.2890 O.2   332  PHE332     -0.2867
    108  CB         9.1140  -21.4190   -8.8310 C.3   332  PHE332      0.0534
    109  CG         9.6790  -20.9420   -7.5450 C.ar  332  PHE332     -0.0203
    110  CD1       11.0560  -20.7950   -7.3730 C.ar  332  PHE332     -0.0042
    111  CD2        8.8550  -20.7190   -6.4660 C.ar  332  PHE332     -0.0042
    112  CE1       11.5940  -20.4350   -6.1440 C.ar  332  PHE332     -0.0003
    113  CE2        9.3780  -20.3430   -5.2490 C.ar  332  PHE332     -0.0003
    114  CZ        10.7500  -20.1740   -5.0970 C.ar  332  PHE332     -0.0000
    115  N          6.3880  -23.3480   -5.5420 N.3   334  TYR334     -0.1241
    116  CA         5.6300  -22.3230   -4.8390 C.3   334  TYR334      0.1605
    117  C          5.0480  -22.8270   -3.4980 C.2   334  TYR334      0.2264
    118  O          5.0490  -22.0870   -2.5090 O.2   334  TYR334     -0.2867
    119  CB         4.4950  -21.7860   -5.7070 C.3   334  TYR334      0.0534
    120  CG         4.9470  -20.8590   -6.7890 C.ar  334  TYR334     -0.0201
    121  CD1        5.4090  -19.5780   -6.5070 C.ar  334  TYR334     -0.0009
    122  CD2        4.9060  -21.2610   -8.1400 C.ar  334  TYR334     -0.0009
    123  CE1        5.8280  -18.7240   -7.5350 C.ar  334  TYR334      0.0417
    124  CE2        5.3230  -20.4280   -9.1560 C.ar  334  TYR334      0.0417
    125  CZ         5.7640  -19.1660   -8.8570 C.ar  334  TYR334      0.1957
    126  OH         6.1540  -18.3490   -9.8950 O.3   334  TYR334     -0.2866
    127  N          7.8180  -23.4450   -0.9270 N.3   337  TYR337     -0.1241
    128  CA         8.2970  -22.1310   -0.5350 C.3   337  TYR337      0.1605
    129  C          7.3290  -21.5550    0.4450 C.2   337  TYR337      0.2264
    130  O          7.7430  -21.0880    1.5050 O.2   337  TYR337     -0.2867
    131  CB         8.4110  -21.1800   -1.7390 C.3   337  TYR337      0.0534
    132  CG         8.9860  -19.8570   -1.3420 C.ar  337  TYR337     -0.0201
    133  CD1       10.3320  -19.7360   -1.0010 C.ar  337  TYR337     -0.0009
    134  CD2        8.1940  -18.7430   -1.2400 C.ar  337  TYR337     -0.0009
    135  CE1       10.8780  -18.5300   -0.6220 C.ar  337  TYR337      0.0417
    136  CE2        8.7300  -17.5300   -0.8550 C.ar  337  TYR337      0.0417
    137  CZ        10.0730  -17.4380   -0.5440 C.ar  337  TYR337      0.1957
    138  OH        10.5850  -16.2260   -0.1730 O.3   337  TYR337     -0.2866
    139  N          8.2410  -20.4940    4.3800 N.3   341  ARG341     -0.1245
    140  CA         7.9560  -19.2170    5.0210 C.3   341  ARG341      0.1563
    141  C          7.0960  -19.3980    6.2670 C.2   341  ARG341      0.2260
    142  O          7.3230  -18.7660    7.2760 O.2   341  ARG341     -0.2867
    143  CB         7.2280  -18.2640    4.0960 C.3   341  ARG341      0.0307
    144  CG         7.9890  -17.9300    2.7880 C.3   341  ARG341      0.0489
    145  CD         9.4330  -17.4920    3.0190 C.3   341  ARG341      0.2205
    146  NE         9.5430  -16.3290    3.8910 N.pl3 341  ARG341     -0.0865
    147  CZ         9.7990  -15.0760    3.5130 C.cat 341  ARG341      0.5346
    148  NH1        9.9750  -14.7390    2.2500 N.pl3 341  ARG341      0.1354
    149  NH2        9.8780  -14.1340    4.4340 N.pl3 341  ARG341      0.1354
@<TRIPOS>BOND
     1    96    97    1
     2    97    98    1
     3    97   100    1
     4   101   103    1
     5   101   100    1
     6    98    99    2
     7   100   102    1
     8   104   105    1
     9    31    32    1
    10    31    30    1
    11    33    32   ar
    12    32    34   ar
    13   126   125    1
    14    30    27    1
    15   124   125   ar
    16   124   122   ar
    17   105   108    1
    18   105   106    1
    19   125   123   ar
    20   108   109    1
    21    27    26    1
    22    27    28    1
    23   107   106    2
    24   122   120   ar
    25    24    23    2
    26    29    28    2
    27    28    35   am
    28   109   110   ar
    29   109   111   ar
    30   123   121   ar
    31    59    58    2
    32    46    45    1
    33   110   112   ar
    34   120   121   ar
    35   120   119    1
    36    23    22    1
    37    23    25   am
    38    45    44   ar
    39    45    43   ar
    40    19    18    1
    41    19    20    1
    42    19    22    1
    43    44    42   ar
    44    93    95   ar
    45    93    91   ar
    46   111   113   ar
    47    95    94   ar
    48    35    36    1
    49    58    57    1
    50    20    21    2
    51   112   114   ar
    52    43    41   ar
    53    42    40   ar
    54   119   116    1
    55    91    90   ar
    56    91    89   ar
    57    90    88   ar
    58    60    57    1
    59    60    61    1
    60   115   116    1
    61    41    40   ar
    62    40    39    1
    63   113   114   ar
    64    36    39    1
    65    36    37    1
    66    94    92   ar
    67     8     6   ar
    68    57    56    1
    69    17    15   am
    70    16    15    2
    71   116   117    1
    72    15    14    1
    73    88    87   ar
    74    61    62   ar
    75    61    63   ar
    76    89    92   ar
    77    89    87   ar
    78    37    38    2
    79    85    84    2
    80    62    64   ar
    81     6     5    1
    82     6     7   ar
    83    63    65   ar
    84    14    13    1
    85    87    86    1
    86    12    11    2
    87   117   118    2
    88     5     2    1
    89     4     3    2
    90    84    83    1
    91    64    66   ar
    92    65    66   ar
    93    11    10    1
    94    80    81   ar
    95    80    78   ar
    96    81    79   ar
    97    66    67    1
    98    13    10    1
    99    86    83    1
   100    83    82    1
   101     3     2    1
   102     2     1    1
   103    10     9    1
   104    78    75   ar
   105   131   132    1
   106   131   128    1
   107    79    77   ar
   108   132   134   ar
   109   132   133   ar
   110   134   136   ar
   111   133   135   ar
   112   127   128    1
   113   136   137   ar
   114   135   137   ar
   115    75    77   ar
   116    75    73   ar
   117   137   138    1
   118   128   129    1
   119    77    76   ar
   120    55    53   ar
   121    54    53   ar
   122    71    70    2
   123    53    52    1
   124   129   130    2
   125    73    72    1
   126    73    74   ar
   127    76    74   ar
   128    69    72    1
   129    69    70    1
   130    69    68    1
   131    52    51    1
   132    51    48    1
   133    50    49    2
   134   148   147    1
   135    48    49    1
   136    48    47    1
   137   144   145    1
   138   144   143    1
   139   145   146    1
   140   147   146    2
   141   147   149    1
   142   143   140    1
   143   139   140    1
   144   140   141    1
   145   141   142    2
