@<TRIPOS>MOLECULE
tmp/5afvB00.pdb
 122 114 0 0 0
SMALL
GASTEIGER

@<TRIPOS>ATOM
      1  N        -12.5210   25.8060  -12.1400 N.3    38  ARG38      -0.1245
      2  CA       -13.2700   25.6110  -13.3970 C.3    38  ARG38       0.1563
      3  C        -14.0960   24.3370  -13.3350 C.2    38  ARG38       0.2260
      4  O        -13.5840   23.2740  -12.9730 O.2    38  ARG38      -0.2867
      5  CB       -12.3370   25.5450  -14.6150 C.3    38  ARG38       0.0307
      6  CG       -13.0000   24.9780  -15.8640 C.3    38  ARG38       0.0489
      7  CD       -12.1120   25.0260  -17.1060 C.3    38  ARG38       0.2205
      8  NE       -11.2850   23.8160  -17.2740 N.pl3  38  ARG38      -0.0865
      9  CZ        -9.9450   23.7780  -17.3070 C.cat  38  ARG38       0.5346
     10  NH1       -9.2210   24.8830  -17.2030 N.pl3  38  ARG38       0.1354
     11  NH2       -9.3030   22.6180  -17.4470 N.pl3  38  ARG38       0.1354
     12  N        -15.5700   17.7530  -17.8750 N.3    42  SER42      -0.1202
     13  CA       -14.2020   17.2530  -17.9590 C.3    42  SER42       0.2020
     14  C        -13.1660   18.2730  -17.4600 C.2    42  SER42       0.2618
     15  O        -13.3840   19.4900  -17.5010 O.2    42  SER42      -0.2717
     16  CB       -13.8910   16.8410  -19.4040 C.3    42  SER42       0.2103
     17  OG       -14.0660   17.9320  -20.2890 O.3    42  SER42      -0.2182
     18  N        -12.0530   17.7370  -16.9660 N.am   43  ASN43      -0.1974
     19  CA       -10.8610   18.5060  -16.6110 C.3    43  ASN43       0.1688
     20  C        -11.1260   19.6630  -15.6160 C.2    43  ASN43       0.2292
     21  O        -10.6640   20.8050  -15.7850 O.2    43  ASN43      -0.2864
     22  CB       -10.1760   18.9670  -17.9020 C.3    43  ASN43       0.1181
     23  CG        -8.6980   18.6160  -17.9430 C.2    43  ASN43       0.2629
     24  OD1       -8.2900   17.4920  -17.6310 O.2    43  ASN43      -0.2716
     25  ND2       -7.8940   19.5680  -18.3660 N.am   43  ASN43      -0.0877
     26  N         -3.3160   33.8940  -16.5620 N.3   110  ARG110     -0.1245
     27  CA        -3.0410   33.6210  -17.9770 C.3   110  ARG110      0.1563
     28  C         -2.7280   34.9520  -18.6790 C.2   110  ARG110      0.2260
     29  O         -3.2470   35.9910  -18.2930 O.2   110  ARG110     -0.2867
     30  CB        -4.2380   32.9160  -18.6230 C.3   110  ARG110      0.0307
     31  CG        -4.4210   31.5100  -18.0660 C.3   110  ARG110      0.0489
     32  CD        -5.8390   30.9580  -18.1220 C.3   110  ARG110      0.2205
     33  NE        -6.8550   31.9360  -17.7830 N.pl3 110  ARG110     -0.0865
     34  CZ        -8.1700   31.7390  -17.9050 C.cat 110  ARG110      0.5346
     35  NH1       -8.6640   30.5960  -18.3560 N.pl3 110  ARG110      0.1354
     36  NH2       -9.0040   32.7010  -17.5630 N.pl3 110  ARG110      0.1354
     37  N          0.4910   23.5170  -28.7960 N.3   203  ASP203     -0.1239
     38  CA        -0.7200   24.2450  -28.3840 C.3   203  ASP203      0.1674
     39  C         -0.3170   25.4820  -27.5870 C.2   203  ASP203      0.2266
     40  O         -0.9020   25.8220  -26.5570 O.2   203  ASP203     -0.2867
     41  CB        -1.6400   23.3440  -27.5600 C.3   203  ASP203      0.1410
     42  CG        -3.0070   24.0120  -27.2640 C.2   203  ASP203      0.3668
     43  OD1       -3.4370   24.9290  -28.0040 O.co2 203  ASP203     -0.2456
     44  OD2       -3.6840   23.5830  -26.3120 O.co2 203  ASP203     -0.2456
     45  N         -0.6860   28.5690  -26.9560 N.3   205  GLN205     -0.1245
     46  CA        -1.5320   29.7600  -26.9410 C.3   205  GLN205      0.1566
     47  C         -1.5140   30.4550  -25.5880 C.2   205  GLN205      0.2260
     48  O         -1.0790   29.8660  -24.5930 O.2   205  GLN205     -0.2867
     49  CB        -2.9920   29.3950  -27.2790 C.3   205  GLN205      0.0367
     50  CG        -3.6430   28.4000  -26.3160 C.3   205  GLN205      0.0905
     51  CD        -5.0410   28.8030  -25.9230 C.2   205  GLN205      0.2608
     52  OE1       -5.2690   29.8540  -25.3180 O.2   205  GLN205     -0.2717
     53  NE2       -5.9940   27.9720  -26.2870 N.am  205  GLN205     -0.0878
     54  N         -3.6950   31.0650  -23.3020 N.3   207  GLY207     -0.1210
     55  CA        -4.3050   30.3270  -22.2000 C.3   207  GLY207      0.1956
     56  C         -3.3700   29.3490  -21.5070 C.2   207  GLY207      0.2611
     57  O         -3.6450   28.9310  -20.4030 O.2   207  GLY207     -0.2717
     58  N         -2.2440   29.0270  -22.1460 N.am  208  ASN208     -0.1974
     59  CA        -1.3140   28.0610  -21.6490 C.3   208  ASN208      0.1688
     60  C          0.0230   28.6710  -21.2630 C.2   208  ASN208      0.2292
     61  O          1.0120   27.9470  -21.1340 O.2   208  ASN208     -0.2864
     62  CB        -1.1260   26.9650  -22.6830 C.3   208  ASN208      0.1181
     63  CG        -2.3630   26.0880  -22.8220 C.2   208  ASN208      0.2629
     64  OD1       -3.0700   25.8180  -21.8540 O.2   208  ASN208     -0.2716
     65  ND2       -2.6130   25.6210  -24.0160 N.am  208  ASN208     -0.0877
     66  N          2.4450   25.9640  -19.6310 N.3   226  ILE226     -0.1231
     67  CA         1.7290   24.8360  -19.0150 C.3   226  ILE226      0.1692
     68  C          0.9150   24.0280  -20.0250 C.2   226  ILE226      0.2592
     69  O          0.7890   24.4000  -21.1840 O.2   226  ILE226     -0.2718
     70  CB         0.7660   25.2910  -17.9050 C.3   226  ILE226      0.0266
     71  CG1       -0.2800   26.2790  -18.4430 C.3   226  ILE226      0.0019
     72  CG2        1.5500   25.9330  -16.8120 C.3   226  ILE226      0.0020
     73  CD1       -1.4640   26.5000  -17.5140 C.3   226  ILE226      0.0001
     74  N          0.4240   22.8840  -19.5730 N.am  227  ASP227     -0.1974
     75  CA        -0.6200   22.1650  -20.2530 C.3   227  ASP227      0.1709
     76  C         -0.1160   21.4880  -21.5320 C.2   227  ASP227      0.2293
     77  O         -0.4320   21.8550  -22.6370 O.2   227  ASP227     -0.2864
     78  CB        -1.7180   23.1530  -20.5560 C.3   227  ASP227      0.1436
     79  CG        -3.0410   22.5810  -20.3450 C.2   227  ASP227      0.3671
     80  OD1       -3.2530   21.4480  -20.8680 O.co2 227  ASP227     -0.2456
     81  OD2       -3.8460   23.2790  -19.6580 O.co2 227  ASP227     -0.2456
     82  N         -0.7740   18.5990  -22.8030 N.3   229  GLU229     -0.1231
     83  CA        -1.5340   17.3930  -23.1050 C.3   229  GLU229      0.1699
     84  C         -1.4580   17.0420  -24.6160 C.2   229  GLU229      0.2592
     85  O         -1.7170   15.9040  -24.9660 O.2   229  GLU229     -0.2718
     86  CB        -2.9770   17.4490  -22.5630 C.3   229  GLU229      0.0402
     87  CG        -3.8770   18.5660  -23.0750 C.3   229  GLU229      0.1161
     88  CD        -5.3820   18.2470  -22.9420 C.2   229  GLU229      0.3649
     89  OE1       -5.7440   17.1120  -22.5410 O.co2 229  GLU229     -0.2457
     90  OE2       -6.2320   19.1230  -23.2540 O.co2 229  GLU229     -0.2457
     91  N         -1.0860   17.9880  -25.4930 N.am  230  TYR230     -0.1976
     92  CA        -0.9730   17.7350  -26.9190 C.3   230  TYR230      0.1639
     93  C          0.4680   17.5220  -27.3830 C.2   230  TYR230      0.2290
     94  O          0.6820   17.2600  -28.5540 O.2   230  TYR230     -0.2864
     95  CB        -1.5910   18.8850  -27.7010 C.3   230  TYR230      0.0560
     96  CG        -3.0760   18.9330  -27.5790 C.ar  230  TYR230     -0.0198
     97  CD1       -3.8660   18.0380  -28.2680 C.ar  230  TYR230     -0.0009
     98  CD2       -3.7100   19.8960  -26.7950 C.ar  230  TYR230     -0.0009
     99  CE1       -5.2490   18.0860  -28.1910 C.ar  230  TYR230      0.0417
    100  CE2       -5.0880   19.9460  -26.7090 C.ar  230  TYR230      0.0417
    101  CZ        -5.8550   19.0370  -27.4090 C.ar  230  TYR230      0.1957
    102  OH        -7.2430   19.0380  -27.3130 O.3   230  TYR230     -0.2866
    103  N        -10.0130   34.2520  -27.3020 N.3   251  TYR251     -0.1241
    104  CA       -11.0320   33.4000  -26.7920 C.3   251  TYR251      0.1605
    105  C        -11.7000   33.9870  -25.5530 C.2   251  TYR251      0.2264
    106  O        -12.4760   33.2780  -24.9210 O.2   251  TYR251     -0.2867
    107  CB       -10.4360   32.0410  -26.4210 C.3   251  TYR251      0.0534
    108  CG        -9.6440   31.4240  -27.5340 C.ar  251  TYR251     -0.0201
    109  CD1      -10.2770   30.8750  -28.6640 C.ar  251  TYR251     -0.0009
    110  CD2       -8.2420   31.3770  -27.4690 C.ar  251  TYR251     -0.0009
    111  CE1       -9.5300   30.3090  -29.6990 C.ar  251  TYR251      0.0417
    112  CE2       -7.4720   30.8100  -28.5040 C.ar  251  TYR251      0.0417
    113  CZ        -8.1110   30.2890  -29.6200 C.ar  251  TYR251      0.1957
    114  OH        -7.3180   29.7530  -30.6140 O.3   251  TYR251     -0.2866
    115  N        -19.2560   21.6640  -24.4040 N.3   330  ILE330     -0.1245
    116  CA       -18.7410   23.0120  -24.1960 C.3   330  ILE330      0.1561
    117  C        -19.4100   24.0240  -25.1440 C.2   330  ILE330      0.2260
    118  O        -19.5560   23.7770  -26.3540 O.2   330  ILE330     -0.2867
    119  CB       -17.2220   23.0310  -24.4460 C.3   330  ILE330      0.0252
    120  CG1      -16.5140   21.9620  -23.5890 C.3   330  ILE330      0.0019
    121  CG2      -16.6720   24.4210  -24.1780 C.3   330  ILE330      0.0019
    122  CD1      -14.9940   22.0440  -23.5730 C.3   330  ILE330      0.0001
@<TRIPOS>BOND
     1   114   113    1
     2   111   113   ar
     3   111   109   ar
     4   113   112   ar
     5    37    38    1
     6   109   108   ar
     7    94    93    2
     8   112   110   ar
     9    38    39    1
    10    38    41    1
    11    97    99   ar
    12    97    96   ar
    13    99   101   ar
    14    43    42   ar
    15    95    96    1
    16    95    92    1
    17    39    40    2
    18    96    98   ar
    19    41    42    1
    20   108   110   ar
    21   108   107    1
    22   101   102    1
    23   101   100   ar
    24    93    92    1
    25   103   104    1
    26    49    46    1
    27    49    50    1
    28    42    44   ar
    29    45    46    1
    30    46    47    1
    31    92    91    1
    32    98   100   ar
    33   104   107    1
    34   104   105    1
    35   118   117    2
    36    50    51    1
    37    53    51   am
    38    51    52    2
    39    47    48    2
    40   105   106    2
    41    91    84   am
    42   117   116    1
    43    85    84    2
    44    84    83    1
    45   119   116    1
    46   119   121    1
    47   119   120    1
    48   115   116    1
    49    65    63   am
    50   120   122    1
    51    54    55    1
    52    90    88   ar
    53    83    82    1
    54    83    86    1
    55    87    88    1
    56    87    86    1
    57    88    89   ar
    58    63    62    1
    59    63    64    2
    60    62    59    1
    61    77    76    2
    62    55    56    1
    63    58    59    1
    64    58    56   am
    65    59    60    1
    66    76    75    1
    67    56    57    2
    68    60    61    2
    69    69    68    2
    70    80    79   ar
    71    78    79    1
    72    78    75    1
    73    79    81   ar
    74    17    16    1
    75    75    74    1
    76    68    74   am
    77    68    67    1
    78    66    67    1
    79    16    13    1
    80    67    70    1
    81    28    29    2
    82    28    27    1
    83    30    31    1
    84    30    27    1
    85    71    70    1
    86    71    73    1
    87    25    23   am
    88    35    34    1
    89    32    31    1
    90    32    33    1
    91    27    26    1
    92    13    12    1
    93    13    14    1
    94    23    22    1
    95    23    24    2
    96    70    72    1
    97    34    33    2
    98    34    36    1
    99    22    19    1
   100    15    14    2
   101    14    18   am
   102    11     9    1
   103     9     8    2
   104     9    10    1
   105     8     7    1
   106     7     6    1
   107    18    19    1
   108    19    20    1
   109     6     5    1
   110    21    20    2
   111     5     2    1
   112     2     3    1
   113     2     1    1
   114     3     4    2
