@<TRIPOS>MOLECULE
tmp/5afxA00.pdb
 239 225 0 0 0
SMALL
GASTEIGER

@<TRIPOS>ATOM
      1  N         26.3850    9.3250   22.7950 N.3    88  HIS88      -0.1226
      2  CA        26.4430   10.2000   21.6380 C.3    88  HIS88       0.1752
      3  C         25.9920    9.4650   20.3900 C.2    88  HIS88       0.2596
      4  O         25.1090    9.9600   19.6950 O.2    88  HIS88      -0.2718
      5  CB        27.8450   10.7570   21.4810 C.3    88  HIS88       0.0759
      6  CG        28.2320   11.0620   20.0700 C.ar   88  HIS88       0.0818
      7  ND1       27.8480   12.2140   19.4240 N.ar   88  HIS88      -0.2268
      8  CD2       29.0280   10.3890   19.2070 C.ar   88  HIS88       0.1154
      9  CE1       28.3680   12.2230   18.2140 C.ar   88  HIS88       0.1986
     10  NE2       29.0940   11.1290   18.0610 N.ar   88  HIS88      -0.2212
     11  N         26.5730    8.2770   20.1540 N.am   89  TYR89      -0.1962
     12  CA        26.1510    7.3500   19.0740 C.3    89  TYR89       0.1771
     13  C         24.6690    7.0310   19.0590 C.2    89  TYR89       0.2619
     14  O         24.0180    7.0920   18.0140 O.2    89  TYR89      -0.2715
     15  CB        26.8760    6.0020   19.1680 C.3    89  TYR89       0.0574
     16  CG        28.3560    6.0820   18.9320 C.ar   89  TYR89      -0.0198
     17  CD1       28.8860    7.0690   18.1160 C.ar   89  TYR89      -0.0009
     18  CD2       29.2260    5.1830   19.5300 C.ar   89  TYR89      -0.0009
     19  CE1       30.2280    7.1700   17.9120 C.ar   89  TYR89       0.0417
     20  CE2       30.5930    5.2800   19.3180 C.ar   89  TYR89       0.0417
     21  CZ        31.0760    6.2840   18.5050 C.ar   89  TYR89       0.1957
     22  OH        32.4150    6.4260   18.2670 O.3    89  TYR89      -0.2866
     23  N         24.1340    6.6620   20.2090 N.am   90  LEU90      -0.1977
     24  CA        22.7430    6.2510   20.2390 C.3    90  LEU90       0.1596
     25  C         21.8420    7.4210   19.9460 C.2    90  LEU90       0.2287
     26  O         20.9070    7.2820   19.1690 O.2    90  LEU90      -0.2864
     27  CB        22.3870    5.5500   21.5490 C.3    90  LEU90       0.0297
     28  CG        23.2600    4.3020   21.7150 C.3    90  LEU90       0.0022
     29  CD1       22.8370    3.5370   22.9490 C.3    90  LEU90       0.0001
     30  CD2       23.2560    3.3860   20.4910 C.3    90  LEU90       0.0001
     31  N         22.4310    9.9050   18.0320 N.3    92  GLU92      -0.1231
     32  CA        22.5130   10.1180   16.5900 C.3    92  GLU92       0.1699
     33  C         22.0040    8.9270   15.7610 C.2    92  GLU92       0.2592
     34  O         21.4220    9.1460   14.7070 O.2    92  GLU92      -0.2718
     35  CB        23.9390   10.4440   16.1630 C.3    92  GLU92       0.0402
     36  CG        24.6380   11.5060   16.9920 C.3    92  GLU92       0.1161
     37  CD        24.2390   12.9420   16.6790 C.2    92  GLU92       0.3649
     38  OE1       23.3490   13.1970   15.8270 O.co2  92  GLU92      -0.2457
     39  OE2       24.8520   13.8250   17.3200 O.co2  92  GLU92      -0.2457
     40  N         22.2420    7.6850   16.2210 N.am   93  ASP93      -0.1960
     41  CA        21.7480    6.4820   15.5400 C.3    93  ASP93       0.1840
     42  C         20.2230    6.4750   15.5050 C.2    93  ASP93       0.2622
     43  O         19.6190    6.3330   14.4480 O.2    93  ASP93      -0.2715
     44  CB        22.2710    5.1920   16.2040 C.3    93  ASP93       0.1450
     45  CG        21.8820    3.9320   15.4430 C.2    93  ASP93       0.3671
     46  OD1       22.3900    3.7080   14.3240 O.co2  93  ASP93      -0.2456
     47  OD2       21.0440    3.1630   15.9610 O.co2  93  ASP93      -0.2456
     48  N         19.5910    6.6650   16.6440 N.am   94  ASP94      -0.1971
     49  CA        18.1290    6.6160   16.6890 C.3    94  ASP94       0.1709
     50  C         17.4860    7.5690   15.6820 C.2    94  ASP94       0.2293
     51  O         16.5040    7.2170   15.0160 O.2    94  ASP94      -0.2864
     52  CB        17.6270    6.8650   18.1050 C.3    94  ASP94       0.1436
     53  CG        17.7900    5.6340   18.9980 C.2    94  ASP94       0.3671
     54  OD1       17.8780    4.4960   18.4550 O.co2  94  ASP94      -0.2456
     55  OD2       17.8230    5.7920   20.2410 O.co2  94  ASP94      -0.2456
     56  N         19.1370    8.6970   12.8750 N.3    96  MET96      -0.1230
     57  CA        19.4260    8.1580   11.5610 C.3    96  MET96       0.1702
     58  C         18.5150    6.9690   11.2460 C.2    96  MET96       0.2592
     59  O         18.0450    6.8570   10.1200 O.2    96  MET96      -0.2718
     60  CB        20.8930    7.7760   11.4390 C.3    96  MET96       0.0401
     61  CG        21.8270    8.9650   11.2870 C.3    96  MET96       0.0596
     62  SD        23.5580    8.4620   11.0760 S.3    96  MET96      -0.1393
     63  CE        24.0920    8.5750   12.7660 C.3    96  MET96       0.0692
     64  N         18.2530    6.1130   12.2390 N.am   97  ASP97      -0.1974
     65  CA        17.4650    4.8800   12.0500 C.3    97  ASP97       0.1709
     66  C         15.9580    5.1170   12.2600 C.2    97  ASP97       0.2293
     67  O         15.1360    4.2250   12.0070 O.2    97  ASP97      -0.2864
     68  CB        17.9820    3.7690   12.9670 C.3    97  ASP97       0.1436
     69  CG        19.4410    3.3620   12.6500 C.2    97  ASP97       0.3671
     70  OD1       20.0470    3.9320   11.7140 O.co2  97  ASP97      -0.2456
     71  OD2       19.9920    2.4680   13.3350 O.co2  97  ASP97      -0.2456
     72  N         14.2550    5.5670   14.9060 N.3    99  SER99      -0.1217
     73  CA        13.7550    4.7010   15.9630 C.3    99  SER99       0.1889
     74  C         12.7300    5.4160   16.8420 C.2    99  SER99       0.2288
     75  O         12.6960    6.6320   16.9130 O.2    99  SER99      -0.2866
     76  CB        14.9330    4.2030   16.7950 C.3    99  SER99       0.2089
     77  OG        16.0720    4.0610   15.9600 O.3    99  SER99      -0.2183
     78  N         14.0340    3.6500   23.1290 N.3   102  ARG102     -0.1245
     79  CA        15.3050    3.0910   23.5870 C.3   102  ARG102      0.1563
     80  C         15.2820    2.9750   25.0980 C.2   102  ARG102      0.2260
     81  O         14.8140    3.8610   25.8020 O.2   102  ARG102     -0.2867
     82  CB        16.4920    3.9480   23.1190 C.3   102  ARG102      0.0307
     83  CG        17.7410    3.9050   24.0050 C.3   102  ARG102      0.0489
     84  CD        18.8480    3.0580   23.4280 C.3   102  ARG102      0.2205
     85  NE        19.2510    3.5570   22.1150 N.pl3 102  ARG102     -0.0865
     86  CZ        19.7010    2.7920   21.1200 C.cat 102  ARG102      0.5346
     87  NH1       19.8160    1.4750   21.2820 N.pl3 102  ARG102      0.1354
     88  NH2       20.0370    3.3410   19.9550 N.pl3 102  ARG102      0.1354
     89  N         29.6080   13.9540   22.6280 N.3   127  LYS127     -0.1245
     90  CA        30.9470   13.5920   22.1950 C.3   127  LYS127      0.1561
     91  C         31.9590   14.5670   22.7570 C.2   127  LYS127      0.2260
     92  O         33.0230   14.1530   23.1810 O.2   127  LYS127     -0.2867
     93  CB        31.0700   13.5300   20.6840 C.3   127  LYS127      0.0271
     94  CG        32.3870   12.9130   20.2000 C.3   127  LYS127      0.0035
     95  CD        32.5840   13.2520   18.7330 C.3   127  LYS127      0.0206
     96  CE        32.9180   12.0570   17.9000 C.3   127  LYS127      0.1093
     97  NZ        31.7030   11.4570   17.3140 N.3   127  LYS127     -0.1314
     98  N         36.6720    6.2280   17.3040 N.3   155  ASP155     -0.1239
     99  CA        35.4810    7.0020   17.0350 C.3   155  ASP155      0.1674
    100  C         35.3380    7.2710   15.5470 C.2   155  ASP155      0.2266
    101  O         34.2310    7.2300   15.0030 O.2   155  ASP155     -0.2867
    102  CB        35.5350    8.3190   17.7790 C.3   155  ASP155      0.1410
    103  CG        34.3850    9.2460   17.3950 C.2   155  ASP155      0.3668
    104  OD1       33.2070    8.8030   17.5440 O.co2 155  ASP155     -0.2456
    105  OD2       34.6700   10.3890   16.9200 O.co2 155  ASP155     -0.2456
    106  N         34.3850    3.8780   14.0930 N.3   158  THR158     -0.1203
    107  CA        32.9340    3.7410   14.3260 C.3   158  THR158      0.1994
    108  C         32.1020    4.4990   13.2540 C.2   158  THR158      0.2617
    109  O         31.0270    4.0480   12.8370 O.2   158  THR158     -0.2717
    110  CB        32.4940    4.2210   15.7370 C.3   158  THR158      0.1784
    111  OG1       33.1670    3.4840   16.7820 O.3   158  THR158     -0.2211
    112  CG2       31.0160    4.0470   15.8950 C.3   158  THR158      0.0376
    113  N         32.5800    5.6710   12.8390 N.am  159  ALA159     -0.1979
    114  CA        31.8820    6.4570   11.8210 C.3   159  ALA159      0.1597
    115  C         32.0110    5.8440   10.4270 C.2   159  ALA159      0.2287
    116  O         31.0620    5.8360    9.6530 O.2   159  ALA159     -0.2864
    117  CB        32.4010    7.8860   11.7970 C.3   159  ALA159      0.0319
    118  N         29.6280    3.1320   10.2760 N.3   162  GLN162     -0.1245
    119  CA        28.3140    3.7080   10.0680 C.3   162  GLN162      0.1566
    120  C         28.0100    3.9660    8.6150 C.2   162  GLN162      0.2260
    121  O         26.9080    3.6870    8.1470 O.2   162  GLN162     -0.2867
    122  CB        28.2170    5.0290   10.7910 C.3   162  GLN162      0.0367
    123  CG        27.2830    4.9460   11.9470 C.3   162  GLN162      0.0905
    124  CD        25.9010    4.4820   11.5530 C.2   162  GLN162      0.2608
    125  OE1       25.3000    5.0380   10.6410 O.2   162  GLN162     -0.2717
    126  NE2       25.3920    3.4510   12.2340 N.am  162  GLN162     -0.0878
    127  N         27.1010    0.5060    7.2040 N.3   165  ASP165     -0.1239
    128  CA        25.7650    0.1460    7.5870 C.3   165  ASP165      0.1674
    129  C         24.7270    0.9570    6.8040 C.2   165  ASP165      0.2266
    130  O         23.8510    0.4160    6.1200 O.2   165  ASP165     -0.2867
    131  CB        25.5920    0.3900    9.0850 C.3   165  ASP165      0.1410
    132  CG        24.2320   -0.0260    9.5800 C.2   165  ASP165      0.3668
    133  OD1       23.2570    0.5800    9.1230 O.co2 165  ASP165     -0.2456
    134  OD2       24.1490   -0.9450   10.4210 O.co2 165  ASP165     -0.2456
    135  N         31.4160   -0.7140   12.9450 N.3   202  LYS202     -0.1231
    136  CA        30.3750    0.0270   13.6230 C.3   202  LYS202      0.1693
    137  C         30.2560   -0.3510   15.0990 C.2   202  LYS202      0.2592
    138  O         29.8030    0.4570   15.8770 O.2   202  LYS202     -0.2718
    139  CB        29.0210   -0.1260   12.9200 C.3   202  LYS202      0.0285
    140  CG        28.1590   -1.2690   13.4490 C.3   202  LYS202      0.0035
    141  CD        26.9660   -1.5660   12.5430 C.3   202  LYS202      0.0206
    142  CE        26.0070   -2.5860   13.1590 C.3   202  LYS202      0.1093
    143  NZ        24.6940   -2.6120   12.4460 N.3   202  LYS202     -0.1314
    144  N         30.6690   -1.5500   15.4830 N.am  203  THR203     -0.1953
    145  CA        30.3930   -2.0230   16.8340 C.3   203  THR203      0.1897
    146  C         31.5850   -2.5320   17.6410 C.2   203  THR203      0.2313
    147  O         31.7340   -2.1840   18.8120 O.2   203  THR203     -0.2863
    148  CB        29.2780   -3.1030   16.8280 C.3   203  THR203      0.1794
    149  OG1       28.0750   -2.5670   16.2540 O.3   203  THR203     -0.2208
    150  CG2       28.9560   -3.5190   18.2130 C.3   203  THR203      0.0378
    151  N         34.5300    0.1060   19.3080 N.3   206  TYR206     -0.1241
    152  CA        34.1570    0.9410   20.4680 C.3   206  TYR206      0.1605
    153  C         33.4370    0.1660   21.5490 C.2   206  TYR206      0.2264
    154  O         33.2700    0.6870   22.6590 O.2   206  TYR206     -0.2867
    155  CB        33.3490    2.1830   20.0910 C.3   206  TYR206      0.0534
    156  CG        31.8540    1.9990   20.0860 C.ar  206  TYR206     -0.0201
    157  CD1       31.1130    2.1660   21.2350 C.ar  206  TYR206     -0.0009
    158  CD2       31.1800    1.6730   18.9170 C.ar  206  TYR206     -0.0009
    159  CE1       29.7430    1.9880   21.2260 C.ar  206  TYR206      0.0417
    160  CE2       29.8080    1.4980   18.8890 C.ar  206  TYR206      0.0417
    161  CZ        29.0820    1.6430   20.0390 C.ar  206  TYR206      0.1957
    162  OH        27.7050    1.4680   19.9680 O.3   206  TYR206     -0.2866
    163  N         28.2260  -10.0370   19.3050 N.3   241  PHE241     -0.1227
    164  CA        27.3410   -9.2140   20.1310 C.3   241  PHE241      0.1736
    165  C         26.3830   -8.5150   19.1850 C.2   241  PHE241      0.2595
    166  O         25.2100   -8.3000   19.5110 O.2   241  PHE241     -0.2718
    167  CB        28.1480   -8.1810   20.8860 C.3   241  PHE241      0.0547
    168  CG        27.3320   -7.0780   21.4880 C.ar  241  PHE241     -0.0202
    169  CD1       26.9400   -5.9970   20.7190 C.ar  241  PHE241     -0.0042
    170  CD2       27.0110   -7.0940   22.8320 C.ar  241  PHE241     -0.0042
    171  CE1       26.2100   -4.9690   21.2760 C.ar  241  PHE241     -0.0003
    172  CE2       26.2800   -6.0720   23.4060 C.ar  241  PHE241     -0.0003
    173  CZ        25.8780   -5.0050   22.6280 C.ar  241  PHE241     -0.0000
    174  N         26.8770   -8.1430   18.0080 N.am  242  GLN242     -0.1979
    175  CA        26.0160   -7.4890   17.0550 C.3   242  GLN242      0.1601
    176  C         24.9770   -8.4360   16.5000 C.2   242  GLN242      0.2287
    177  O         23.8320   -8.0460   16.3080 O.2   242  GLN242     -0.2864
    178  CB        26.8250   -6.8900   15.9220 C.3   242  GLN242      0.0394
    179  CG        25.9980   -6.0710   14.9400 C.3   242  GLN242      0.0908
    180  CD        25.0300   -5.1060   15.6240 C.2   242  GLN242      0.2608
    181  OE1       25.4360   -4.2510   16.4130 O.2   242  GLN242     -0.2717
    182  NE2       23.7520   -5.2360   15.3170 N.am  242  GLN242     -0.0878
    183  N         22.2230   -8.8630   18.8870 N.3   245  ASP245     -0.1225
    184  CA        21.3040   -7.7390   18.7310 C.3   245  ASP245      0.1805
    185  C         20.4210   -7.9090   17.4760 C.2   245  ASP245      0.2597
    186  O         19.2180   -7.6160   17.5060 O.2   245  ASP245     -0.2718
    187  CB        22.0530   -6.3890   18.6800 C.3   245  ASP245      0.1424
    188  CG        21.0980   -5.1810   18.5680 C.2   245  ASP245      0.3668
    189  OD1       19.9610   -5.2640   19.0860 O.co2 245  ASP245     -0.2456
    190  OD2       21.4790   -4.1550   17.9550 O.co2 245  ASP245     -0.2456
    191  N         21.0000   -8.3840   16.3840 N.am  246  ASP246     -0.1974
    192  CA        20.2200   -8.5840   15.1640 C.3   246  ASP246      0.1709
    193  C         19.0970   -9.6110   15.3320 C.2   246  ASP246      0.2293
    194  O         17.9960   -9.4270   14.8210 O.2   246  ASP246     -0.2864
    195  CB        21.1200   -8.9700   14.0040 C.3   246  ASP246      0.1436
    196  CG        22.0350   -7.8560   13.6060 C.2   246  ASP246      0.3671
    197  OD1       21.6900   -6.6880   13.8460 O.co2 246  ASP246     -0.2456
    198  OD2       23.1070   -8.1340   13.0590 O.co2 246  ASP246     -0.2456
    199  N         16.5280   -8.0710   17.9230 N.3   249  ASP249     -0.1239
    200  CA        15.8420   -7.0020   17.1790 C.3   249  ASP249      0.1674
    201  C         14.6380   -7.5090   16.4090 C.2   249  ASP249      0.2266
    202  O         13.7290   -6.7460   16.1010 O.2   249  ASP249     -0.2867
    203  CB        16.8140   -6.3060   16.2160 C.3   249  ASP249      0.1410
    204  CG        16.2400   -5.0230   15.6150 C.2   249  ASP249      0.3668
    205  OD1       15.3760   -5.1230   14.6980 O.co2 249  ASP249     -0.2456
    206  OD2       16.6860   -3.9200   16.0360 O.co2 249  ASP249     -0.2456
    207  N         13.4550   -1.4390   23.4410 N.3   259  LYS259     -0.1245
    208  CA        13.4910   -0.7100   22.1590 C.3   259  LYS259      0.1561
    209  C         12.4970   -1.4220   21.2350 C.2   259  LYS259      0.2260
    210  O         11.9970   -2.4870   21.5890 O.2   259  LYS259     -0.2867
    211  CB        14.9260   -0.5240   21.6070 C.3   259  LYS259      0.0271
    212  CG        15.7720   -1.7750   21.4490 C.3   259  LYS259      0.0035
    213  CD        17.1880   -1.4200   21.0240 C.3   259  LYS259      0.0206
    214  CE        18.0710   -2.6520   21.0150 C.3   259  LYS259      0.1093
    215  NZ        19.3800   -2.3740   20.3730 N.3   259  LYS259     -0.1314
    216  N         13.8180   -1.9890   14.1780 N.3   262  THR262     -0.1203
    217  CA        13.5990   -1.2990   12.9260 C.3   262  THR262      0.1994
    218  C         14.3860   -1.9040   11.7460 C.2   262  THR262      0.2617
    219  O         14.3920   -1.3330   10.6550 O.2   262  THR262     -0.2717
    220  CB        13.9760    0.1860   13.1050 C.3   262  THR262      0.1784
    221  OG1       15.2460    0.2730   13.7600 O.3   262  THR262     -0.2211
    222  CG2       12.9110    0.9190   13.9470 C.3   262  THR262      0.0376
    223  N         15.0190   -3.0640   11.9520 N.am  263  ASP263     -0.1973
    224  CA        15.9100   -3.6720   10.9360 C.3   263  ASP263      0.1709
    225  C         15.1730   -4.1070    9.6750 C.2   263  ASP263      0.2293
    226  O         15.6800   -3.9610    8.5560 O.2   263  ASP263     -0.2864
    227  CB        16.6580   -4.8910   11.4880 C.3   263  ASP263      0.1436
    228  CG        17.6920   -4.5300   12.5300 C.2   263  ASP263      0.3671
    229  OD1       17.9960   -3.3320   12.6660 O.co2 263  ASP263     -0.2456
    230  OD2       18.2020   -5.4360   13.2200 O.co2 263  ASP263     -0.2456
    231  N         17.4800   -3.4450    6.5830 N.3   268  LYS268     -0.1245
    232  CA        18.8520   -3.4880    7.0590 C.3   268  LYS268      0.1561
    233  C         19.5410   -4.7830    6.6760 C.2   268  LYS268      0.2260
    234  O         18.9080   -5.8310    6.4500 O.2   268  LYS268     -0.2867
    235  CB        18.9420   -3.2630    8.5770 C.3   268  LYS268      0.0271
    236  CG        18.4940   -1.8800    9.0630 C.3   268  LYS268      0.0035
    237  CD        18.7740   -0.7060    8.1130 C.3   268  LYS268      0.0206
    238  CE        20.1890   -0.1670    8.1080 C.3   268  LYS268      0.1093
    239  NZ        20.6670    0.1730    9.4790 N.3   268  LYS268     -0.1314
@<TRIPOS>BOND
     1   130   129    2
     2   234   233    2
     3   231   232    1
     4   233   232    1
     5   129   128    1
     6   232   235    1
     7   127   128    1
     8   128   131    1
     9   238   237    1
    10   238   239    1
    11   237   236    1
    12   121   120    2
    13   226   225    2
    14   235   236    1
    15   120   119    1
    16   131   132    1
    17   133   132   ar
    18   132   134   ar
    19   116   115    2
    20   225   224    1
    21   119   118    1
    22   119   122    1
    23    59    58    2
    24   115   114    1
    25   125   124    2
    26   219   218    2
    27   122   123    1
    28   224   227    1
    29   224   223    1
    30    62    61    1
    31    62    63    1
    32    58    57    1
    33    58    64   am
    34    61    60    1
    35    60    57    1
    36   227   228    1
    37   124   123    1
    38   124   126   am
    39    57    56    1
    40    70    69   ar
    41   218   223   am
    42   218   217    1
    43   117   114    1
    44   114   113    1
    45    67    66    2
    46    65    64    1
    47    65    66    1
    48    65    68    1
    49   143   142    1
    50   228   229   ar
    51   228   230   ar
    52   141   142    1
    53   141   140    1
    54    69    68    1
    55    69    71   ar
    56   109   108    2
    57   113   108   am
    58   139   140    1
    59   139   136    1
    60   217   220    1
    61   217   216    1
    62   135   136    1
    63   198   196   ar
    64   220   221    1
    65   220   222    1
    66   108   107    1
    67   196   197   ar
    68   196   195    1
    69   136   137    1
    70   195   192    1
    71   106   107    1
    72    46    45   ar
    73   107   110    1
    74    43    42    2
    75   205   204   ar
    76    34    33    2
    77   194   193    2
    78    72    73    1
    79   179   180    1
    80   179   178    1
    81   101   100    2
    82    51    50    2
    83   137   144   am
    84   137   138    2
    85   192   193    1
    86   192   191    1
    87   182   180   am
    88    45    47   ar
    89    45    44    1
    90   144   145    1
    91    42    41    1
    92    42    48   am
    93    41    44    1
    94    41    40    1
    95   100    99    1
    96   204   206   ar
    97   204   203    1
    98   180   181    2
    99    50    49    1
   100   110   112    1
   101   110   111    1
   102    33    40   am
   103    33    32    1
   104    38    37   ar
   105   178   175    1
   106    77    76    1
   107    73    76    1
   108    73    74    1
   109   202   201    2
   110    35    32    1
   111    35    36    1
   112   203   200    1
   113   149   148    1
   114   177   176    2
   115   191   185   am
   116   201   200    1
   117   176   175    1
   118    32    31    1
   119    48    49    1
   120    37    36    1
   121    37    39   ar
   122    49    52    1
   123   148   145    1
   124   148   150    1
   125   145   146    1
   126    74    75    2
   127   105   103   ar
   128    99    98    1
   129    99   102    1
   130   175   174    1
   131   200   199    1
   132    97    96    1
   133   103   104   ar
   134   103   102    1
   135   185   186    2
   136   185   184    1
   137   146   147    2
   138    96    95    1
   139    19    17   ar
   140    19    21   ar
   141   190   188   ar
   142   174   165   am
   143    14    13    2
   144    10     9   ar
   145    10     8   ar
   146    52    53    1
   147    17    16   ar
   148     9     7   ar
   149    22    21    1
   150    54    53   ar
   151    21    20   ar
   152   188   187    1
   153   188   189   ar
   154   187   184    1
   155   184   183    1
   156    95    94    1
   157   160   158   ar
   158   160   161   ar
   159   158   156   ar
   160    16    15    1
   161    16    18   ar
   162    53    55   ar
   163    13    12    1
   164    13    23   am
   165    12    15    1
   166    12    11    1
   167    26    25    2
   168   165   166    2
   169   165   164    1
   170     8     6   ar
   171   163   164    1
   172   151   152    1
   173    20    18   ar
   174     7     6   ar
   175     4     3    2
   176    25    24    1
   177    88    86    1
   178   162   161    1
   179   161   159   ar
   180     6     5    1
   181   156   155    1
   182   156   157   ar
   183   155   152    1
   184   164   167    1
   185    11     3   am
   186    94    93    1
   187    23    24    1
   188    24    27    1
   189   215   214    1
   190     3     2    1
   191   152   153    1
   192    30    28    1
   193    93    90    1
   194   169   171   ar
   195   169   168   ar
   196   167   168    1
   197   214   213    1
   198   213   212    1
   199    86    87    1
   200    86    85    2
   201   159   157   ar
   202   209   210    2
   203   209   208    1
   204   171   173   ar
   205   212   211    1
   206     5     2    1
   207   168   170   ar
   208   153   154    2
   209    27    28    1
   210   211   208    1
   211     2     1    1
   212    28    29    1
   213    85    84    1
   214   208   207    1
   215    90    89    1
   216    90    91    1
   217   173   172   ar
   218    91    92    2
   219   170   172   ar
   220    82    79    1
   221    82    83    1
   222    78    79    1
   223    84    83    1
   224    79    80    1
   225    80    81    2
