@<TRIPOS>MOLECULE
tmp/5ag4A01.pdb
 144 138 0 0 0
SMALL
GASTEIGER

@<TRIPOS>ATOM
      1  N         28.4410   -3.8260   15.0840 N.3    71  VAL71      -0.1231
      2  CA        29.2190   -2.7300   14.5250 C.3    71  VAL71       0.1692
      3  C         29.7310   -1.7030   15.5620 C.2    71  VAL71       0.2592
      4  O         28.9860   -1.2090   16.3850 O.2    71  VAL71      -0.2718
      5  CB        28.4000   -1.9660   13.4330 C.3    71  VAL71       0.0266
      6  CG1       29.1990   -0.7450   12.9160 C.3    71  VAL71       0.0020
      7  CG2       28.0080   -2.9090   12.2090 C.3    71  VAL71       0.0020
      8  N         31.0150   -1.4070   15.4950 N.am   72  GLU72      -0.1966
      9  CA        31.6380   -0.4130   16.3730 C.3    72  GLU72       0.1733
     10  C         32.0980    0.7180   15.4970 C.2    72  GLU72       0.2616
     11  O         32.2320    0.5210   14.2930 O.2    72  GLU72      -0.2715
     12  CB        32.8780   -1.0210   17.0600 C.3    72  GLU72       0.0429
     13  CG        32.5480   -2.2020   17.8540 C.3    72  GLU72       0.1163
     14  CD        33.7520   -2.7160   18.6300 C.2    72  GLU72       0.3649
     15  OE1       34.8290   -2.1180   18.5280 O.co2  72  GLU72      -0.2457
     16  OE2       33.5870   -3.6920   19.3570 O.co2  72  GLU72      -0.2457
     17  N         32.3600    1.8850   16.0690 N.am   73  ASP73      -0.1971
     18  CA        33.0390    2.9470   15.3060 C.3    73  ASP73       0.1709
     19  C         34.4810    2.5340   15.0870 C.2    73  ASP73       0.2293
     20  O         34.9100    1.5360   15.5860 O.2    73  ASP73      -0.2864
     21  CB        33.0470    4.2470   16.1120 C.3    73  ASP73       0.1436
     22  CG        33.8130    4.0950   17.3810 C.2    73  ASP73       0.3671
     23  OD1       33.4960    3.1330   18.1470 O.co2  73  ASP73      -0.2456
     24  OD2       34.7310    4.9120   17.6120 O.co2  73  ASP73      -0.2456
     25  N         32.3170    3.1350   20.6280 N.3    78  PHE78      -0.1227
     26  CA        30.8990    2.9050   20.6180 C.3    78  PHE78       0.1736
     27  C         30.5630    1.6450   19.8420 C.2    78  PHE78       0.2598
     28  O         31.2990    1.2710   18.9030 O.2    78  PHE78      -0.2717
     29  CB        30.1510    4.0870   19.9670 C.3    78  PHE78       0.0547
     30  CG        30.5900    5.4490   20.4490 C.ar   78  PHE78      -0.0202
     31  CD1       30.2520    5.9020   21.7030 C.ar   78  PHE78      -0.0042
     32  CD2       31.2950    6.2910   19.5940 C.ar   78  PHE78      -0.0042
     33  CE1       30.6240    7.1830   22.1120 C.ar   78  PHE78      -0.0003
     34  CE2       31.6740    7.5710   19.9960 C.ar   78  PHE78      -0.0003
     35  CZ        31.3650    8.0040   21.2460 C.ar   78  PHE78      -0.0000
     36  N         29.4590    0.9940   20.2330 N.am   79  ARG79      -0.1920
     37  CA        29.0150   -0.2520   19.5380 C.3    79  ARG79       0.1945
     38  C         27.4710   -0.2190   19.6270 C.2    79  ARG79       0.2658
     39  O         26.9320    0.1410   20.6650 O.2    79  ARG79      -0.2711
     40  CB        29.5440   -1.5300   20.1860 C.2    79  ARG79       0.0033
     41  CG        29.1310   -2.9430   19.5040 C.2    79  ARG79       0.0179
     42  CD        29.5980   -4.2030   20.2210 C.3    79  ARG79       0.2464
     43  NE        30.9420   -4.0640   20.6560 N.pl3  79  ARG79      -0.0815
     44  CZ        31.4080   -3.9830   21.9090 C.cat  79  ARG79       0.5349
     45  NH1       30.6850   -4.1520   23.0050 N.pl3  79  ARG79       0.1354
     46  NH2       32.6930   -3.7440   22.0180 N.pl3  79  ARG79       0.1354
     47  N         26.7690   -0.5670   18.5460 N.am   80  PHE80      -0.1971
     48  CA        25.3150   -0.4960   18.6240 C.3    80  PHE80       0.1640
     49  C         24.8880   -1.5060   19.6770 C.2    80  PHE80       0.2290
     50  O         25.5360   -2.5810   19.8150 O.2    80  PHE80      -0.2864
     51  CB        24.6300   -0.8730   17.3070 C.3    80  PHE80       0.0560
     52  CG        24.8320    0.1090   16.2040 C.ar   80  PHE80      -0.0200
     53  CD1       24.2310    1.3790   16.2430 C.ar   80  PHE80      -0.0042
     54  CD2       25.5270   -0.2640   15.0560 C.ar   80  PHE80      -0.0042
     55  CE1       24.4200    2.2970   15.1790 C.ar   80  PHE80      -0.0003
     56  CE2       25.7160    0.6960   13.9570 C.ar   80  PHE80      -0.0003
     57  CZ        25.1450    1.9290   14.0240 C.ar   80  PHE80      -0.0000
     58  N         26.4090   10.1440    6.7350 N.3   207  TYR207     -0.1241
     59  CA        25.6280   10.3660    7.9260 C.3   207  TYR207      0.1605
     60  C         25.6500   11.8220    8.3820 C.2   207  TYR207      0.2264
     61  O         26.6590   12.5170    8.2280 O.2   207  TYR207     -0.2867
     62  CB        26.2200    9.5310    9.0740 C.3   207  TYR207      0.0534
     63  CG        25.8070    8.1070    8.9530 C.ar  207  TYR207     -0.0201
     64  CD1       24.5980    7.6960    9.4920 C.ar  207  TYR207     -0.0009
     65  CD2       26.6310    7.1690    8.3920 C.ar  207  TYR207     -0.0009
     66  CE1       24.1910    6.4240    9.4220 C.ar  207  TYR207      0.0417
     67  CE2       26.2050    5.7930    8.3290 C.ar  207  TYR207      0.0417
     68  CZ        24.9790    5.4860    8.8840 C.ar  207  TYR207      0.1957
     69  OH        24.4390    4.2360    8.8720 O.3   207  TYR207     -0.2866
     70  N         24.3830   14.1370   12.0830 N.3   209  HIS209     -0.1241
     71  CA        24.0230   14.0310   13.4900 C.3   209  HIS209      0.1621
     72  C         23.5260   15.4190   13.9200 C.2   209  HIS209      0.2264
     73  O         24.0800   16.4360   13.5060 O.2   209  HIS209     -0.2867
     74  CB        25.3100   13.7440   14.2670 C.3   209  HIS209      0.0745
     75  CG        26.0460   12.5360   13.7340 C.ar  209  HIS209      0.0817
     76  ND1       25.5100   11.2570   13.7760 N.ar  209  HIS209     -0.2268
     77  CD2       27.2290   12.4250   13.0710 C.ar  209  HIS209      0.1154
     78  CE1       26.3330   10.4090   13.1810 C.ar  209  HIS209      0.1986
     79  NE2       27.3800   11.0960   12.7370 N.ar  209  HIS209     -0.2212
     80  N         31.6900   11.7220   21.8650 N.3   222  PHE222     -0.1241
     81  CA        31.0470   11.6890   20.5430 C.3   222  PHE222      0.1605
     82  C         31.2920   13.0120   19.8050 C.2   222  PHE222      0.2264
     83  O         31.5570   13.0210   18.6200 O.2   222  PHE222     -0.2867
     84  CB        29.5540   11.4540   20.6730 C.3   222  PHE222      0.0534
     85  CG        28.8560   11.3190   19.3500 C.ar  222  PHE222     -0.0203
     86  CD1       28.9020   10.1140   18.6370 C.ar  222  PHE222     -0.0042
     87  CD2       28.1830   12.4030   18.8000 C.ar  222  PHE222     -0.0042
     88  CE1       28.2550    9.9950   17.4090 C.ar  222  PHE222     -0.0003
     89  CE2       27.5230   12.2910   17.5870 C.ar  222  PHE222     -0.0003
     90  CZ        27.5450   11.0940   16.8910 C.ar  222  PHE222     -0.0000
     91  N         23.6280    3.1990   21.7760 N.3   320  SER320     -0.1217
     92  CA        24.9410    2.7010   21.5550 C.3   320  SER320      0.1889
     93  C         25.5880    2.5440   22.9110 C.2   320  SER320      0.2288
     94  O         25.4630    3.4590   23.7640 O.2   320  SER320     -0.2866
     95  CB        25.7200    3.7210   20.7480 C.3   320  SER320      0.2089
     96  OG        25.5020    3.4580   19.3650 O.3   320  SER320     -0.2183
     97  N         24.5180    5.7240   24.9060 N.3   331  LEU331     -0.1245
     98  CA        24.1900    6.9520   24.2590 C.3   331  LEU331      0.1561
     99  C         22.8700    6.6240   23.5430 C.2   331  LEU331      0.2260
    100  O         22.7970    5.6260   22.8620 O.2   331  LEU331     -0.2867
    101  CB        25.3420    7.2540   23.3180 C.3   331  LEU331      0.0270
    102  CG        25.4620    8.1580   22.0940 C.3   331  LEU331      0.0019
    103  CD1       24.5570    9.3350   21.9590 C.3   331  LEU331      0.0001
    104  CD2       26.9640    8.5070   21.9750 C.3   331  LEU331      0.0001
    105  N         20.2710    7.2860   20.7940 N.3   333  ALA333     -0.1245
    106  CA        20.1910    7.9910   19.4600 C.3   333  ALA333      0.1562
    107  C         18.8140    7.6630   18.8480 C.2   333  ALA333      0.2260
    108  O         18.3520    6.5490   18.9270 O.2   333  ALA333     -0.2867
    109  CB        21.3400    7.4920   18.5370 C.3   333  ALA333      0.0290
    110  N         16.8700    7.8590   15.1550 N.3   335  TYR335     -0.1241
    111  CA        17.2320    7.8200   13.7410 C.3   335  TYR335      0.1605
    112  C         15.9980    8.2270   13.0000 C.2   335  TYR335      0.2264
    113  O         14.8930    7.6830   13.2610 O.2   335  TYR335     -0.2867
    114  CB        17.5910    6.3580   13.3850 C.3   335  TYR335      0.0534
    115  CG        18.8980    5.9910   13.9430 C.ar  335  TYR335     -0.0201
    116  CD1       19.0210    5.6290   15.2560 C.ar  335  TYR335     -0.0009
    117  CD2       20.0360    5.9880   13.1400 C.ar  335  TYR335     -0.0009
    118  CE1       20.2640    5.3430   15.8690 C.ar  335  TYR335      0.0417
    119  CE2       21.3130    5.6470   13.7390 C.ar  335  TYR335      0.0417
    120  CZ        21.3930    5.3450   15.0870 C.ar  335  TYR335      0.1957
    121  OH        22.5910    5.0670   15.7070 O.3   335  TYR335     -0.2866
    122  N         21.0410   12.4550   20.6080 N.3   364  VAL364     -0.1245
    123  CA        21.4190   12.8790   19.2570 C.3   364  VAL364      0.1561
    124  C         20.3290   12.3260   18.3160 C.2   364  VAL364      0.2260
    125  O         19.6500   11.2730   18.5920 O.2   364  VAL364     -0.2867
    126  CB        22.8620   12.3420   18.9170 C.3   364  VAL364      0.0252
    127  CG1       22.8400   10.8040   18.8570 C.3   364  VAL364      0.0019
    128  CG2       23.3950   12.9270   17.5980 C.3   364  VAL364      0.0019
    129  N         20.0540   11.1560   14.2750 N.3   366  ASN366     -0.1240
    130  CA        20.9730   10.7550   13.2040 C.3   366  ASN366      0.1653
    131  C         20.1720   10.5070   11.9390 C.2   366  ASN366      0.2266
    132  O         19.0140   10.0720   11.9780 O.2   366  ASN366     -0.2867
    133  CB        21.5800    9.3920   13.5720 C.3   366  ASN366      0.1155
    134  CG        22.5540    9.4860   14.6830 C.2   366  ASN366      0.2627
    135  OD1       23.1390   10.5630   14.9120 O.2   366  ASN366     -0.2716
    136  ND2       22.8110    8.3340   15.3730 N.am  366  ASN366     -0.0877
    137  N         31.1690   10.9960   10.5350 N.3   386  ASP386     -0.1239
    138  CA        32.1700   10.1220    9.9360 C.3   386  ASP386      0.1674
    139  C         31.5930    9.0870    8.9960 C.2   386  ASP386      0.2266
    140  O         30.5020    8.6140    9.1760 O.2   386  ASP386     -0.2867
    141  CB        32.9260    9.3770   11.0370 C.3   386  ASP386      0.1410
    142  CG        33.9030   10.2660   11.7310 C.2   386  ASP386      0.3668
    143  OD1       34.6370   10.9760   10.9830 O.co2 386  ASP386     -0.2456
    144  OD2       33.9180   10.2820   12.9980 O.co2 386  ASP386     -0.2456
@<TRIPOS>BOND
     1    58    59    1
     2    59    60    1
     3    59    62    1
     4    61    60    2
     5    67    65   ar
     6    67    68   ar
     7    65    63   ar
     8    69    68    1
     9    68    66   ar
    10    63    62    1
    11    63    64   ar
    12   139   140    2
    13   139   138    1
    14    66    64   ar
    15   138   137    1
    16   138   141    1
    17   143   142   ar
    18   141   142    1
    19   142   144   ar
    20   131   132    2
    21   131   130    1
    22    70    71    1
    23     7     5    1
    24    79    77   ar
    25    79    78   ar
    26     6     5    1
    27   112   113    2
    28   112   111    1
    29    77    75   ar
    30   117   119   ar
    31   117   115   ar
    32    78    76   ar
    33   130   133    1
    34   130   129    1
    35   114   111    1
    36   114   115    1
    37     5     2    1
    38    71    72    1
    39    71    74    1
    40    73    72    2
    41   133   134    1
    42    75    76   ar
    43    75    74    1
    44   119   120   ar
    45   111   110    1
    46   115   116   ar
    47    56    57   ar
    48    56    54   ar
    49    57    55   ar
    50    11    10    2
    51     2     1    1
    52     2     3    1
    53   134   135    2
    54   134   136   am
    55    54    52   ar
    56    19    18    1
    57    19    20    2
    58   120   121    1
    59   120   118   ar
    60    55    53   ar
    61   116   118   ar
    62    18    17    1
    63    18    21    1
    64     8     3   am
    65     8     9    1
    66    10    17   am
    67    10     9    1
    68     3     4    2
    69    21    22    1
    70    52    53   ar
    71    52    51    1
    72     9    12    1
    73    90    88   ar
    74    90    89   ar
    75    12    13    1
    76    51    48    1
    77    22    24   ar
    78    22    23   ar
    79    88    86   ar
    80    89    87   ar
    81   128   126    1
    82    13    14    1
    83   124   125    2
    84   124   123    1
    85    15    14   ar
    86   109   106    1
    87    47    48    1
    88    47    38   am
    89    83    82    2
    90    48    49    1
    91    14    16   ar
    92    86    85   ar
    93    87    85   ar
    94   107   108    2
    95   107   106    1
    96   127   126    1
    97    28    27    2
    98   126   123    1
    99   123   122    1
   100    85    84    1
   101    96    95    1
   102   106   105    1
   103    41    40    2
   104    41    42    1
   105    37    38    1
   106    37    40    1
   107    37    36    1
   108    32    34   ar
   109    32    30   ar
   110    38    39    2
   111    49    50    2
   112    82    81    1
   113    27    36   am
   114    27    26    1
   115    29    30    1
   116    29    26    1
   117    34    35   ar
   118    42    43    1
   119    30    31   ar
   120    81    84    1
   121    81    80    1
   122    26    25    1
   123    43    44    2
   124    95    92    1
   125    35    33   ar
   126    92    91    1
   127    92    93    1
   128    31    33   ar
   129    44    46    1
   130    44    45    1
   131   103   102    1
   132   104   102    1
   133   102   101    1
   134   100    99    2
   135    93    94    2
   136   101    98    1
   137    99    98    1
   138    98    97    1
