@<TRIPOS>MOLECULE
tmp/5ag5A00.pdb
 152 146 0 0 0
SMALL
GASTEIGER

@<TRIPOS>ATOM
      1  N         28.1490   -3.9480   14.9540 N.3    71  VAL71      -0.1231
      2  CA        28.9420   -2.8680   14.3050 C.3    71  VAL71       0.1692
      3  C         29.4490   -1.8610   15.3610 C.2    71  VAL71       0.2592
      4  O         28.6870   -1.3990   16.2040 O.2    71  VAL71      -0.2718
      5  CB        28.0910   -2.0720   13.2760 C.3    71  VAL71       0.0266
      6  CG1       28.8940   -0.9530   12.6600 C.3    71  VAL71       0.0020
      7  CG2       27.5970   -2.9870   12.1070 C.3    71  VAL71       0.0020
      8  N         30.7350   -1.5390   15.2840 N.am   72  GLU72      -0.1966
      9  CA        31.3270   -0.4510   16.0980 C.3    72  GLU72       0.1733
     10  C         31.7170    0.7060   15.1730 C.2    72  GLU72       0.2616
     11  O         31.8090    0.5310   13.9340 O.2    72  GLU72      -0.2715
     12  CB        32.6170   -0.9980   16.7380 C.3    72  GLU72       0.0429
     13  CG        32.2800   -2.1340   17.6350 C.3    72  GLU72       0.1163
     14  CD        33.5050   -2.7230   18.3500 C.2    72  GLU72       0.3649
     15  OE1       34.6230   -2.1920   18.2130 O.co2  72  GLU72      -0.2457
     16  OE2       33.3070   -3.7030   19.0750 O.co2  72  GLU72      -0.2457
     17  N         31.9470    1.8670   15.7450 N.am   73  ASP73      -0.1971
     18  CA        32.5820    2.9600   14.9820 C.3    73  ASP73       0.1709
     19  C         34.0570    2.6140   14.6870 C.2    73  ASP73       0.2293
     20  O         34.5870    1.6120   15.1640 O.2    73  ASP73      -0.2864
     21  CB        32.4670    4.2860   15.7520 C.3    73  ASP73       0.1436
     22  CG        33.3260    4.2950   16.9570 C.2    73  ASP73       0.3671
     23  OD1       33.1720    3.3570   17.7610 O.co2  73  ASP73      -0.2456
     24  OD2       34.2280    5.1440   17.0830 O.co2  73  ASP73      -0.2456
     25  N         31.9320    3.2210   20.2440 N.3    78  PHE78      -0.1227
     26  CA        30.5130    2.8590   20.3090 C.3    78  PHE78       0.1736
     27  C         30.2520    1.5950   19.5750 C.2    78  PHE78       0.2595
     28  O         30.9130    1.3330   18.5430 O.2    78  PHE78      -0.2718
     29  CB        29.6680    3.9750   19.6700 C.3    78  PHE78       0.0547
     30  CG        30.0720    5.3790   20.1500 C.ar   78  PHE78      -0.0202
     31  CD1       29.6960    5.8140   21.4080 C.ar   78  PHE78      -0.0042
     32  CD2       30.8670    6.1990   19.3320 C.ar   78  PHE78      -0.0042
     33  CE1       30.0750    7.0840   21.8510 C.ar   78  PHE78      -0.0003
     34  CE2       31.2660    7.4320   19.7260 C.ar   78  PHE78      -0.0003
     35  CZ        30.8910    7.8870   21.0100 C.ar   78  PHE78      -0.0000
     36  N         29.2620    0.8520   20.0720 N.am   79  ARG79      -0.1966
     37  CA        28.7770   -0.3490   19.4010 C.3    79  ARG79       0.1729
     38  C         27.2440   -0.3520   19.5090 C.2    79  ARG79       0.2616
     39  O         26.6730   -0.0900   20.5890 O.2    79  ARG79      -0.2715
     40  CB        29.3330   -1.6290   20.0560 C.3    79  ARG79       0.0348
     41  CG        28.9200   -2.9510   19.3300 C.3    79  ARG79       0.0492
     42  CD        29.3190   -4.2590   20.1300 C.3    79  ARG79       0.2205
     43  NE        30.6520   -4.1290   20.5850 N.pl3  79  ARG79      -0.0865
     44  CZ        31.1560   -3.9930   21.8200 C.cat  79  ARG79       0.5346
     45  NH1       30.5200   -4.1690   22.9680 N.pl3  79  ARG79       0.1354
     46  NH2       32.4480   -3.7760   21.8430 N.pl3  79  ARG79       0.1354
     47  N         26.5710   -0.6980   18.4000 N.am   80  PHE80      -0.1974
     48  CA        25.1200   -0.6520   18.4290 C.3    80  PHE80       0.1639
     49  C         24.6250   -1.6090   19.5060 C.2    80  PHE80       0.2290
     50  O         25.2100   -2.6910   19.7210 O.2    80  PHE80      -0.2864
     51  CB        24.4810   -1.0980   17.0760 C.3    80  PHE80       0.0560
     52  CG        24.5930   -0.0770   15.9550 C.ar   80  PHE80      -0.0200
     53  CD1       23.8040    1.0430   15.9380 C.ar   80  PHE80      -0.0042
     54  CD2       25.3750   -0.3420   14.8220 C.ar   80  PHE80      -0.0042
     55  CE1       23.8410    1.9760   14.8190 C.ar   80  PHE80      -0.0003
     56  CE2       25.4630    0.5840   13.7330 C.ar   80  PHE80      -0.0003
     57  CZ        24.6720    1.7530   13.7440 C.ar   80  PHE80      -0.0000
     58  N         26.5410   10.2030    6.5390 N.3   207  TYR207     -0.1241
     59  CA        25.7330   10.3980    7.7290 C.3   207  TYR207      0.1605
     60  C         25.6840   11.8400    8.2060 C.2   207  TYR207      0.2264
     61  O         26.6700   12.5660    8.0560 O.2   207  TYR207     -0.2867
     62  CB        26.3260    9.5890    8.8710 C.3   207  TYR207      0.0534
     63  CG        26.4130    8.1050    8.6170 C.ar  207  TYR207     -0.0201
     64  CD1       25.3490    7.2340    8.7990 C.ar  207  TYR207     -0.0009
     65  CD2       27.6390    7.5850    8.3040 C.ar  207  TYR207     -0.0009
     66  CE1       25.5630    5.7710    8.5570 C.ar  207  TYR207      0.0417
     67  CE2       27.8580    6.2540    8.1050 C.ar  207  TYR207      0.0417
     68  CZ        26.8420    5.3500    8.1950 C.ar  207  TYR207      0.1957
     69  OH        27.3250    4.0540    7.9210 O.3   207  TYR207     -0.2866
     70  N         24.2660   14.0490   11.9340 N.3   209  HIS209     -0.1241
     71  CA        23.8650   13.9610   13.3600 C.3   209  HIS209      0.1621
     72  C         23.3660   15.3210   13.8120 C.2   209  HIS209      0.2264
     73  O         23.8810   16.3480   13.3500 O.2   209  HIS209     -0.2867
     74  CB        25.1000   13.6660   14.2110 C.3   209  HIS209      0.0745
     75  CG        25.9790   12.6100   13.5940 C.ar  209  HIS209      0.0817
     76  ND1       25.6450   11.2670   13.5830 N.ar  209  HIS209     -0.2268
     77  CD2       27.1420   12.7100   12.9060 C.ar  209  HIS209      0.1154
     78  CE1       26.5760   10.5780   12.9420 C.ar  209  HIS209      0.1986
     79  NE2       27.4960   11.4340   12.5180 N.ar  209  HIS209     -0.2212
     80  N         31.7990   11.8450   21.4600 N.3   222  PHE222     -0.1241
     81  CA        31.1740   11.8100   20.1540 C.3   222  PHE222      0.1605
     82  C         31.3710   13.1620   19.4370 C.2   222  PHE222      0.2264
     83  O         31.6170   13.2270   18.2300 O.2   222  PHE222     -0.2867
     84  CB        29.6920   11.4430   20.2900 C.3   222  PHE222      0.0534
     85  CG        28.9780   11.4960   18.9980 C.ar  222  PHE222     -0.0203
     86  CD1       29.1280   10.4580   18.0590 C.ar  222  PHE222     -0.0042
     87  CD2       28.2570   12.6330   18.6440 C.ar  222  PHE222     -0.0042
     88  CE1       28.4990   10.5620   16.7990 C.ar  222  PHE222     -0.0003
     89  CE2       27.6200   12.7290   17.4130 C.ar  222  PHE222     -0.0003
     90  CZ        27.7270   11.7170   16.4980 C.ar  222  PHE222     -0.0000
     91  N         23.3760    2.8010   21.6690 N.3   320  SER320     -0.1217
     92  CA        24.7270    2.2860   21.4670 C.3   320  SER320      0.1889
     93  C         25.4430    2.1530   22.8070 C.2   320  SER320      0.2288
     94  O         25.3760    3.0730   23.6330 O.2   320  SER320     -0.2866
     95  CB        25.5420    3.2450   20.5700 C.3   320  SER320      0.2089
     96  OG        25.0420    3.1040   19.2130 O.3   320  SER320     -0.2183
     97  N         24.3180    5.4000   24.7700 N.3   331  LEU331     -0.1245
     98  CA        23.9760    6.5900   24.0400 C.3   331  LEU331      0.1561
     99  C         22.5650    6.3470   23.4990 C.2   331  LEU331      0.2260
    100  O         22.3290    5.2830   22.9420 O.2   331  LEU331     -0.2867
    101  CB        24.9530    6.7870   22.8760 C.3   331  LEU331      0.0270
    102  CG        24.5670    7.8520   21.8050 C.3   331  LEU331      0.0019
    103  CD1       24.4860    9.2280   22.3840 C.3   331  LEU331      0.0001
    104  CD2       25.6310    7.8780   20.8110 C.3   331  LEU331      0.0001
    105  N         20.0880    6.9850   20.7620 N.3   333  ALA333     -0.1245
    106  CA        20.0030    7.7210   19.4700 C.3   333  ALA333      0.1562
    107  C         18.6750    7.4760   18.7940 C.2   333  ALA333      0.2260
    108  O         18.1630    6.3410   18.8060 O.2   333  ALA333     -0.2867
    109  CB        21.1620    7.2790   18.5680 C.3   333  ALA333      0.0290
    110  N         16.8750    7.8230   14.9580 N.3   335  TYR335     -0.1241
    111  CA        17.2510    7.7980   13.5270 C.3   335  TYR335      0.1605
    112  C         16.0220    8.2180   12.7680 C.2   335  TYR335      0.2264
    113  O         14.9380    7.6400   12.9350 O.2   335  TYR335     -0.2867
    114  CB        17.5740    6.3190   13.1210 C.3   335  TYR335      0.0534
    115  CG        18.9080    5.9560   13.7170 C.ar  335  TYR335     -0.0201
    116  CD1       19.0110    5.6410   15.0660 C.ar  335  TYR335     -0.0009
    117  CD2       20.0640    5.9910   12.9630 C.ar  335  TYR335     -0.0009
    118  CE1       20.2780    5.3600   15.6790 C.ar  335  TYR335      0.0417
    119  CE2       21.3480    5.7220   13.5650 C.ar  335  TYR335      0.0417
    120  CZ        21.4090    5.3660   14.9150 C.ar  335  TYR335      0.1957
    121  OH        22.6250    5.1330   15.5500 O.3   335  TYR335     -0.2866
    122  N         20.8050   12.2770   20.5490 N.3   364  VAL364     -0.1245
    123  CA        21.2510   12.6980   19.2240 C.3   364  VAL364      0.1561
    124  C         20.2000   12.1260   18.2280 C.2   364  VAL364      0.2260
    125  O         19.5910   11.0680   18.4540 O.2   364  VAL364     -0.2867
    126  CB        22.6990   12.2210   18.9470 C.3   364  VAL364      0.0252
    127  CG1       22.7180   10.6550   18.8760 C.3   364  VAL364      0.0019
    128  CG2       23.3260   12.8290   17.6250 C.3   364  VAL364      0.0019
    129  N         20.0430   10.9560   14.2400 N.3   366  ASN366     -0.1240
    130  CA        20.9400   10.5990   13.1420 C.3   366  ASN366      0.1653
    131  C         20.1180   10.3590   11.8810 C.2   366  ASN366      0.2266
    132  O         18.9540    9.9400   11.9830 O.2   366  ASN366     -0.2867
    133  CB        21.6320    9.2640   13.4760 C.3   366  ASN366      0.1155
    134  CG        22.5750    9.3730   14.6550 C.2   366  ASN366      0.2627
    135  OD1       23.2590   10.3830   14.7780 O.2   366  ASN366     -0.2716
    136  ND2       22.6710    8.2940   15.5130 N.am  366  ASN366     -0.0877
    137  N         28.6890   13.4880    9.4400 N.3   385  GLY385     -0.1210
    138  CA        29.4760   12.6610   10.3670 C.3   385  GLY385      0.1956
    139  C         30.6580   12.0410    9.6350 C.2   385  GLY385      0.2612
    140  O         30.9560   12.4090    8.5190 O.2   385  GLY385     -0.2717
    141  N         31.2320   10.9950   10.2100 N.am  386  ASP386     -0.1959
    142  CA        32.3420   10.2770    9.5850 C.3   386  ASP386      0.1840
    143  C         32.0030    9.2450    8.5480 C.2   386  ASP386      0.2622
    144  O         32.7280    9.0760    7.5690 O.2   386  ASP386     -0.2715
    145  CB        33.1320    9.5920   10.6710 C.3   386  ASP386      0.1450
    146  CG        33.8140   10.5900   11.5620 C.2   386  ASP386      0.3671
    147  OD1       34.2900   11.6190   11.0130 O.co2 386  ASP386     -0.2456
    148  OD2       33.8200   10.3650   12.7880 O.co2 386  ASP386     -0.2456
    149  N         30.9910    8.4550    8.7980 N.am  387  GLY387     -0.1954
    150  CA        30.8080    7.2980    7.9220 C.3   387  GLY387      0.1869
    151  C         30.1500    7.7130    6.5900 C.2   387  GLY387      0.2309
    152  O         29.4900    8.8080    6.5540 O.2   387  GLY387     -0.2863
@<TRIPOS>BOND
     1    58    59    1
     2   152   151    2
     3   151   150    1
     4   144   143    2
     5    59    60    1
     6    59    62    1
     7    69    68    1
     8   150   149    1
     9    61    60    2
    10    67    68   ar
    11    67    65   ar
    12    68    66   ar
    13    65    63   ar
    14   140   139    2
    15   143   149   am
    16   143   142    1
    17    66    64   ar
    18    63    64   ar
    19    63    62    1
    20   137   138    1
    21   142   141    1
    22   142   145    1
    23   139   141   am
    24   139   138    1
    25   145   146    1
    26   147   146   ar
    27   146   148   ar
    28   131   132    2
    29   131   130    1
    30    70    71    1
    31     7     5    1
    32    79    77   ar
    33    79    78   ar
    34     6     5    1
    35   112   113    2
    36   112   111    1
    37    77    75   ar
    38    78    76   ar
    39   117   119   ar
    40   117   115   ar
    41   114   111    1
    42   114   115    1
    43   130   133    1
    44   130   129    1
    45     5     2    1
    46    73    72    2
    47    71    72    1
    48    71    74    1
    49   133   134    1
    50   111   110    1
    51   119   120   ar
    52    76    75   ar
    53    75    74    1
    54   115   116   ar
    55    56    57   ar
    56    56    54   ar
    57    57    55   ar
    58    11    10    2
    59     2     1    1
    60     2     3    1
    61   134   135    2
    62   134   136   am
    63    19    18    1
    64    19    20    2
    65    55    53   ar
    66    54    52   ar
    67   120   121    1
    68   120   118   ar
    69    18    17    1
    70    18    21    1
    71   116   118   ar
    72    10    17   am
    73    10     9    1
    74     8     3   am
    75     8     9    1
    76     3     4    2
    77    21    22    1
    78    53    52   ar
    79    52    51    1
    80     9    12    1
    81    90    88   ar
    82    90    89   ar
    83    12    13    1
    84    88    86   ar
    85    22    24   ar
    86    22    23   ar
    87    51    48    1
    88    89    87   ar
    89   128   126    1
    90    13    14    1
    91    86    85   ar
    92    15    14   ar
    93   124   125    2
    94   124   123    1
    95    83    82    2
    96    14    16   ar
    97    47    48    1
    98    47    38   am
    99    48    49    1
   100    28    27    2
   101   109   106    1
   102    87    85   ar
   103   107   108    2
   104   107   106    1
   105   127   126    1
   106   126   123    1
   107    85    84    1
   108    96    95    1
   109   123   122    1
   110    41    40    1
   111    41    42    1
   112    32    34   ar
   113    32    30   ar
   114    37    38    1
   115    37    40    1
   116    37    36    1
   117    82    81    1
   118   106   105    1
   119    49    50    2
   120    38    39    2
   121    27    36   am
   122    27    26    1
   123    29    30    1
   124    29    26    1
   125    34    35   ar
   126    42    43    1
   127    30    31   ar
   128    81    84    1
   129    81    80    1
   130    25    26    1
   131    95    92    1
   132    43    44    2
   133   104   102    1
   134    35    33   ar
   135    31    33   ar
   136    92    91    1
   137    92    93    1
   138   102   103    1
   139   102   101    1
   140    44    46    1
   141    44    45    1
   142    93    94    2
   143   101    98    1
   144   100    99    2
   145    99    98    1
   146    98    97    1
