@<TRIPOS>MOLECULE
tmp/5ag6A00.pdb
 141 134 0 0 0
SMALL
GASTEIGER

@<TRIPOS>ATOM
      1  N         28.2020   -3.9330   14.9110 N.3    71  VAL71      -0.1231
      2  CA        28.9580   -2.7950   14.2860 C.3    71  VAL71       0.1692
      3  C         29.4890   -1.7240   15.2860 C.2    71  VAL71       0.2592
      4  O         28.7610   -1.2410   16.0840 O.2    71  VAL71      -0.2718
      5  CB        28.0710   -2.0600   13.2340 C.3    71  VAL71       0.0266
      6  CG1       28.8500   -0.8880   12.5890 C.3    71  VAL71       0.0020
      7  CG2       27.6010   -3.0280   12.1640 C.3    71  VAL71       0.0020
      8  N         30.7940   -1.4610   15.2750 N.am   72  GLU72      -0.1966
      9  CA        31.3870   -0.3950   16.0350 C.3    72  GLU72       0.1733
     10  C         31.7510    0.7320   15.0760 C.2    72  GLU72       0.2616
     11  O         31.7810    0.5200   13.8730 O.2    72  GLU72      -0.2715
     12  CB        32.6690   -0.9470   16.6900 C.3    72  GLU72       0.0429
     13  CG        32.3030   -2.0180   17.7190 C.3    72  GLU72       0.1163
     14  CD        33.5400   -2.6290   18.3560 C.2    72  GLU72       0.3649
     15  OE1       34.6920   -2.1410   18.0690 O.co2  72  GLU72      -0.2457
     16  OE2       33.3400   -3.5930   19.1300 O.co2  72  GLU72      -0.2457
     17  N         32.0120    1.9260   15.6060 N.am   73  ASP73      -0.1971
     18  CA        32.6580    3.0140   14.8350 C.3    73  ASP73       0.1709
     19  C         34.1280    2.6500   14.5760 C.2    73  ASP73       0.2293
     20  O         34.6010    1.6440   15.0700 O.2    73  ASP73      -0.2864
     21  CB        32.6240    4.2960   15.6630 C.3    73  ASP73       0.1436
     22  CG        33.4580    4.1810   16.8850 C.2    73  ASP73       0.3671
     23  OD1       33.1770    3.2490   17.6550 O.co2  73  ASP73      -0.2456
     24  OD2       34.4070    4.9710   17.0920 O.co2  73  ASP73      -0.2456
     25  N         31.9730    3.2070   20.2000 N.3    78  PHE78      -0.1241
     26  CA        30.5200    2.9990   20.2440 C.3    78  PHE78       0.1605
     27  C         30.2020    1.7050   19.5490 C.2    78  PHE78       0.2264
     28  O         30.8570    1.4140   18.5870 O.2    78  PHE78      -0.2867
     29  CB        29.7780    4.1700   19.5540 C.3    78  PHE78       0.0534
     30  CG        30.2260    5.5330   20.0060 C.ar   78  PHE78      -0.0203
     31  CD1       29.8630    6.0090   21.2580 C.ar   78  PHE78      -0.0042
     32  CD2       31.0490    6.3370   19.1740 C.ar   78  PHE78      -0.0042
     33  CE1       30.2970    7.2680   21.6890 C.ar   78  PHE78      -0.0003
     34  CE2       31.4920    7.6230   19.6140 C.ar   78  PHE78      -0.0003
     35  CZ        31.1270    8.0680   20.8590 C.ar   78  PHE78      -0.0000
     36  N         26.5590   -0.5550   18.2930 N.3    80  PHE80      -0.1241
     37  CA        25.0750   -0.6380   18.3190 C.3    80  PHE80       0.1605
     38  C         24.6200   -1.5940   19.3900 C.2    80  PHE80       0.2264
     39  O         25.2400   -2.6110   19.6470 O.2    80  PHE80      -0.2867
     40  CB        24.5170   -1.1350   16.9790 C.3    80  PHE80       0.0534
     41  CG        24.6430   -0.1370   15.8500 C.ar   80  PHE80      -0.0203
     42  CD1       24.1120    1.1580   15.9720 C.ar   80  PHE80      -0.0042
     43  CD2       25.2240   -0.5010   14.6320 C.ar   80  PHE80      -0.0042
     44  CE1       24.1900    2.0790   14.9200 C.ar   80  PHE80      -0.0003
     45  CE2       25.3370    0.4510   13.5440 C.ar   80  PHE80      -0.0003
     46  CZ        24.8130    1.7330   13.6860 C.ar   80  PHE80      -0.0000
     47  N         26.3440   10.1450    6.7610 N.3   207  TYR207     -0.1241
     48  CA        25.4720   10.2940    7.9070 C.3   207  TYR207      0.1605
     49  C         25.5220   11.7180    8.3720 C.2   207  TYR207      0.2264
     50  O         26.5410   12.3790    8.2060 O.2   207  TYR207     -0.2867
     51  CB        25.9690    9.4440    9.1110 C.3   207  TYR207      0.0534
     52  CG        25.4970    8.0430    9.1020 C.ar  207  TYR207     -0.0201
     53  CD1       24.3150    7.6980    9.7100 C.ar  207  TYR207     -0.0009
     54  CD2       26.2530    7.0420    8.4970 C.ar  207  TYR207     -0.0009
     55  CE1       23.8900    6.3750    9.7250 C.ar  207  TYR207      0.0417
     56  CE2       25.8270    5.7140    8.4960 C.ar  207  TYR207      0.0417
     57  CZ        24.6360    5.4150    9.1000 C.ar  207  TYR207      0.1957
     58  OH        24.1570    4.1400    9.0860 O.3   207  TYR207     -0.2866
     59  N         24.1050   14.1430   11.9900 N.3   209  HIS209     -0.1241
     60  CA        23.8030   14.0140   13.4330 C.3   209  HIS209      0.1621
     61  C         23.3060   15.3430   13.9550 C.2   209  HIS209      0.2264
     62  O         23.8680   16.4050   13.6240 O.2   209  HIS209     -0.2867
     63  CB        25.0740   13.5760   14.2250 C.3   209  HIS209      0.0745
     64  CG        25.6930   12.3180   13.6980 C.ar  209  HIS209      0.0817
     65  ND1       25.1250   11.0730   13.8740 N.ar  209  HIS209     -0.2268
     66  CD2       26.7930   12.1210   12.9280 C.ar  209  HIS209      0.1154
     67  CE1       25.8740   10.1570   13.2760 C.ar  209  HIS209      0.1986
     68  NE2       26.8970   10.7710   12.7060 N.ar  209  HIS209     -0.2212
     69  N         31.9400   12.0720   21.4660 N.3   222  PHE222     -0.1241
     70  CA        31.3700   12.0540   20.1420 C.3   222  PHE222      0.1605
     71  C         31.5170   13.4440   19.5110 C.2   222  PHE222      0.2264
     72  O         31.8290   13.5610   18.3630 O.2   222  PHE222     -0.2867
     73  CB        29.8920   11.6240   20.1490 C.3   222  PHE222      0.0534
     74  CG        29.2700   11.6870   18.7760 C.ar  222  PHE222     -0.0203
     75  CD1       29.7350   10.8520   17.7410 C.ar  222  PHE222     -0.0042
     76  CD2       28.2540   12.6100   18.5010 C.ar  222  PHE222     -0.0042
     77  CE1       29.1520   10.9400   16.4470 C.ar  222  PHE222     -0.0003
     78  CE2       27.6810   12.7020   17.2620 C.ar  222  PHE222     -0.0003
     79  CZ        28.1060   11.8690   16.2040 C.ar  222  PHE222     -0.0000
     80  N         23.3620    2.8770   21.6860 N.3   311  SER311     -0.1217
     81  CA        24.6950    2.3710   21.4080 C.3   311  SER311      0.1889
     82  C         25.4340    2.2330   22.7470 C.2   311  SER311      0.2288
     83  O         25.3040    3.1130   23.6440 O.2   311  SER311     -0.2866
     84  CB        25.4500    3.3420   20.4990 C.3   311  SER311      0.2089
     85  OG        25.0830    3.1980   19.1000 O.3   311  SER311     -0.2183
     86  N         24.4370    5.3500   24.8400 N.3   322  LEU322     -0.1245
     87  CA        23.9800    6.5410   24.1300 C.3   322  LEU322      0.1561
     88  C         22.5640    6.2770   23.5840 C.2   322  LEU322      0.2260
     89  O         22.3550    5.2450   22.9840 O.2   322  LEU322     -0.2867
     90  CB        24.9300    6.7940   22.9780 C.3   322  LEU322      0.0270
     91  CG        24.5100    7.7240   21.8350 C.3   322  LEU322      0.0019
     92  CD1       24.2990    9.0870   22.3590 C.3   322  LEU322      0.0001
     93  CD2       25.6510    7.7790   20.8760 C.3   322  LEU322      0.0001
     94  N         20.1030    6.9490   20.7450 N.3   324  ALA324     -0.1245
     95  CA        19.9990    7.6580   19.4660 C.3   324  ALA324      0.1562
     96  C         18.6780    7.4310   18.7180 C.2   324  ALA324      0.2260
     97  O         18.1980    6.3300   18.6710 O.2   324  ALA324     -0.2867
     98  CB        21.1250    7.3000   18.6260 C.3   324  ALA324      0.0290
     99  N         16.7920    7.7350   15.0410 N.3   326  TYR326     -0.1241
    100  CA        17.1240    7.6980   13.6230 C.3   326  TYR326      0.1605
    101  C         15.9060    8.1660   12.8460 C.2   326  TYR326      0.2264
    102  O         14.8140    7.6560   13.0390 O.2   326  TYR326     -0.2867
    103  CB        17.4710    6.2420   13.2020 C.3   326  TYR326      0.0534
    104  CG        18.7830    5.8270   13.7670 C.ar  326  TYR326     -0.0201
    105  CD1       18.9190    5.4800   15.1350 C.ar  326  TYR326     -0.0009
    106  CD2       19.9110    5.8070   12.9700 C.ar  326  TYR326     -0.0009
    107  CE1       20.1950    5.1560   15.7000 C.ar  326  TYR326      0.0417
    108  CE2       21.1780    5.4430   13.5110 C.ar  326  TYR326      0.0417
    109  CZ        21.2880    5.1040   14.8770 C.ar  326  TYR326      0.1957
    110  OH        22.5180    4.8130   15.4200 O.3   326  TYR326     -0.2866
    111  N         20.8560   12.1790   20.6210 N.3   355  VAL355     -0.1245
    112  CA        21.3030   12.6140   19.2960 C.3   355  VAL355      0.1561
    113  C         20.2490   12.0690   18.3060 C.2   355  VAL355      0.2260
    114  O         19.5570   11.0820   18.5720 O.2   355  VAL355     -0.2867
    115  CB        22.7680   12.1200   19.0150 C.3   355  VAL355      0.0252
    116  CG1       22.8120   10.5680   19.0380 C.3   355  VAL355      0.0019
    117  CG2       23.2810   12.6720   17.7530 C.3   355  VAL355      0.0019
    118  N         20.1170   10.8350   14.3660 N.3   357  ASN357     -0.1240
    119  CA        20.9730   10.3840   13.2530 C.3   357  ASN357      0.1653
    120  C         20.1110   10.2020   11.9890 C.2   357  ASN357      0.2266
    121  O         18.9190    9.8870   12.0880 O.2   357  ASN357     -0.2867
    122  CB        21.5460    8.9950   13.5830 C.3   357  ASN357      0.1155
    123  CG        22.5980    9.0440   14.6940 C.2   357  ASN357      0.2627
    124  OD1       22.9690   10.1240   15.1130 O.2   357  ASN357     -0.2716
    125  ND2       23.1170    7.8710   15.1280 N.am  357  ASN357     -0.0877
    126  N         28.7060   13.5680    9.6840 N.3   376  GLY376     -0.1210
    127  CA        29.3920   12.6980   10.6530 C.3   376  GLY376      0.1956
    128  C         30.5260   11.9980    9.9180 C.2   376  GLY376      0.2612
    129  O         30.7660   12.2940    8.7790 O.2   376  GLY376     -0.2717
    130  N         31.1920   11.0350   10.5350 N.am  377  ASP377     -0.1959
    131  CA        32.2530   10.2960    9.8090 C.3   377  ASP377      0.1840
    132  C         31.6630    9.1160    9.0580 C.2   377  ASP377      0.2622
    133  O         32.2580    8.6140    8.1100 O.2   377  ASP377     -0.2715
    134  CB        33.3090    9.7870   10.7650 C.3   377  ASP377      0.1450
    135  CG        33.8780   10.8980   11.6230 C.2   377  ASP377      0.3671
    136  OD1       34.3040   11.9180   11.0280 O.co2 377  ASP377     -0.2456
    137  OD2       33.8860   10.7450   12.8740 O.co2 377  ASP377     -0.2456
    138  N         30.4850    8.6720    9.4740 N.am  378  GLY378     -0.1954
    139  CA        29.8880    7.5030    8.8280 C.3   378  GLY378      0.1869
    140  C         29.4550    7.7760    7.3830 C.2   378  GLY378      0.2309
    141  O         29.1150    8.9260    7.0270 O.2   378  GLY378     -0.2863
@<TRIPOS>BOND
     1    47    48    1
     2   141   140    2
     3   140   139    1
     4    48    49    1
     5    48    51    1
     6   133   132    2
     7    50    49    2
     8    56    54   ar
     9    56    57   ar
    10    54    52   ar
    11   129   128    2
    12   139   138    1
    13   132   138   am
    14   132   131    1
    15    58    57    1
    16    57    55   ar
    17    52    51    1
    18    52    53   ar
    19   126   127    1
    20    53    55   ar
    21   131   130    1
    22   131   134    1
    23   128   130   am
    24   128   127    1
    25   134   135    1
    26   136   135   ar
    27   135   137   ar
    28   120   121    2
    29   120   119    1
    30    59    60    1
    31     7     5    1
    32     6     5    1
    33    68    66   ar
    34    68    67   ar
    35   101   102    2
    36   101   100    1
    37    66    64   ar
    38   106   108   ar
    39   106   104   ar
    40   103   100    1
    41   103   104    1
    42     5     2    1
    43   119   122    1
    44   119   118    1
    45    67    65   ar
    46    60    61    1
    47    60    63    1
    48   108   109   ar
    49    45    46   ar
    50    45    43   ar
    51   122   123    1
    52   100    99    1
    53    62    61    2
    54    46    44   ar
    55    64    65   ar
    56    64    63    1
    57   104   105   ar
    58    11    10    2
    59     2     1    1
    60     2     3    1
    61    19    18    1
    62    19    20    2
    63    43    41   ar
    64   123   124    2
    65   123   125   am
    66    18    17    1
    67    18    21    1
    68   109   110    1
    69   109   107   ar
    70    44    42   ar
    71    10    17   am
    72    10     9    1
    73   105   107   ar
    74     8     3   am
    75     8     9    1
    76     3     4    2
    77    21    22    1
    78    41    42   ar
    79    41    40    1
    80     9    12    1
    81    79    77   ar
    82    79    78   ar
    83    77    75   ar
    84    12    13    1
    85    22    24   ar
    86    22    23   ar
    87    40    37    1
    88    78    76   ar
    89    13    14    1
    90    75    74   ar
    91   117   115    1
    92    15    14   ar
    93    36    37    1
    94   113   114    2
    95   113   112    1
    96    37    38    1
    97    14    16   ar
    98    72    71    2
    99    76    74   ar
   100    28    27    2
   101    98    95    1
   102    97    96    2
   103    96    95    1
   104    74    73    1
   105   115   116    1
   106   115   112    1
   107    85    84    1
   108    32    34   ar
   109    32    30   ar
   110   112   111    1
   111    38    39    2
   112    95    94    1
   113    71    70    1
   114    27    26    1
   115    29    30    1
   116    29    26    1
   117    34    35   ar
   118    30    31   ar
   119    70    73    1
   120    70    69    1
   121    25    26    1
   122    84    81    1
   123    35    33   ar
   124    93    91    1
   125    31    33   ar
   126    81    80    1
   127    81    82    1
   128    91    92    1
   129    91    90    1
   130    82    83    2
   131    90    87    1
   132    89    88    2
   133    88    87    1
   134    87    86    1
