@<TRIPOS>MOLECULE
tmp/5ag7A00.pdb
 137 132 0 0 0
SMALL
GASTEIGER

@<TRIPOS>ATOM
      1  N         27.9220   -3.8050   15.0430 N.3    71  VAL71      -0.1231
      2  CA        28.6730   -2.7170   14.4330 C.3    71  VAL71       0.1692
      3  C         29.2430   -1.6830   15.4320 C.2    71  VAL71       0.2592
      4  O         28.5730   -1.2790   16.3990 O.2    71  VAL71      -0.2718
      5  CB        27.8270   -1.9860   13.3320 C.3    71  VAL71       0.0266
      6  CG1       28.6760   -0.9570   12.6130 C.3    71  VAL71       0.0020
      7  CG2       27.1900   -2.9770   12.3360 C.3    71  VAL71       0.0020
      8  N         30.4820   -1.2590   15.1740 N.am   72  GLU72      -0.1966
      9  CA        31.1420   -0.1980   15.9500 C.3    72  GLU72       0.1733
     10  C         31.5570    0.9750   15.0570 C.2    72  GLU72       0.2616
     11  O         31.8180    0.8200   13.8650 O.2    72  GLU72      -0.2715
     12  CB        32.3850   -0.7310   16.6770 C.3    72  GLU72       0.0429
     13  CG        32.2320   -2.0980   17.3630 C.3    72  GLU72       0.1163
     14  CD        33.3810   -2.4150   18.3070 C.2    72  GLU72       0.3649
     15  OE1       34.5120   -1.9060   18.0880 O.co2  72  GLU72      -0.2457
     16  OE2       33.1430   -3.1690   19.2760 O.co2  72  GLU72      -0.2457
     17  N         31.6200    2.1620   15.6280 N.am   73  ASP73      -0.1971
     18  CA        32.1700    3.2810   14.8820 C.3    73  ASP73       0.1709
     19  C         33.6700    3.0150   14.5730 C.2    73  ASP73       0.2293
     20  O         34.2950    2.1710   15.2200 O.2    73  ASP73      -0.2864
     21  CB        31.9980    4.5640   15.6900 C.3    73  ASP73       0.1436
     22  CG        32.9430    4.6240   16.8560 C.2    73  ASP73       0.3671
     23  OD1       32.8090    3.7930   17.7670 O.co2  73  ASP73      -0.2456
     24  OD2       33.8540    5.4690   16.8460 O.co2  73  ASP73      -0.2456
     25  N         31.7960    3.6240   20.1970 N.3    78  PHE78      -0.1227
     26  CA        30.3840    3.2570   20.3180 C.3    78  PHE78       0.1736
     27  C         30.0920    2.0090   19.5200 C.2    78  PHE78       0.2595
     28  O         30.7250    1.7710   18.4850 O.2    78  PHE78      -0.2718
     29  CB        29.4690    4.3850   19.8160 C.3    78  PHE78       0.0547
     30  CG        29.8700    5.7350   20.3040 C.ar   78  PHE78      -0.0202
     31  CD1       29.4150    6.2000   21.5510 C.ar   78  PHE78      -0.0042
     32  CD2       30.7370    6.5280   19.5500 C.ar   78  PHE78      -0.0042
     33  CE1       29.8070    7.4330   22.0450 C.ar   78  PHE78      -0.0003
     34  CE2       31.1250    7.7770   20.0150 C.ar   78  PHE78      -0.0003
     35  CZ        30.6530    8.2290   21.2810 C.ar   78  PHE78      -0.0000
     36  N         29.1250    1.2360   20.0190 N.am   79  ARG79      -0.1966
     37  CA        28.6030    0.0440   19.3870 C.3    79  ARG79       0.1729
     38  C         27.0740    0.0550   19.4870 C.2    79  ARG79       0.2616
     39  O         26.5130    0.3980   20.5310 O.2    79  ARG79      -0.2715
     40  CB        29.1590   -1.2130   20.0750 C.3    79  ARG79       0.0348
     41  CG        28.9030   -2.5470   19.3150 C.3    79  ARG79       0.0492
     42  CD        29.2310   -3.8340   20.1440 C.3    79  ARG79       0.2205
     43  NE        30.5760   -3.8170   20.7080 N.pl3  79  ARG79      -0.0865
     44  CZ        30.8770   -3.9610   21.9970 C.cat  79  ARG79       0.5346
     45  NH1       29.9470   -4.1970   22.8900 N.pl3  79  ARG79       0.1354
     46  NH2       32.1300   -3.8800   22.3900 N.pl3  79  ARG79       0.1354
     47  N         26.3980   -0.3420   18.4090 N.am   80  PHE80      -0.1974
     48  CA        24.9480   -0.5090   18.4380 C.3    80  PHE80       0.1639
     49  C         24.5120   -1.4550   19.5730 C.2    80  PHE80       0.2290
     50  O         25.2480   -2.4150   19.9510 O.2    80  PHE80      -0.2864
     51  CB        24.4230   -0.9990   17.0880 C.3    80  PHE80       0.0560
     52  CG        24.4110    0.0680   16.0000 C.ar   80  PHE80      -0.0200
     53  CD1       23.8260    1.3180   16.2170 C.ar   80  PHE80      -0.0042
     54  CD2       24.9650   -0.1950   14.7390 C.ar   80  PHE80      -0.0042
     55  CE1       23.8180    2.2740   15.2250 C.ar   80  PHE80      -0.0003
     56  CE2       24.9580    0.7770   13.7120 C.ar   80  PHE80      -0.0003
     57  CZ        24.3890    2.0060   13.9510 C.ar   80  PHE80      -0.0000
     58  N         26.4620   10.0730    6.5790 N.3   207  TYR207     -0.1241
     59  CA        25.6850   10.1280    7.7860 C.3   207  TYR207      0.1605
     60  C         25.6720   11.5740    8.2860 C.2   207  TYR207      0.2264
     61  O         26.6660   12.2920    8.1670 O.2   207  TYR207     -0.2867
     62  CB        26.2930    9.2300    8.8590 C.3   207  TYR207      0.0534
     63  CG        26.2840    7.7350    8.6130 C.ar  207  TYR207     -0.0201
     64  CD1       25.1610    6.9350    8.9320 C.ar  207  TYR207     -0.0009
     65  CD2       27.4260    7.1030    8.1410 C.ar  207  TYR207     -0.0009
     66  CE1       25.1770    5.5420    8.7260 C.ar  207  TYR207      0.0417
     67  CE2       27.4610    5.7200    7.9410 C.ar  207  TYR207      0.0417
     68  CZ        26.3450    4.9500    8.2310 C.ar  207  TYR207      0.1957
     69  OH        26.4650    3.5720    8.0150 O.3   207  TYR207     -0.2866
     70  N         24.3710   14.0650   11.8290 N.3   209  HIS209     -0.1241
     71  CA        24.1070   13.9750   13.2620 C.3   209  HIS209      0.1621
     72  C         23.5810   15.3220   13.7060 C.2   209  HIS209      0.2264
     73  O         24.0150   16.3440   13.1700 O.2   209  HIS209     -0.2867
     74  CB        25.4040   13.6570   14.0220 C.3   209  HIS209      0.0745
     75  CG        26.1380   12.4700   13.4850 C.ar  209  HIS209      0.0817
     76  ND1       25.6150   11.1870   13.5230 N.ar  209  HIS209     -0.2268
     77  CD2       27.3380   12.3650   12.8640 C.ar  209  HIS209      0.1154
     78  CE1       26.4610   10.3470   12.9490 C.ar  209  HIS209      0.1986
     79  NE2       27.5220   11.0330   12.5540 N.ar  209  HIS209     -0.2212
     80  N         31.4910   11.8550   21.7130 N.3   222  PHE222     -0.1241
     81  CA        30.7760   11.7090   20.4640 C.3   222  PHE222      0.1605
     82  C         31.0710   12.9520   19.6400 C.2   222  PHE222      0.2264
     83  O         31.3050   12.8780   18.4420 O.2   222  PHE222     -0.2867
     84  CB        29.2840   11.5740   20.7470 C.3   222  PHE222      0.0534
     85  CG        28.4250   11.5000   19.5180 C.ar  222  PHE222     -0.0203
     86  CD1       28.1150   10.2690   18.9400 C.ar  222  PHE222     -0.0042
     87  CD2       27.8940   12.6620   18.9450 C.ar  222  PHE222     -0.0042
     88  CE1       27.3060   10.1890   17.8050 C.ar  222  PHE222     -0.0003
     89  CE2       27.0890   12.5920   17.7970 C.ar  222  PHE222     -0.0003
     90  CZ        26.7890   11.3470   17.2350 C.ar  222  PHE222     -0.0000
     91  N         23.2310    3.0530   21.8140 N.3   320  SER320     -0.1217
     92  CA        24.5880    2.5530   21.5980 C.3   320  SER320      0.1889
     93  C         25.4150    2.4600   22.8840 C.2   320  SER320      0.2288
     94  O         25.4010    3.3670   23.7030 O.2   320  SER320     -0.2866
     95  CB        25.3340    3.4150   20.5780 C.3   320  SER320      0.2089
     96  OG        25.0070    3.0590   19.2440 O.3   320  SER320     -0.2183
     97  N         24.4260    5.8190   24.6450 N.3   331  LEU331     -0.1245
     98  CA        24.0380    6.9280   23.7670 C.3   331  LEU331      0.1561
     99  C         22.6420    6.6470   23.2550 C.2   331  LEU331      0.2260
    100  O         22.4000    5.5910   22.7180 O.2   331  LEU331     -0.2867
    101  CB        25.0090    7.0350   22.5940 C.3   331  LEU331      0.0270
    102  CG        24.7760    8.0170   21.4470 C.3   331  LEU331      0.0019
    103  CD1       24.7650    9.4310   21.9230 C.3   331  LEU331      0.0001
    104  CD2       25.8580    7.8540   20.4020 C.3   331  LEU331      0.0001
    105  N         20.1810    7.3930   20.7440 N.3   333  ALA333     -0.1245
    106  CA        20.0830    8.0020   19.4220 C.3   333  ALA333      0.1562
    107  C         18.7470    7.7230   18.7540 C.2   333  ALA333      0.2260
    108  O         18.2660    6.5900   18.7940 O.2   333  ALA333     -0.2867
    109  CB        21.2080    7.5120   18.5620 C.3   333  ALA333      0.0290
    110  N         16.7450    7.9120   14.9600 N.3   335  TYR335     -0.1241
    111  CA        17.0280    7.8760   13.5310 C.3   335  TYR335      0.1605
    112  C         15.7970    8.2390   12.7320 C.2   335  TYR335      0.2264
    113  O         14.7310    7.6500   12.9220 O.2   335  TYR335     -0.2867
    114  CB        17.5000    6.4820   13.1110 C.3   335  TYR335      0.0534
    115  CG        18.8180    6.1250   13.6890 C.ar  335  TYR335     -0.0201
    116  CD1       18.9340    5.8150   15.0320 C.ar  335  TYR335     -0.0009
    117  CD2       19.9570    6.1450   12.9190 C.ar  335  TYR335     -0.0009
    118  CE1       20.1460    5.5240   15.6040 C.ar  335  TYR335      0.0417
    119  CE2       21.1950    5.8370   13.4780 C.ar  335  TYR335      0.0417
    120  CZ        21.2810    5.5240   14.8230 C.ar  335  TYR335      0.1957
    121  OH        22.5000    5.2170   15.4050 O.3   335  TYR335     -0.2866
    122  N         20.0940   11.0550   14.1610 N.3   366  ASN366     -0.1240
    123  CA        20.9230   10.5840   13.0890 C.3   366  ASN366      0.1653
    124  C         20.1620   10.3890   11.7990 C.2   366  ASN366      0.2266
    125  O         18.9720   10.0300   11.8030 O.2   366  ASN366     -0.2867
    126  CB        21.4690    9.2100   13.4610 C.3   366  ASN366      0.1155
    127  CG        22.5840    9.2750   14.4690 C.2   366  ASN366      0.2627
    128  OD1       23.0890   10.3430   14.7770 O.2   366  ASN366     -0.2716
    129  ND2       22.9890    8.1210   14.9720 N.am  366  ASN366     -0.0877
    130  N         31.6060   10.9740   10.0510 N.3   386  ASP386     -0.1239
    131  CA        32.6050   10.1780    9.3390 C.3   386  ASP386      0.1674
    132  C         31.9020    9.0190    8.6750 C.2   386  ASP386      0.2266
    133  O         30.9230    8.5070    9.2060 O.2   386  ASP386     -0.2867
    134  CB        33.6560    9.6660   10.3140 C.3   386  ASP386      0.1410
    135  CG        34.1850   10.7640   11.2150 C.2   386  ASP386      0.3668
    136  OD1       34.7450   11.7570   10.6830 O.co2 386  ASP386     -0.2456
    137  OD2       34.0220   10.6360   12.4520 O.co2 386  ASP386     -0.2456
@<TRIPOS>BOND
     1    58    59    1
     2    59    60    1
     3    59    62    1
     4    67    65   ar
     5    67    68   ar
     6    69    68    1
     7    65    63   ar
     8    61    60    2
     9    68    66   ar
    10    63    62    1
    11    63    64   ar
    12   132   133    2
    13   132   131    1
    14    66    64   ar
    15   131   130    1
    16   131   134    1
    17   134   135    1
    18   136   135   ar
    19   135   137   ar
    20   124   125    2
    21   124   123    1
    22    70    71    1
    23     7     5    1
    24    79    77   ar
    25    79    78   ar
    26     6     5    1
    27   112   113    2
    28   112   111    1
    29    77    75   ar
    30   117   119   ar
    31   117   115   ar
    32    78    76   ar
    33   123   126    1
    34   123   122    1
    35   114   111    1
    36   114   115    1
    37    73    72    2
    38    71    72    1
    39    71    74    1
    40     5     2    1
    41   126   127    1
    42   119   120   ar
    43    75    76   ar
    44    75    74    1
    45   111   110    1
    46   115   116   ar
    47    56    57   ar
    48    56    54   ar
    49    11    10    2
    50    57    55   ar
    51     2     1    1
    52     2     3    1
    53   127   128    2
    54   127   129   am
    55    19    18    1
    56    19    20    2
    57    54    52   ar
    58   120   121    1
    59   120   118   ar
    60    18    17    1
    61    18    21    1
    62   116   118   ar
    63    10    17   am
    64    10     9    1
    65     8     3   am
    66     8     9    1
    67    55    53   ar
    68     3     4    2
    69    21    22    1
    70     9    12    1
    71    52    53   ar
    72    52    51    1
    73    12    13    1
    74    24    22   ar
    75    22    23   ar
    76    51    48    1
    77    90    89   ar
    78    90    88   ar
    79    13    14    1
    80    89    87   ar
    81    88    86   ar
    82    15    14   ar
    83    14    16   ar
    84    47    48    1
    85    47    38   am
    86    48    49    1
    87    83    82    2
    88    28    27    2
    89   109   106    1
    90   107   108    2
    91   107   106    1
    92    86    85   ar
    93    87    85   ar
    94    96    95    1
    95    41    40    1
    96    41    42    1
    97    37    38    1
    98    37    36    1
    99    37    40    1
   100   106   105    1
   101    38    39    2
   102    85    84    1
   103    27    36   am
   104    27    26    1
   105    32    34   ar
   106    32    30   ar
   107    49    50    2
   108    82    81    1
   109    29    30    1
   110    29    26    1
   111    34    35   ar
   112    42    43    1
   113    25    26    1
   114    30    31   ar
   115   104   102    1
   116    81    84    1
   117    81    80    1
   118    95    92    1
   119    43    44    2
   120    35    33   ar
   121   102   103    1
   122   102   101    1
   123    31    33   ar
   124    92    91    1
   125    92    93    1
   126    44    46    1
   127    44    45    1
   128   101    98    1
   129   100    99    2
   130    93    94    2
   131    99    98    1
   132    98    97    1
