@<TRIPOS>MOLECULE
tmp/5agaA00.pdb
 156 151 0 0 0
SMALL
GASTEIGER

@<TRIPOS>ATOM
      1  N         38.8010   41.9830   52.6400 N.3    21  PHE21      -0.1241
      2  CA        39.4060   41.0030   51.7450 C.3    21  PHE21       0.1605
      3  C         40.7430   41.5250   51.2330 C.2    21  PHE21       0.2264
      4  O         40.7910   42.3530   50.3230 O.2    21  PHE21      -0.2867
      5  CB        38.4710   40.6790   50.5760 C.3    21  PHE21       0.0534
      6  CG        38.6810   39.3060   49.9900 C.ar   21  PHE21      -0.0203
      7  CD1       39.8260   38.5760   50.2750 C.ar   21  PHE21      -0.0042
      8  CD2       37.7260   38.7430   49.1580 C.ar   21  PHE21      -0.0042
      9  CE1       40.0160   37.3160   49.7370 C.ar   21  PHE21      -0.0003
     10  CE2       37.9120   37.4820   48.6180 C.ar   21  PHE21      -0.0003
     11  CZ        39.0580   36.7690   48.9090 C.ar   21  PHE21      -0.0000
     12  N         44.1200   43.6550   51.0460 N.3    23  VAL23      -0.1231
     13  CA        44.3840   45.0820   51.2340 C.3    23  VAL23       0.1692
     14  C         44.8390   45.4030   52.6600 C.2    23  VAL23       0.2592
     15  O         44.1420   46.0860   53.4110 O.2    23  VAL23      -0.2718
     16  CB        43.1410   45.9380   50.8910 C.3    23  VAL23       0.0266
     17  CG1       43.5470   47.3770   50.6000 C.3    23  VAL23       0.0020
     18  CG2       42.3890   45.3450   49.7060 C.3    23  VAL23       0.0020
     19  N         46.0090   44.8910   53.0280 N.am   24  LYS24      -0.1966
     20  CA        46.5940   45.1760   54.3320 C.3    24  LYS24       0.1728
     21  C         47.7980   46.0950   54.1680 C.2    24  LYS24       0.2616
     22  O         48.0620   46.9530   55.0120 O.2    24  LYS24      -0.2715
     23  CB        47.0020   43.8820   55.0390 C.3    24  LYS24       0.0311
     24  CG        45.7820   42.9840   55.2390 C.3    24  LYS24       0.0038
     25  CD        45.6920   42.3820   56.6190 C.3    24  LYS24       0.0206
     26  CE        44.8830   41.1090   56.4840 C.3    24  LYS24       0.1093
     27  NZ        43.5670   41.3620   55.8350 N.3    24  LYS24      -0.1314
     28  N         48.5210   45.9060   53.0700 N.am   25  LYS25      -0.1963
     29  CA        49.6780   46.7320   52.7500 C.3    25  LYS25       0.1728
     30  C         49.5630   47.3170   51.3470 C.2    25  LYS25       0.2616
     31  O         48.8180   46.8080   50.5090 O.2    25  LYS25      -0.2715
     32  CB        50.9720   45.9220   52.8700 C.3    25  LYS25       0.0311
     33  CG        51.6980   46.0940   54.1930 C.3    25  LYS25       0.0038
     34  CD        53.0850   45.4770   54.1390 C.3    25  LYS25       0.0206
     35  CE        53.9380   45.9330   55.3120 C.3    25  LYS25       0.1093
     36  NZ        55.3580   45.5090   55.1630 N.3    25  LYS25      -0.1314
     37  N         50.3060   48.3900   51.1000 N.am   26  MET26      -0.1963
     38  CA        50.3300   49.0220   49.7880 C.3    26  MET26       0.1736
     39  C         51.5220   48.5420   48.9730 C.2    26  MET26       0.2616
     40  O         52.4410   47.9200   49.5050 O.2    26  MET26      -0.2715
     41  CB        50.3740   50.5440   49.9240 C.3    26  MET26       0.0427
     42  CG        49.0990   51.1620   50.4670 C.3    26  MET26       0.0599
     43  SD        49.3000   52.9190   50.8110 S.3    26  MET26      -0.1393
     44  CE        50.0130   53.4840   49.2700 C.3    26  MET26       0.0692
     45  N         51.5010   48.8340   47.6770 N.am   27  PHE27      -0.1974
     46  CA        52.6250   48.5200   46.8060 C.3    27  PHE27       0.1639
     47  C         53.6710   49.6270   46.8740 C.2    27  PHE27       0.2290
     48  O         53.3970   50.7180   47.3760 O.2    27  PHE27      -0.2864
     49  CB        52.1510   48.3190   45.3660 C.3    27  PHE27       0.0560
     50  CG        51.3730   47.0510   45.1540 C.ar   27  PHE27      -0.0200
     51  CD1       51.7730   45.8690   45.7560 C.ar   27  PHE27      -0.0042
     52  CD2       50.2410   47.0420   44.3560 C.ar   27  PHE27      -0.0042
     53  CE1       51.0590   44.7010   45.5620 C.ar   27  PHE27      -0.0003
     54  CE2       49.5230   45.8780   44.1600 C.ar   27  PHE27      -0.0003
     55  CZ        49.9330   44.7060   44.7640 C.ar   27  PHE27      -0.0000
     56  N         52.5670   52.6060   44.7540 N.3    30  GLN30      -0.1245
     57  CA        51.3970   53.2920   45.2940 C.3    30  GLN30       0.1566
     58  C         51.7880   54.2990   46.3710 C.2    30  GLN30       0.2260
     59  O         51.1530   55.3440   46.5170 O.2    30  GLN30      -0.2867
     60  CB        50.3970   52.2830   45.8590 C.3    30  GLN30       0.0367
     61  CG        49.6610   51.4810   44.8030 C.3    30  GLN30       0.0905
     62  CD        48.7170   50.4620   45.4080 C.2    30  GLN30       0.2608
     63  OE1       48.8510   50.0910   46.5730 O.2    30  GLN30      -0.2717
     64  NE2       47.7510   50.0070   44.6180 N.am   30  GLN30      -0.0878
     65  N         47.7730   47.1180   33.8130 N.3    51  THR51      -0.1203
     66  CA        46.4830   46.6730   34.3210 C.3    51  THR51       0.1994
     67  C         46.6710   45.6870   35.4740 C.2    51  THR51       0.2619
     68  O         47.6460   44.9360   35.5040 O.2    51  THR51      -0.2717
     69  CB        45.6380   46.0310   33.2080 C.3    51  THR51       0.1784
     70  OG1       44.4640   45.4350   33.7720 O.3    51  THR51      -0.2211
     71  CG2       46.4400   44.9730   32.4860 C.3    51  THR51       0.0376
     72  N         45.7360   45.7130   36.4210 N.am   52  SER52      -0.1937
     73  CA        45.7860   44.8900   37.6320 C.3    52  SER52       0.2055
     74  C         47.0290   45.1780   38.4710 C.2    52  SER52       0.2643
     75  O         47.6980   44.2560   38.9340 O.2    52  SER52      -0.2714
     76  CB        45.7280   43.3980   37.2840 C.3    52  SER52       0.2130
     77  OG        46.9650   42.9430   36.7590 O.3    52  SER52      -0.2179
     78  N         47.3260   46.4590   38.6690 N.am   53  ALA53      -0.1963
     79  CA        48.4740   46.8660   39.4740 C.3    53  ALA53       0.1728
     80  C         48.0500   47.6810   40.6940 C.2    53  ALA53       0.2617
     81  O         48.8600   47.9400   41.5840 O.2    53  ALA53      -0.2715
     82  CB        49.4590   47.6590   38.6320 C.3    53  ALA53       0.0334
     83  N         46.7840   48.0900   40.7270 N.am   54  GLY54      -0.1940
     84  CA        46.2390   48.7900   41.8770 C.3    54  GLY54       0.2014
     85  C         45.9840   50.2700   41.6590 C.2    54  GLY54       0.2639
     86  O         46.1320   51.0730   42.5800 O.2    54  GLY54      -0.2714
     87  N         45.5920   50.6330   40.4410 N.am   55  LYS55      -0.1963
     88  CA        45.3280   52.0290   40.1150 C.3    55  LYS55       0.1728
     89  C         44.1140   52.5670   40.8670 C.2    55  LYS55       0.2617
     90  O         43.9980   53.7700   41.0910 O.2    55  LYS55      -0.2715
     91  CB        45.1280   52.2010   38.6060 C.3    55  LYS55       0.0311
     92  CG        46.4040   52.0510   37.7920 C.3    55  LYS55       0.0038
     93  CD        46.2440   52.6080   36.3830 C.3    55  LYS55       0.0206
     94  CE        45.3110   51.7530   35.5420 C.3    55  LYS55       0.1093
     95  NZ        45.8490   50.3790   35.3430 N.3    55  LYS55      -0.1314
     96  N         43.2150   51.6720   41.2620 N.am   56  THR56      -0.1937
     97  CA        41.9870   52.0750   41.9360 C.3    56  THR56       0.2028
     98  C         42.2390   52.6200   43.3390 C.2    56  THR56       0.2642
     99  O         41.6310   53.6130   43.7360 O.2    56  THR56      -0.2714
    100  CB        40.9890   50.9060   42.0300 C.3    56  THR56       0.1808
    101  OG1       41.7030   49.6830   42.2470 O.3    56  THR56      -0.2208
    102  CG2       40.1850   50.7910   40.7460 C.3    56  THR56       0.0379
    103  N         43.1320   51.9730   44.0820 N.am   57  LEU57      -0.1977
    104  CA        43.4110   52.3710   45.4590 C.3    57  LEU57       0.1596
    105  C         43.9360   53.8000   45.5420 C.2    57  LEU57       0.2287
    106  O         43.5730   54.5470   46.4500 O.2    57  LEU57      -0.2864
    107  CB        44.4180   51.4200   46.1060 C.3    57  LEU57       0.0297
    108  CG        44.7210   51.7170   47.5770 C.3    57  LEU57       0.0022
    109  CD1       43.7380   50.9970   48.4890 C.3    57  LEU57       0.0001
    110  CD2       46.1580   51.3680   47.9320 C.3    57  LEU57       0.0001
    111  N         30.6760   49.4810   43.9070 N.3    90  TYR90      -0.1241
    112  CA        31.9560   49.1900   44.5450 C.3    90  TYR90       0.1605
    113  C         32.3750   50.3050   45.5040 C.2    90  TYR90       0.2264
    114  O         32.9770   50.0420   46.5450 O.2    90  TYR90      -0.2867
    115  CB        33.0390   48.9640   43.4860 C.3    90  TYR90       0.0534
    116  CG        34.4390   48.8510   44.0460 C.ar   90  TYR90      -0.0201
    117  CD1       34.8950   47.6630   44.6030 C.ar   90  TYR90      -0.0009
    118  CD2       35.3080   49.9330   44.0110 C.ar   90  TYR90      -0.0009
    119  CE1       36.1770   47.5590   45.1140 C.ar   90  TYR90       0.0417
    120  CE2       36.5870   49.8390   44.5180 C.ar   90  TYR90       0.0417
    121  CZ        37.0180   48.6520   45.0680 C.ar   90  TYR90       0.1957
    122  OH        38.2960   48.5610   45.5720 O.3    90  TYR90      -0.2866
    123  N         38.9940   57.7900   34.6330 N.3   150  ASP150     -0.1225
    124  CA        39.5420   56.4690   34.3680 C.3   150  ASP150      0.1805
    125  C         39.7590   56.3200   32.8670 C.2   150  ASP150      0.2597
    126  O         38.9850   56.8520   32.0720 O.2   150  ASP150     -0.2718
    127  CB        38.6110   55.3740   34.8950 C.3   150  ASP150      0.1424
    128  CG        39.3380   54.0680   35.1690 C.2   150  ASP150      0.3668
    129  OD1       40.1870   53.6700   34.3440 O.co2 150  ASP150     -0.2456
    130  OD2       39.0620   53.4410   36.2140 O.co2 150  ASP150     -0.2456
    131  N         40.8180   55.6060   32.4920 N.am  151  GLU151     -0.1979
    132  CA        41.1760   55.4050   31.0870 C.3   151  GLU151      0.1602
    133  C         41.3380   56.7400   30.3610 C.2   151  GLU151      0.2287
    134  O         40.5020   57.1230   29.5450 O.2   151  GLU151     -0.2864
    135  CB        40.1300   54.5340   30.3830 C.3   151  GLU151      0.0415
    136  CG        39.8510   53.2050   31.0780 C.3   151  GLU151      0.1163
    137  CD        41.0550   52.2770   31.0940 C.2   151  GLU151      0.3649
    138  OE1       41.8980   52.4020   32.0090 O.co2 151  GLU151     -0.2457
    139  OE2       41.1540   51.4150   30.1940 O.co2 151  GLU151     -0.2457
    140  N         36.3730   44.6160   35.0810 N.3   374  ASN374     -0.1240
    141  CA        37.5230   43.8390   35.5280 C.3   374  ASN374      0.1653
    142  C         37.1910   42.3570   35.6510 C.2   374  ASN374      0.2266
    143  O         36.3610   41.9640   36.4700 O.2   374  ASN374     -0.2867
    144  CB        38.0350   44.3710   36.8670 C.3   374  ASN374      0.1155
    145  CG        39.2090   43.5710   37.4030 C.2   374  ASN374      0.2627
    146  OD1       39.9740   42.9790   36.6400 O.2   374  ASN374     -0.2716
    147  ND2       39.3550   43.5500   38.7230 N.am  374  ASN374     -0.0877
    148  N         45.4490   38.7570   40.4860 N.3   407  LYS407     -0.1245
    149  CA        46.2470   39.2540   41.6010 C.3   407  LYS407      0.1561
    150  C         45.8970   38.5360   42.9020 C.2   407  LYS407      0.2260
    151  O         44.7530   38.5760   43.3570 O.2   407  LYS407     -0.2867
    152  CB        46.0570   40.7640   41.7670 C.3   407  LYS407      0.0271
    153  CG        46.8980   41.4030   42.8500 C.3   407  LYS407      0.0035
    154  CD        46.8170   42.9130   42.9010 C.3   407  LYS407      0.0206
    155  CE        45.3890   43.4010   42.9920 C.3   407  LYS407      0.1093
    156  NZ        45.3030   44.6520   43.7860 N.3   407  LYS407     -0.1314
@<TRIPOS>BOND
     1   134   133    2
     2   139   137   ar
     3   133   132    1
     4   135   136    1
     5   135   132    1
     6   136   137    1
     7   132   131    1
     8   137   138   ar
     9   126   125    2
    10    71    69    1
    11   131   125   am
    12   125   124    1
    13    69    70    1
    14    69    66    1
    15    65    66    1
    16    66    67    1
    17   129   128   ar
    18   124   123    1
    19   124   127    1
    20   127   128    1
    21   140   141    1
    22   128   130   ar
    23    95    94    1
    24    67    68    2
    25    67    72   am
    26   141   142    1
    27   141   144    1
    28    94    93    1
    29   142   143    2
    30    93    92    1
    31    72    73    1
    32   146   145    2
    33    77    76    1
    34   144   145    1
    35    76    73    1
    36   145   147   am
    37    73    74    1
    38    92    91    1
    39    74    78   am
    40    74    75    2
    41    91    88    1
    42    82    79    1
    43    78    79    1
    44    79    80    1
    45    88    87    1
    46    88    89    1
    47    87    85   am
    48   148   149    1
    49    80    83   am
    50    80    81    2
    51    83    84    1
    52   102   100    1
    53    89    90    2
    54    89    96   am
    55    96    97    1
    56   149   152    1
    57   149   150    1
    58    85    84    1
    59    85    86    2
    60   152   153    1
    61    97   100    1
    62    97    98    1
    63   100   101    1
    64   153   154    1
    65   154   155    1
    66   150   151    2
    67   155   156    1
    68    98    99    2
    69    98   103   am
    70   115   116    1
    71   115   112    1
    72   111   112    1
    73   118   116   ar
    74   118   120   ar
    75   116   117   ar
    76   103   104    1
    77    54    52   ar
    78    54    55   ar
    79    52    50   ar
    80   120   121   ar
    81   112   113    1
    82   117   119   ar
    83    64    62   am
    84    56    57    1
    85    55    53   ar
    86    61    62    1
    87    61    60    1
    88   121   119   ar
    89   121   122    1
    90    50    49    1
    91    50    51   ar
    92    57    60    1
    93    57    58    1
    94    49    46    1
    95    62    63    2
    96   104   105    1
    97   104   107    1
    98   113   114    2
    99   105   106    2
   100    53    51   ar
   101   107   108    1
   102    58    59    2
   103    46    47    1
   104    46    45    1
   105    47    48    2
   106   108   110    1
   107   108   109    1
   108    45    39   am
   109    10    11   ar
   110    10     8   ar
   111    11     9   ar
   112    39    40    2
   113    39    38    1
   114     8     6   ar
   115    44    43    1
   116    18    16    1
   117     9     7   ar
   118    38    41    1
   119    38    37    1
   120    41    42    1
   121     6     7   ar
   122     6     5    1
   123     4     3    2
   124    42    43    1
   125    31    30    2
   126     5     2    1
   127    17    16    1
   128    16    13    1
   129    12    13    1
   130    37    30   am
   131     3     2    1
   132    13    14    1
   133    30    29    1
   134     2     1    1
   135    14    19   am
   136    14    15    2
   137    29    32    1
   138    29    28    1
   139    32    33    1
   140    19    20    1
   141    28    21   am
   142    34    33    1
   143    34    35    1
   144    21    20    1
   145    21    22    2
   146    20    23    1
   147    23    24    1
   148    36    35    1
   149    24    25    1
   150    27    26    1
   151    26    25    1
