@<TRIPOS>MOLECULE
tmp/5agaA01.pdb
 109 105 0 0 0
SMALL
GASTEIGER

@<TRIPOS>ATOM
      1  N         41.9100   23.6690   32.6510 N.3   263  ILE263     -0.1245
      2  CA        40.8800   23.2970   33.6190 C.3   263  ILE263      0.1561
      3  C         41.3680   22.2140   34.5810 C.2   263  ILE263      0.2260
      4  O         41.1310   22.2960   35.7860 O.2   263  ILE263     -0.2867
      5  CB        39.5950   22.8090   32.9170 C.3   263  ILE263      0.0252
      6  CG1       39.0860   23.8780   31.9520 C.3   263  ILE263      0.0019
      7  CG2       38.5180   22.4690   33.9380 C.3   263  ILE263      0.0019
      8  CD1       39.0000   25.2510   32.5700 C.3   263  ILE263      0.0001
      9  N         34.3480   18.2930   26.8050 N.3   290  PHE290     -0.1241
     10  CA        34.5670   18.2170   28.2460 C.3   290  PHE290      0.1605
     11  C         33.7310   17.1050   28.8710 C.2   290  PHE290      0.2264
     12  O         34.0950   16.5540   29.9090 O.2   290  PHE290     -0.2867
     13  CB        34.2400   19.5540   28.9170 C.3   290  PHE290      0.0534
     14  CG        35.3610   20.5510   28.8670 C.ar  290  PHE290     -0.0203
     15  CD1       36.5120   20.2850   28.1450 C.ar  290  PHE290     -0.0042
     16  CD2       35.2700   21.7480   29.5570 C.ar  290  PHE290     -0.0042
     17  CE1       37.5480   21.2010   28.1010 C.ar  290  PHE290     -0.0003
     18  CE2       36.3050   22.6670   29.5200 C.ar  290  PHE290     -0.0003
     19  CZ        37.4460   22.3910   28.7920 C.ar  290  PHE290     -0.0000
     20  N         35.8160   13.5080   30.2860 N.3   294  HIS294     -0.1241
     21  CA        35.7340   13.3030   31.7280 C.3   294  HIS294      0.1621
     22  C         35.2480   11.9000   32.0790 C.2   294  HIS294      0.2264
     23  O         35.7250   11.2910   33.0380 O.2   294  HIS294     -0.2867
     24  CB        34.8140   14.3460   32.3660 C.3   294  HIS294      0.0745
     25  CG        34.7260   14.2410   33.8560 C.ar  294  HIS294      0.0817
     26  ND1       33.6320   13.7070   34.5020 N.ar  294  HIS294     -0.2268
     27  CD2       35.5980   14.6000   34.8280 C.ar  294  HIS294      0.1154
     28  CE1       33.8330   13.7420   35.8060 C.ar  294  HIS294      0.1986
     29  NE2       35.0180   14.2790   36.0310 N.ar  294  HIS294     -0.2212
     30  N         25.8450   18.4480   37.3070 N.3   302  PRO302     -0.2116
     31  CA        26.0800   17.3700   38.2750 C.3   302  PRO302      0.1372
     32  C         25.8570   17.8320   39.7110 C.2   302  PRO302      0.2244
     33  O         25.9210   19.0300   39.9850 O.2   302  PRO302     -0.2868
     34  CB        27.5490   17.0040   38.0430 C.3   302  PRO302      0.0268
     35  CG        27.8230   17.4220   36.6390 C.3   302  PRO302      0.0207
     36  CD        27.0060   18.6600   36.4260 C.3   302  PRO302      0.0892
     37  N         27.0880   18.6970   42.9280 N.3   304  ILE304     -0.1245
     38  CA        28.3160   19.0430   43.6320 C.3   304  ILE304      0.1561
     39  C         28.0160   20.0670   44.7180 C.2   304  ILE304      0.2260
     40  O         26.9010   20.1250   45.2370 O.2   304  ILE304     -0.2867
     41  CB        29.3900   19.6170   42.6800 C.3   304  ILE304      0.0252
     42  CG1       28.9260   19.5430   41.2220 C.3   304  ILE304      0.0019
     43  CG2       30.7180   18.8950   42.8740 C.3   304  ILE304      0.0019
     44  CD1       29.8450   20.2540   40.2490 C.3   304  ILE304      0.0001
     45  N         28.4820   23.1710   43.9170 N.3   306  GLU306     -0.1245
     46  CA        28.1450   24.3110   43.0750 C.3   306  GLU306      0.1567
     47  C         26.9030   24.0520   42.2270 C.2   306  GLU306      0.2260
     48  O         26.5810   24.8410   41.3410 O.2   306  GLU306     -0.2867
     49  CB        29.3220   24.6720   42.1620 C.3   306  GLU306      0.0388
     50  CG        30.6090   25.0370   42.8910 C.3   306  GLU306      0.1160
     51  CD        31.4340   23.8230   43.2750 C.2   306  GLU306      0.3649
     52  OE1       31.0940   22.7060   42.8310 O.co2 306  GLU306     -0.2457
     53  OE2       32.4240   23.9860   44.0190 O.co2 306  GLU306     -0.2457
     54  N         24.9180   26.8780   40.0490 N.3   310  LEU310     -0.1245
     55  CA        24.8320   26.6610   38.6080 C.3   310  LEU310      0.1561
     56  C         23.3730   26.6820   38.1570 C.2   310  LEU310      0.2260
     57  O         23.0480   27.2200   37.0980 O.2   310  LEU310     -0.2867
     58  CB        25.4890   25.3360   38.2100 C.3   310  LEU310      0.0270
     59  CG        27.0190   25.2710   38.2010 C.3   310  LEU310      0.0019
     60  CD1       27.4860   23.8440   37.9660 C.3   310  LEU310      0.0001
     61  CD2       27.6030   26.2050   37.1520 C.3   310  LEU310      0.0001
     62  N         25.9880   23.9800   32.3000 N.3   333  PRO333     -0.2102
     63  CA        26.1240   22.8730   33.2590 C.3   333  PRO333      0.1504
     64  C         27.5430   22.3090   33.3890 C.2   333  PRO333      0.2576
     65  O         27.8350   21.6450   34.3830 O.2   333  PRO333     -0.2718
     66  CB        25.1870   21.8060   32.6910 C.3   333  PRO333      0.0282
     67  CG        24.1420   22.5770   31.9940 C.3   333  PRO333      0.0208
     68  CD        24.8420   23.7620   31.3940 C.3   333  PRO333      0.0893
     69  N         28.4050   22.5660   32.4090 N.am  334  TRP334     -0.1963
     70  CA        29.7810   22.0820   32.4730 C.3   334  TRP334      0.1771
     71  C         30.8090   23.2120   32.5210 C.2   334  TRP334      0.2620
     72  O         31.9070   23.0860   31.9790 O.2   334  TRP334     -0.2715
     73  CB        30.0670   21.1580   31.2900 C.3   334  TRP334      0.0590
     74  CG        29.5100   19.7920   31.5010 C.ar  334  TRP334      0.0006
     75  CD1       28.3770   19.2720   30.9480 C.ar  334  TRP334      0.0946
     76  CD2       30.0460   18.7730   32.3520 C.ar  334  TRP334      0.0152
     77  NE1       28.1810   17.9880   31.3930 N.ar  334  TRP334     -0.2442
     78  CE2       29.1920   17.6570   32.2570 C.ar  334  TRP334      0.0810
     79  CE3       31.1700   18.6940   33.1810 C.ar  334  TRP334      0.0012
     80  CZ2       29.4250   16.4770   32.9600 C.ar  334  TRP334      0.0191
     81  CZ3       31.4000   17.5220   33.8770 C.ar  334  TRP334      0.0001
     82  CH2       30.5320   16.4290   33.7620 C.ar  334  TRP334      0.0015
     83  N         30.4460   24.3070   33.1820 N.am  335  GLY335     -0.1954
     84  CA        31.3480   25.4270   33.3930 C.3   335  GLY335      0.1869
     85  C         31.8290   26.1210   32.1320 C.2   335  GLY335      0.2309
     86  O         32.9020   26.7200   32.1230 O.2   335  GLY335     -0.2863
     87  N         33.9170   31.3660   39.7800 N.3   358  GLY358     -0.1210
     88  CA        34.4880   30.0670   39.4700 C.3   358  GLY358      0.1956
     89  C         33.4660   29.0670   38.9590 C.2   358  GLY358      0.2611
     90  O         33.8120   27.9330   38.6330 O.2   358  GLY358     -0.2717
     91  N         32.2050   29.4820   38.8880 N.am  359  LEU359     -0.1979
     92  CA        31.1430   28.6170   38.3850 C.3   359  LEU359      0.1596
     93  C         31.3650   28.2850   36.9120 C.2   359  LEU359      0.2287
     94  O         31.1000   27.1680   36.4710 O.2   359  LEU359     -0.2864
     95  CB        29.7780   29.2780   38.5800 C.3   359  LEU359      0.0297
     96  CG        29.4250   29.6640   40.0180 C.3   359  LEU359      0.0022
     97  CD1       28.0670   30.3440   40.0740 C.3   359  LEU359      0.0001
     98  CD2       29.4570   28.4430   40.9240 C.3   359  LEU359      0.0001
     99  N         34.3450   28.0500   34.1060 N.3   361  ARG361     -0.1245
    100  CA        35.7970   27.9570   34.0060 C.3   361  ARG361      0.1563
    101  C         36.3100   28.3580   32.6240 C.2   361  ARG361      0.2260
    102  O         37.4230   28.8610   32.4910 O.2   361  ARG361     -0.2867
    103  CB        36.2570   26.5380   34.3420 C.3   361  ARG361      0.0307
    104  CG        36.1170   26.1540   35.8090 C.3   361  ARG361      0.0489
    105  CD        37.0100   27.0110   36.6910 C.3   361  ARG361      0.2205
    106  NE        37.4980   26.2850   37.8630 N.pl3 361  ARG361     -0.0865
    107  CZ        36.8980   26.2830   39.0490 C.cat 361  ARG361      0.5346
    108  NH1       35.7800   26.9680   39.2270 N.pl3 361  ARG361      0.1354
    109  NH2       37.4150   25.5980   40.0580 N.pl3 361  ARG361      0.1354
@<TRIPOS>BOND
     1     9    10    1
     2    17    15   ar
     3    17    19   ar
     4    15    14   ar
     5    10    11    1
     6    10    13    1
     7    19    18   ar
     8    14    13    1
     9    14    16   ar
    10    11    12    2
    11    18    16   ar
    12    20    21    1
    13    75    77   ar
    14    75    74   ar
    15    73    74    1
    16    73    70    1
    17    77    78   ar
    18    68    67    1
    19    68    62    1
    20    74    76   ar
    21    21    22    1
    22    21    24    1
    23     6     8    1
    24     6     5    1
    25    72    71    2
    26    67    66    1
    27    22    23    2
    28    86    85    2
    29    85    84    1
    30    78    76   ar
    31    78    80   ar
    32    62    63    1
    33    76    79   ar
    34    24    25    1
    35    69    70    1
    36    69    64   am
    37    70    71    1
    38   102   101    2
    39    71    83   am
    40   101   100    1
    41     1     2    1
    42    66    63    1
    43     5     2    1
    44     5     7    1
    45    80    82   ar
    46    79    81   ar
    47    83    84    1
    48    63    64    1
    49    64    65    2
    50     2     3    1
    51    82    81   ar
    52    25    26   ar
    53    25    27   ar
    54   100    99    1
    55   100   103    1
    56   103   104    1
    57    26    28   ar
    58     3     4    2
    59    27    29   ar
    60    28    29   ar
    61   104   105    1
    62    36    35    1
    63    36    30    1
    64    94    93    2
    65    35    34    1
    66   105   106    1
    67    93    92    1
    68    57    56    2
    69    61    59    1
    70    30    31    1
    71   106   107    2
    72    60    59    1
    73    34    31    1
    74    56    55    1
    75    59    58    1
    76    58    55    1
    77    31    32    1
    78    92    95    1
    79    92    91    1
    80    95    96    1
    81    55    54    1
    82    90    89    2
    83    91    89   am
    84    89    88    1
    85   107   108    1
    86   107   109    1
    87    88    87    1
    88    32    33    2
    89    96    97    1
    90    96    98    1
    91    44    42    1
    92    42    41    1
    93    48    47    2
    94    49    50    1
    95    49    46    1
    96    47    46    1
    97    41    43    1
    98    41    38    1
    99    52    51   ar
   100    50    51    1
   101    37    38    1
   102    46    45    1
   103    51    53   ar
   104    38    39    1
   105    39    40    2
