@<TRIPOS>MOLECULE
tmp/5agdB00.pdb
 187 181 0 0 0
SMALL
GASTEIGER

@<TRIPOS>ATOM
      1  N         -6.5170  -26.5590  -42.1170 N.3    43  TRP43      -0.1241
      2  CA        -6.4310  -25.3670  -41.2600 C.3    43  TRP43       0.1605
      3  C         -5.0230  -25.1720  -40.7370 C.2    43  TRP43       0.2264
      4  O         -4.5490  -24.0160  -40.6370 O.2    43  TRP43      -0.2867
      5  CB        -7.4520  -25.4280  -40.1210 C.3    43  TRP43       0.0550
      6  CG        -7.0850  -26.1540  -38.8700 C.ar   43  TRP43       0.0003
      7  CD1       -7.2920  -27.4680  -38.5590 C.ar   43  TRP43       0.0946
      8  CD2       -6.5010  -25.5470  -37.7100 C.ar   43  TRP43       0.0152
      9  NE1       -6.8430  -27.7160  -37.2720 N.ar   43  TRP43      -0.2442
     10  CE2       -6.3830  -26.5460  -36.7180 C.ar   43  TRP43       0.0810
     11  CE3       -6.0940  -24.2520  -37.3980 C.ar   43  TRP43       0.0012
     12  CZ2       -5.8440  -26.2840  -35.4630 C.ar   43  TRP43       0.0191
     13  CZ3       -5.6000  -24.0010  -36.1380 C.ar   43  TRP43       0.0001
     14  CH2       -5.4980  -24.9960  -35.1870 C.ar   43  TRP43       0.0015
     15  N        -16.5410  -25.7370  -42.0330 N.3    92  PHE92      -0.1241
     16  CA       -15.9330  -25.1090  -40.8530 C.3    92  PHE92       0.1605
     17  C        -15.5980  -23.6410  -41.1270 C.2    92  PHE92       0.2264
     18  O        -14.6820  -23.3310  -41.9130 O.2    92  PHE92      -0.2867
     19  CB       -14.6690  -25.8710  -40.4660 C.3    92  PHE92       0.0534
     20  CG       -14.9020  -27.2760  -40.0130 C.ar   92  PHE92      -0.0203
     21  CD1      -15.2140  -27.5320  -38.6960 C.ar   92  PHE92      -0.0042
     22  CD2      -14.7480  -28.3390  -40.8880 C.ar   92  PHE92      -0.0042
     23  CE1      -15.3700  -28.8300  -38.2480 C.ar   92  PHE92      -0.0003
     24  CE2      -14.9110  -29.6300  -40.4630 C.ar   92  PHE92      -0.0003
     25  CZ       -15.2240  -29.8780  -39.1350 C.ar   92  PHE92      -0.0000
     26  N        -14.1580  -21.5660  -39.1570 N.3    94  ASP94      -0.1225
     27  CA       -12.7690  -21.3560  -38.7430 C.3    94  ASP94       0.1805
     28  C        -11.7570  -21.7880  -39.7940 C.2    94  ASP94       0.2597
     29  O        -10.7720  -21.0830  -40.0470 O.2    94  ASP94      -0.2718
     30  CB       -12.4920  -21.9400  -37.3540 C.3    94  ASP94       0.1424
     31  CG       -12.8930  -23.3730  -37.1740 C.2    94  ASP94       0.3668
     32  OD1      -13.4920  -23.9730  -38.0910 O.co2  94  ASP94      -0.2456
     33  OD2      -12.5950  -23.9020  -36.0690 O.co2  94  ASP94      -0.2456
     34  N        -11.9640  -22.9390  -40.4210 N.am   95  ASN95      -0.1974
     35  CA       -11.0380  -23.3390  -41.4820 C.3    95  ASN95       0.1688
     36  C        -10.9130  -22.2230  -42.5060 C.2    95  ASN95       0.2292
     37  O         -9.8280  -21.9040  -42.9800 O.2    95  ASN95      -0.2864
     38  CB       -11.5600  -24.6120  -42.1820 C.3    95  ASN95       0.1181
     39  CG       -11.1830  -25.8960  -41.4860 C.2    95  ASN95       0.2629
     40  OD1      -10.9580  -25.9520  -40.2660 O.2    95  ASN95      -0.2716
     41  ND2      -11.1040  -26.9510  -42.2370 N.am   95  ASN95      -0.0877
     42  N         -9.0790  -18.9770  -40.8810 N.3    98  TRP98      -0.1241
     43  CA        -7.6290  -19.1140  -40.7170 C.3    98  TRP98       0.1605
     44  C         -6.9200  -18.7940  -42.0620 C.2    98  TRP98       0.2264
     45  O         -5.8800  -18.1140  -42.1000 O.2    98  TRP98      -0.2867
     46  CB        -7.2310  -20.4880  -40.2150 C.3    98  TRP98       0.0550
     47  CG        -7.6280  -20.8430  -38.8160 C.ar   98  TRP98       0.0003
     48  CD1       -8.4690  -21.8440  -38.4640 C.ar   98  TRP98       0.0946
     49  CD2       -7.1450  -20.2870  -37.5760 C.ar   98  TRP98       0.0152
     50  NE1       -8.5880  -21.9420  -37.0980 N.ar   98  TRP98      -0.2442
     51  CE2       -7.7660  -21.0050  -36.5250 C.ar   98  TRP98       0.0810
     52  CE3       -6.2520  -19.2610  -37.2450 C.ar   98  TRP98       0.0012
     53  CZ2       -7.5200  -20.7390  -35.1930 C.ar   98  TRP98       0.0191
     54  CZ3       -6.0070  -19.0110  -35.9090 C.ar   98  TRP98       0.0001
     55  CH2       -6.6400  -19.7240  -34.9050 C.ar   98  TRP98       0.0015
     56  N        -19.5410  -21.5720  -35.3900 N.3   142  TRP142     -0.1241
     57  CA       -18.3970  -22.4030  -35.7520 C.3   142  TRP142      0.1605
     58  C        -18.5110  -22.9820  -37.1540 C.2   142  TRP142      0.2264
     59  O        -17.5150  -22.9700  -37.8990 O.2   142  TRP142     -0.2867
     60  CB       -18.2990  -23.5570  -34.7440 C.3   142  TRP142      0.0550
     61  CG       -17.0670  -24.4280  -34.8760 C.ar  142  TRP142      0.0003
     62  CD1      -15.7590  -23.9990  -35.1460 C.ar  142  TRP142      0.0946
     63  CD2      -16.9870  -25.8420  -34.7050 C.ar  142  TRP142      0.0152
     64  NE1      -14.9220  -25.0710  -35.1430 N.ar  142  TRP142     -0.2442
     65  CE2      -15.6270  -26.2090  -34.8680 C.ar  142  TRP142      0.0810
     66  CE3      -17.9350  -26.8470  -34.4120 C.ar  142  TRP142      0.0012
     67  CZ2      -15.1960  -27.5340  -34.7850 C.ar  142  TRP142      0.0191
     68  CZ3      -17.4900  -28.1640  -34.3200 C.ar  142  TRP142      0.0001
     69  CH2      -16.1370  -28.4940  -34.5050 C.ar  142  TRP142      0.0015
     70  N        -17.6960  -20.1700  -31.2550 N.3   151  ASN151     -0.1240
     71  CA       -16.4270  -20.5870  -30.6690 C.3   151  ASN151      0.1653
     72  C        -15.3730  -19.4730  -30.6980 C.2   151  ASN151      0.2266
     73  O        -15.3100  -18.6840  -31.6490 O.2   151  ASN151     -0.2867
     74  CB       -15.8600  -21.8350  -31.4080 C.3   151  ASN151      0.1155
     75  CG       -16.7330  -23.0840  -31.3210 C.2   151  ASN151      0.2627
     76  OD1      -16.2260  -24.2140  -31.1320 O.2   151  ASN151     -0.2716
     77  ND2      -18.0110  -22.8960  -31.4650 N.am  151  ASN151     -0.0877
     78  N        -12.3330  -20.0120  -31.4470 N.3   153  CYS153     -0.1235
     79  CA       -11.4480  -20.3290  -32.5700 C.3   153  CYS153      0.1677
     80  C        -11.9340  -19.8300  -33.9200 C.2   153  CYS153      0.2270
     81  O        -11.1780  -19.8910  -34.8900 O.2   153  CYS153     -0.2867
     82  CB       -11.2050  -21.8420  -32.6190 C.3   153  CYS153      0.0956
     83  SG       -12.6750  -22.8640  -32.8750 S.3   153  CYS153     -0.0801
     84  N        -13.7460  -21.6750  -24.4170 N.3   198  ASP198     -0.1225
     85  CA       -13.6370  -22.3510  -25.6840 C.3   198  ASP198      0.1805
     86  C        -14.7900  -22.0090  -26.6240 C.2   198  ASP198      0.2597
     87  O        -14.5870  -21.7080  -27.8090 O.2   198  ASP198     -0.2718
     88  CB       -13.5850  -23.8600  -25.4770 C.3   198  ASP198      0.1424
     89  CG       -13.2040  -24.5830  -26.7510 C.2   198  ASP198      0.3668
     90  OD1      -11.9640  -24.6030  -27.0310 O.co2 198  ASP198     -0.2456
     91  OD2      -14.1030  -25.0530  -27.4990 O.co2 198  ASP198     -0.2456
     92  N        -16.0210  -22.0450  -26.1110 N.am  199  ARG199     -0.1979
     93  CA       -17.2020  -21.9330  -26.9620 C.3   199  ARG199      0.1597
     94  C        -18.4310  -21.7640  -26.1170 C.2   199  ARG199      0.2287
     95  O        -18.3910  -21.9690  -24.9000 O.2   199  ARG199     -0.2864
     96  CB       -17.3620  -23.1820  -27.8600 C.3   199  ARG199      0.0334
     97  CG       -17.6110  -24.4760  -27.1090 C.3   199  ARG199      0.0492
     98  CD       -17.4970  -25.7180  -27.9900 C.3   199  ARG199      0.2205
     99  NE       -17.7400  -26.9460  -27.2470 N.pl3 199  ARG199     -0.0865
    100  CZ       -16.8520  -27.5630  -26.4660 C.cat 199  ARG199      0.5346
    101  NH1      -15.6230  -27.0960  -26.3360 N.pl3 199  ARG199      0.1354
    102  NH2      -17.1910  -28.6640  -25.7950 N.pl3 199  ARG199      0.1354
    103  N        -13.3380  -23.9960  -20.9730 N.3   209  ASP209     -0.1225
    104  CA       -12.0390  -24.6270  -21.1130 C.3   209  ASP209      0.1805
    105  C        -11.0920  -23.6950  -21.8550 C.2   209  ASP209      0.2598
    106  O        -11.3920  -23.3170  -22.9730 O.2   209  ASP209     -0.2718
    107  CB       -12.1720  -25.9110  -21.9490 C.3   209  ASP209      0.1424
    108  CG       -12.9690  -27.0090  -21.2790 C.2   209  ASP209      0.3668
    109  OD1      -13.0440  -27.0350  -20.0460 O.co2 209  ASP209     -0.2456
    110  OD2      -13.4910  -27.8590  -22.0220 O.co2 209  ASP209     -0.2456
    111  N         -9.9900  -23.2980  -21.2160 N.am  210  ALA210     -0.1966
    112  CA        -9.0370  -22.4100  -21.8390 C.3   210  ALA210      0.1728
    113  C         -7.9340  -23.1820  -22.5480 C.2   210  ALA210      0.2616
    114  O         -7.5390  -24.2490  -22.0830 O.2   210  ALA210     -0.2715
    115  CB        -8.4430  -21.4770  -20.8110 C.3   210  ALA210      0.0334
    116  N         -7.4250  -22.6240  -23.6570 N.am  211  THR211     -0.1951
    117  CA        -6.3460  -23.2500  -24.4120 C.3   211  THR211      0.1897
    118  C         -5.4110  -22.1820  -24.9390 C.2   211  THR211      0.2313
    119  O         -5.7480  -20.9920  -25.0600 O.2   211  THR211     -0.2863
    120  CB        -6.8800  -24.0210  -25.6290 C.3   211  THR211      0.1794
    121  OG1       -7.6560  -23.1480  -26.4470 O.3   211  THR211     -0.2208
    122  CG2       -7.6670  -25.2440  -25.1910 C.3   211  THR211      0.0378
    123  N         -4.2370  -21.6010  -27.9960 N.3   213  TYR213     -0.1227
    124  CA        -4.4920  -20.8820  -29.2360 C.3   213  TYR213      0.1736
    125  C         -5.5910  -19.8460  -29.0920 C.2   213  TYR213      0.2595
    126  O         -5.5700  -18.8230  -29.8180 O.2   213  TYR213     -0.2718
    127  CB        -4.7370  -21.8070  -30.4490 C.3   213  TYR213      0.0548
    128  CG        -6.0850  -22.5160  -30.5930 C.ar  213  TYR213     -0.0200
    129  CD1       -6.7820  -23.0730  -29.5110 C.ar  213  TYR213     -0.0009
    130  CD2       -6.6450  -22.6820  -31.8590 C.ar  213  TYR213     -0.0009
    131  CE1       -7.9620  -23.7760  -29.7110 C.ar  213  TYR213      0.0417
    132  CE2       -7.8120  -23.3770  -32.0460 C.ar  213  TYR213      0.0417
    133  CZ        -8.4810  -23.9250  -30.9670 C.ar  213  TYR213      0.1957
    134  OH        -9.6300  -24.6460  -31.2290 O.3   213  TYR213     -0.2866
    135  N         -6.5340  -20.0630  -28.1720 N.am  214  ASN214     -0.1974
    136  CA        -7.6070  -19.0850  -27.9380 C.3   214  ASN214      0.1688
    137  C         -7.1320  -17.9210  -27.0790 C.2   214  ASN214      0.2292
    138  O         -7.4860  -16.7770  -27.3330 O.2   214  ASN214     -0.2864
    139  CB        -8.8640  -19.7720  -27.3760 C.3   214  ASN214      0.1181
    140  CG        -9.6230  -20.5560  -28.4350 C.2   214  ASN214      0.2629
    141  OD1       -9.6170  -20.2240  -29.6230 O.2   214  ASN214     -0.2716
    142  ND2      -10.3130  -21.5990  -27.9870 N.am  214  ASN214     -0.0877
    143  N          2.0780  -25.5110  -21.1050 N.3   257  ASN257     -0.1240
    144  CA         1.5380  -26.8620  -21.1780 C.3   257  ASN257      0.1653
    145  C          1.7470  -27.5210  -22.5350 C.2   257  ASN257      0.2266
    146  O          1.7990  -26.8590  -23.5570 O.2   257  ASN257     -0.2867
    147  CB         0.0330  -26.8370  -20.9120 C.3   257  ASN257      0.1155
    148  CG        -0.3060  -26.5740  -19.4800 C.2   257  ASN257      0.2627
    149  OD1        0.5080  -26.7480  -18.5820 O.2   257  ASN257     -0.2716
    150  ND2       -1.5450  -26.1860  -19.2450 N.am  257  ASN257     -0.0877
    151  N         -0.5330  -29.6300  -24.8390 N.3   259  GLU259     -0.1231
    152  CA        -1.9730  -29.8180  -24.9630 C.3   259  GLU259      0.1699
    153  C         -2.3680  -31.0400  -25.8150 C.2   259  GLU259      0.2592
    154  O         -3.5500  -31.2060  -26.1430 O.2   259  GLU259     -0.2718
    155  CB        -2.6450  -28.5450  -25.4900 C.3   259  GLU259      0.0402
    156  CG        -2.5310  -27.3510  -24.5480 C.3   259  GLU259      0.1161
    157  CD        -3.2230  -26.1180  -25.0990 C.2   259  GLU259      0.3649
    158  OE1       -3.2720  -25.9770  -26.3560 O.co2 259  GLU259     -0.2457
    159  OE2       -3.6720  -25.2760  -24.3000 O.co2 259  GLU259     -0.2457
    160  N         -1.4030  -31.8870  -26.1600 N.am  260  GLY260     -0.1957
    161  CA        -1.7620  -33.1980  -26.6740 C.3   260  GLY260      0.1869
    162  C         -2.4830  -34.0200  -25.6010 C.2   260  GLY260      0.2309
    163  O         -2.4820  -33.6700  -24.4190 O.2   260  GLY260     -0.2863
    164  N         -4.7240  -34.3390  -28.1390 N.3   262  ASN262     -0.1240
    165  CA        -5.5960  -33.7920  -29.1760 C.3   262  ASN262      0.1653
    166  C         -4.7580  -33.2340  -30.3230 C.2   262  ASN262      0.2266
    167  O         -3.8680  -32.3890  -30.1020 O.2   262  ASN262     -0.2867
    168  CB        -6.5130  -32.7210  -28.6100 C.3   262  ASN262      0.1155
    169  CG        -7.4180  -32.1180  -29.6550 C.2   262  ASN262      0.2627
    170  OD1       -6.9770  -31.3250  -30.4700 O.2   262  ASN262     -0.2716
    171  ND2       -8.6850  -32.5010  -29.6590 N.am  262  ASN262     -0.0877
    172  N         -5.4630  -31.1960  -32.9090 N.3   264  ASP264     -0.1225
    173  CA        -5.6200  -29.7710  -33.1850 C.3   264  ASP264      0.1805
    174  C         -4.9140  -28.9020  -32.1400 C.2   264  ASP264      0.2597
    175  O         -4.3440  -27.8540  -32.4960 O.2   264  ASP264     -0.2718
    176  CB        -7.0950  -29.4050  -33.2610 C.3   264  ASP264      0.1424
    177  CG        -7.8160  -30.0620  -34.4260 C.2   264  ASP264      0.3668
    178  OD1       -7.2450  -30.1120  -35.5540 O.co2 264  ASP264     -0.2456
    179  OD2       -8.9910  -30.4630  -34.2310 O.co2 264  ASP264     -0.2456
    180  N         -4.9850  -29.3000  -30.8650 N.am  265  LEU265     -0.1979
    181  CA        -4.4090  -28.5140  -29.7930 C.3   265  LEU265      0.1596
    182  C         -2.9020  -28.7000  -29.6450 C.2   265  LEU265      0.2287
    183  O         -2.2360  -27.8150  -29.1070 O.2   265  LEU265     -0.2864
    184  CB        -5.0880  -28.7920  -28.4630 C.3   265  LEU265      0.0297
    185  CG        -6.5860  -28.5490  -28.3680 C.3   265  LEU265      0.0022
    186  CD1       -7.0780  -28.9120  -26.9940 C.3   265  LEU265      0.0001
    187  CD2       -6.9010  -27.0930  -28.6830 C.3   265  LEU265      0.0001
@<TRIPOS>BOND
     1    37    36    2
     2    36    35    1
     3    41    39   am
     4    38    39    1
     5    38    35    1
     6     1     2    1
     7    45    44    2
     8    44    43    1
     9    15    16    1
    10    18    17    2
    11    39    40    2
    12    35    34    1
    13     2     3    1
    14     2     5    1
    15    17    16    1
    16    22    24   ar
    17    22    20   ar
    18    42    43    1
    19    16    19    1
    20     3     4    2
    21    43    46    1
    22    19    20    1
    23    24    25   ar
    24    34    28   am
    25    46    47    1
    26     5     6    1
    27    29    28    2
    28    20    21   ar
    29    28    27    1
    30    26    27    1
    31    25    23   ar
    32     6     7   ar
    33     6     8   ar
    34    47    48   ar
    35    47    49   ar
    36    27    30    1
    37    21    23   ar
    38     7     9   ar
    39    48    50   ar
    40    32    31   ar
    41    59    58    2
    42     8    11   ar
    43     8    10   ar
    44    49    52   ar
    45    49    51   ar
    46    11    13   ar
    47    30    31    1
    48     9    10   ar
    49    52    54   ar
    50    31    33   ar
    51    58    57    1
    52    50    51   ar
    53    10    12   ar
    54    51    53   ar
    55    13    14   ar
    56    54    55   ar
    57    57    56    1
    58    57    60    1
    59   178   177   ar
    60    12    14   ar
    61    53    55   ar
    62    62    64   ar
    63    62    61   ar
    64    64    65   ar
    65    81    80    2
    66    61    60    1
    67    61    63   ar
    68    65    67   ar
    69    65    63   ar
    70    67    69   ar
    71    63    66   ar
    72    69    68   ar
    73   177   179   ar
    74   177   176    1
    75    66    68   ar
    76    80    79    1
    77   176   173    1
    78   173   172    1
    79   173   174    1
    80    83    82    1
    81    82    79    1
    82    79    78    1
    83   175   174    2
    84   174   180   am
    85   132   130   ar
    86   132   133   ar
    87   130   128   ar
    88    73    72    2
    89    77    75   am
    90    74    75    1
    91    74    71    1
    92    75    76    2
    93    70    71    1
    94   134   133    1
    95   133   131   ar
    96   180   181    1
    97    72    71    1
    98   128   127    1
    99   128   129   ar
   100   170   169    2
   101   127   124    1
   102   166   167    2
   103   166   165    1
   104   126   125    2
   105   181   182    1
   106   181   184    1
   107   131   129   ar
   108   171   169   am
   109   169   168    1
   110   182   183    2
   111   141   140    2
   112   124   125    1
   113   124   123    1
   114   165   168    1
   115   165   164    1
   116   125   135   am
   117   187   185    1
   118   184   185    1
   119   140   142   am
   120   140   139    1
   121   185   186    1
   122   135   136    1
   123    98    99    1
   124    98    97    1
   125   136   139    1
   126   136   137    1
   127    96    97    1
   128    96    93    1
   129    87    86    2
   130    91    89   ar
   131   138   137    2
   132    99   100    2
   133    90    89   ar
   134    93    94    1
   135    93    92    1
   136    89    88    1
   137   161   160    1
   138   161   162    1
   139    86    92   am
   140    86    85    1
   141   100   101    1
   142   100   102    1
   143   121   120    1
   144   158   157   ar
   145   160   153   am
   146   154   153    2
   147    94    95    2
   148   153   152    1
   149    85    88    1
   150    85    84    1
   151   120   122    1
   152   120   117    1
   153   162   163    2
   154   155   152    1
   155   155   156    1
   156   157   156    1
   157   157   159   ar
   158   119   118    2
   159   152   151    1
   160   118   117    1
   161   117   116    1
   162   116   113   am
   163   146   145    2
   164   106   105    2
   165   113   114    2
   166   113   112    1
   167   145   144    1
   168   110   108   ar
   169   107   108    1
   170   107   104    1
   171   105   111   am
   172   105   104    1
   173   112   111    1
   174   112   115    1
   175   108   109   ar
   176   144   143    1
   177   144   147    1
   178   104   103    1
   179   147   148    1
   180   148   150   am
   181   148   149    2
