@<TRIPOS>MOLECULE
tmp/5ageA00.pdb
 228 220 0 0 0
SMALL
GASTEIGER

@<TRIPOS>ATOM
      1  N         28.2720   -6.8460   17.2420 N.3    70  TYR70      -0.1227
      2  CA        27.7370   -6.2380   16.0280 C.3    70  TYR70       0.1736
      3  C         28.5420   -4.9760   15.7450 C.2    70  TYR70       0.2595
      4  O         29.6270   -4.8120   16.2750 O.2    70  TYR70      -0.2718
      5  CB        26.2170   -6.0430   16.1280 C.3    70  TYR70       0.0548
      6  CG        25.4800   -5.7410   14.8200 C.ar   70  TYR70      -0.0200
      7  CD1       25.6730   -6.5440   13.6880 C.ar   70  TYR70      -0.0009
      8  CD2       24.5500   -4.6710   14.7340 C.ar   70  TYR70      -0.0009
      9  CE1       25.0230   -6.2960   12.5270 C.ar   70  TYR70       0.0417
     10  CE2       23.8820   -4.3670   13.4860 C.ar   70  TYR70       0.0417
     11  CZ        24.1310   -5.2260   12.4080 C.ar   70  TYR70       0.1957
     12  OH        23.5240   -5.0320   11.2040 O.3    70  TYR70      -0.2866
     13  N         28.0250   -4.0970   14.9050 N.am   71  VAL71      -0.1966
     14  CA        28.7560   -2.8870   14.4600 C.3    71  VAL71       0.1727
     15  C         29.1960   -1.9380   15.5770 C.2    71  VAL71       0.2616
     16  O         28.4280   -1.5620   16.4230 O.2    71  VAL71      -0.2715
     17  CB        27.9060   -2.0170   13.4370 C.3    71  VAL71       0.0290
     18  CG1       28.7560   -0.8410   12.9080 C.3    71  VAL71       0.0023
     19  CG2       27.3830   -2.9230   12.2980 C.3    71  VAL71       0.0023
     20  N         30.4590   -1.5120   15.4560 N.am   72  GLU72      -0.1963
     21  CA        31.0830   -0.4860   16.2600 C.3    72  GLU72       0.1733
     22  C         31.4130    0.7080   15.3760 C.2    72  GLU72       0.2616
     23  O         31.5350    0.5480   14.1970 O.2    72  GLU72      -0.2715
     24  CB        32.3580   -1.0810   16.8730 C.3    72  GLU72       0.0429
     25  CG        32.0440   -2.1460   17.9090 C.3    72  GLU72       0.1163
     26  CD        33.2730   -2.8440   18.4440 C.2    72  GLU72       0.3649
     27  OE1       34.4080   -2.4620   18.0760 O.co2  72  GLU72      -0.2457
     28  OE2       33.0680   -3.7860   19.2160 O.co2  72  GLU72      -0.2457
     29  N         31.5350    1.9120   15.9510 N.am   73  ASP73      -0.1971
     30  CA        31.9870    3.0940   15.1920 C.3    73  ASP73       0.1709
     31  C         33.4530    2.8790   14.8120 C.2    73  ASP73       0.2293
     32  O         34.0220    1.8530   15.1700 O.2    73  ASP73      -0.2864
     33  CB        31.8180    4.3360   16.0590 C.3    73  ASP73       0.1436
     34  CG        32.7770    4.3170   17.2330 C.2    73  ASP73       0.3671
     35  OD1       32.7690    3.3130   17.9370 O.co2  73  ASP73      -0.2456
     36  OD2       33.5980    5.2440   17.4210 O.co2  73  ASP73      -0.2456
     37  N         34.2730    3.1500   20.1630 N.3    77  MET77      -0.1230
     38  CA        33.7470    3.8630   21.3330 C.3    77  MET77       0.1702
     39  C         32.2830    3.4520   21.5770 C.2    77  MET77       0.2592
     40  O         31.7650    3.5780   22.7070 O.2    77  MET77      -0.2718
     41  CB        33.8000    5.3790   21.0650 C.3    77  MET77       0.0401
     42  CG        35.2280    5.9790   21.1690 C.3    77  MET77       0.0596
     43  SD        35.6310    7.5110   20.2330 S.3    77  MET77      -0.1393
     44  CE        34.0610    8.2860   19.8610 C.3    77  MET77       0.0692
     45  N         31.5970    3.0450   20.4920 N.am   78  PHE78      -0.1976
     46  CA        30.1680    2.7340   20.5540 C.3    78  PHE78       0.1639
     47  C         29.8790    1.4410   19.8430 C.2    78  PHE78       0.2290
     48  O         30.5340    1.1720   18.8430 O.2    78  PHE78      -0.2864
     49  CB        29.3440    3.8650   19.9060 C.3    78  PHE78       0.0560
     50  CG        29.6050    5.2030   20.5090 C.ar   78  PHE78      -0.0200
     51  CD1       29.0270    5.5450   21.7160 C.ar   78  PHE78      -0.0042
     52  CD2       30.4470    6.1090   19.8800 C.ar   78  PHE78      -0.0042
     53  CE1       29.2770    6.8270   22.3250 C.ar   78  PHE78      -0.0003
     54  CE2       30.7170    7.3850   20.4660 C.ar   78  PHE78      -0.0003
     55  CZ        30.1240    7.7260   21.6970 C.ar   78  PHE78      -0.0000
     56  N         26.3630   -0.8410   18.4920 N.3    80  PHE80      -0.1241
     57  CA        24.9020   -0.8810   18.4450 C.3    80  PHE80       0.1605
     58  C         24.4380   -1.8580   19.5230 C.2    80  PHE80       0.2264
     59  O         25.0530   -2.9430   19.7210 O.2    80  PHE80      -0.2867
     60  CB        24.4020   -1.3870   17.0950 C.3    80  PHE80       0.0534
     61  CG        24.3920   -0.3380   15.9650 C.ar   80  PHE80      -0.0203
     62  CD1       23.9520    0.9340   16.1670 C.ar   80  PHE80      -0.0042
     63  CD2       24.8130   -0.6840   14.6870 C.ar   80  PHE80      -0.0042
     64  CE1       23.9060    1.8680   15.0950 C.ar   80  PHE80      -0.0003
     65  CE2       24.7920    0.2460   13.6270 C.ar   80  PHE80      -0.0003
     66  CZ        24.3380    1.5240   13.8330 C.ar   80  PHE80      -0.0000
     67  N         20.9040   -2.9010   19.6410 N.3    82  TYR82      -0.1241
     68  CA        19.4810   -3.1050   19.2900 C.3    82  TYR82       0.1605
     69  C         18.7470   -3.8760   20.3650 C.2    82  TYR82       0.2264
     70  O         19.2070   -4.9360   20.7830 O.2    82  TYR82      -0.2867
     71  CB        19.3600   -3.9250   17.9880 C.3    82  TYR82       0.0534
     72  CG        19.7820   -3.1860   16.7200 C.ar   82  TYR82      -0.0201
     73  CD1       21.1190   -3.1770   16.2600 C.ar   82  TYR82      -0.0009
     74  CD2       18.8250   -2.5250   15.9530 C.ar   82  TYR82      -0.0009
     75  CE1       21.4760   -2.4620   15.0520 C.ar   82  TYR82       0.0417
     76  CE2       19.1690   -1.8570   14.7930 C.ar   82  TYR82       0.0417
     77  CZ        20.4700   -1.8330   14.3290 C.ar   82  TYR82       0.1957
     78  OH        20.6810   -1.1500   13.1190 O.3    82  TYR82      -0.2866
     79  N         20.0100   -7.8260    6.5450 N.3   157  ASN157     -0.1240
     80  CA        20.5160   -6.9700    7.6030 C.3   157  ASN157      0.1653
     81  C         21.0240   -7.9160    8.7130 C.2   157  ASN157      0.2266
     82  O         20.7340   -9.1230    8.7280 O.2   157  ASN157     -0.2867
     83  CB        19.2850   -6.1190    8.0980 C.3   157  ASN157      0.1155
     84  CG        19.6610   -4.8120    8.7810 C.2   157  ASN157      0.2627
     85  OD1       20.8090   -4.5790    9.2050 O.2   157  ASN157     -0.2716
     86  ND2       18.6600   -3.9530    8.9240 N.am  157  ASN157     -0.0877
     87  N         22.3540   -2.7070    2.8450 N.3   193  THR193     -0.1203
     88  CA        23.2190   -1.5690    3.0960 C.3   193  THR193      0.1994
     89  C         24.3680   -1.9940    4.0510 C.2   193  THR193      0.2618
     90  O         24.2550   -2.9550    4.8480 O.2   193  THR193     -0.2717
     91  CB        22.4560   -0.3770    3.7430 C.3   193  THR193      0.1784
     92  OG1       21.7890   -0.8000    4.9420 O.3   193  THR193     -0.2211
     93  CG2       21.4220    0.3000    2.7450 C.3   193  THR193      0.0376
     94  N         25.4680   -1.2920    3.9630 N.am  194  ALA194     -0.1965
     95  CA        26.5950   -1.4990    4.8790 C.3   194  ALA194      0.1728
     96  C         27.3700   -0.1760    5.0650 C.2   194  ALA194      0.2616
     97  O         27.3120    0.7030    4.2230 O.2   194  ALA194     -0.2715
     98  CB        27.5310   -2.5860    4.3360 C.3   194  ALA194      0.0334
     99  N         28.0720   -0.0540    6.1870 N.am  195  GLY195     -0.1955
    100  CA        28.9330    1.1100    6.3960 C.3   195  GLY195      0.1869
    101  C         30.3100    0.9250    5.7660 C.2   195  GLY195      0.2309
    102  O         31.0700    1.8690    5.7570 O.2   195  GLY195     -0.2863
    103  N         26.3280   10.0420    6.7730 N.3   207  TYR207     -0.1241
    104  CA        25.6190   10.1870    8.0260 C.3   207  TYR207      0.1605
    105  C         25.6210   11.6070    8.6060 C.2   207  TYR207      0.2264
    106  O         26.5950   12.3530    8.4130 O.2   207  TYR207     -0.2867
    107  CB        26.1860    9.2020    9.0770 C.3   207  TYR207      0.0534
    108  CG        25.5080    7.8510    9.0620 C.ar  207  TYR207     -0.0201
    109  CD1       25.9750    6.8360    8.2350 C.ar  207  TYR207     -0.0009
    110  CD2       24.4400    7.5920    9.8650 C.ar  207  TYR207     -0.0009
    111  CE1       25.3540    5.6080    8.1930 C.ar  207  TYR207      0.0417
    112  CE2       23.8480    6.3740    9.8930 C.ar  207  TYR207      0.0417
    113  CZ        24.2950    5.3850    9.0150 C.ar  207  TYR207      0.1957
    114  OH        23.6670    4.1590    8.9910 O.3   207  TYR207     -0.2866
    115  N         24.2900   13.9460   12.1960 N.3   209  HIS209     -0.1241
    116  CA        23.9700   13.8320   13.6270 C.3   209  HIS209      0.1621
    117  C         23.5650   15.1830   14.1610 C.2   209  HIS209      0.2264
    118  O         24.1410   16.2080   13.7830 O.2   209  HIS209     -0.2867
    119  CB        25.1950   13.3060   14.3950 C.3   209  HIS209      0.0745
    120  CG        25.8510   12.1250   13.7240 C.ar  209  HIS209      0.0817
    121  ND1       25.3780   10.8320   13.8660 N.ar  209  HIS209     -0.2268
    122  CD2       26.9540   12.0390   12.9250 C.ar  209  HIS209      0.1154
    123  CE1       26.1500   10.0070   13.1650 C.ar  209  HIS209      0.1986
    124  NE2       27.1000   10.7180   12.5650 N.ar  209  HIS209     -0.2212
    125  N         31.3860   11.4450   21.8090 N.3   222  PHE222     -0.1241
    126  CA        30.6490   11.3540   20.5610 C.3   222  PHE222      0.1605
    127  C         31.0000   12.5440   19.6540 C.2   222  PHE222      0.2264
    128  O         31.2720   12.3590   18.4700 O.2   222  PHE222     -0.2867
    129  CB        29.1420   11.2760   20.8460 C.3   222  PHE222      0.0534
    130  CG        28.2850   11.1600   19.6090 C.ar  222  PHE222     -0.0203
    131  CD1       28.0530   12.2790   18.7900 C.ar  222  PHE222     -0.0042
    132  CD2       27.6930    9.9250   19.2620 C.ar  222  PHE222     -0.0042
    133  CE1       27.2450   12.1930   17.6470 C.ar  222  PHE222     -0.0003
    134  CE2       26.8770    9.8090   18.1120 C.ar  222  PHE222     -0.0003
    135  CZ        26.6440   10.9600   17.3070 C.ar  222  PHE222     -0.0000
    136  N         17.7130    3.2650   18.4560 N.3   318  ILE318     -0.1245
    137  CA        18.7260    2.2190   18.6600 C.3   318  ILE318      0.1561
    138  C         19.7130    2.7480   19.6870 C.2   318  ILE318      0.2260
    139  O         20.4510    3.7050   19.3860 O.2   318  ILE318     -0.2867
    140  CB        19.5290    1.8330   17.3790 C.3   318  ILE318      0.0252
    141  CG1       18.6230    1.4340   16.2090 C.3   318  ILE318      0.0019
    142  CG2       20.5000    0.6070   17.6600 C.3   318  ILE318      0.0019
    143  CD1       19.3160    1.5970   14.8290 C.3   318  ILE318      0.0001
    144  N         23.2000    2.4770   21.8460 N.3   320  SER320     -0.1217
    145  CA        24.5390    1.9720   21.5840 C.3   320  SER320      0.1889
    146  C         25.2770    1.8250   22.9160 C.2   320  SER320      0.2288
    147  O         25.2230    2.7260   23.7440 O.2   320  SER320     -0.2866
    148  CB        25.3030    2.9680   20.7250 C.3   320  SER320      0.2089
    149  OG        24.9430    2.7690   19.3920 O.3   320  SER320     -0.2183
    150  N         24.4390    5.2620   24.8440 N.3   331  LEU331     -0.1245
    151  CA        24.1020    6.4200   24.0300 C.3   331  LEU331      0.1561
    152  C         22.6330    6.2200   23.5100 C.2   331  LEU331      0.2260
    153  O         22.3490    5.2000   22.9070 O.2   331  LEU331     -0.2867
    154  CB        25.0820    6.5340   22.8720 C.3   331  LEU331      0.0270
    155  CG        24.7390    7.3940   21.6300 C.3   331  LEU331      0.0019
    156  CD1       24.7970    8.8590   21.9510 C.3   331  LEU331      0.0001
    157  CD2       25.6270    7.0880   20.4000 C.3   331  LEU331      0.0001
    158  N         20.1600    6.8050   20.9760 N.3   333  ALA333     -0.1245
    159  CA        20.0780    7.5230   19.6930 C.3   333  ALA333      0.1562
    160  C         18.7320    7.3770   19.0020 C.2   333  ALA333      0.2260
    161  O         18.1630    6.3040   18.9440 O.2   333  ALA333     -0.2867
    162  CB        21.2550    7.1170   18.7980 C.3   333  ALA333      0.0290
    163  N         16.7560    7.6700   15.2550 N.3   335  TYR335     -0.1241
    164  CA        17.0980    7.5680   13.8530 C.3   335  TYR335      0.1605
    165  C         15.9000    8.0150   13.0600 C.2   335  TYR335      0.2264
    166  O         14.8110    7.4790   13.2550 O.2   335  TYR335     -0.2867
    167  CB        17.4900    6.1010   13.4700 C.3   335  TYR335      0.0534
    168  CG        18.8450    5.7460   14.0080 C.ar  335  TYR335     -0.0201
    169  CD1       19.0190    5.4750   15.3630 C.ar  335  TYR335     -0.0009
    170  CD2       19.9570    5.7340   13.1810 C.ar  335  TYR335     -0.0009
    171  CE1       20.2790    5.1780   15.9080 C.ar  335  TYR335      0.0417
    172  CE2       21.2540    5.4220   13.7250 C.ar  335  TYR335      0.0417
    173  CZ        21.3820    5.1500   15.0850 C.ar  335  TYR335      0.1957
    174  OH        22.6190    4.9260   15.6390 O.3   335  TYR335     -0.2866
    175  N         20.1340   10.8010   14.5360 N.3   366  ASN366     -0.1240
    176  CA        20.9580   10.3850   13.4160 C.3   366  ASN366      0.1653
    177  C         20.1200   10.1560   12.1530 C.2   366  ASN366      0.2266
    178  O         18.9550    9.7930   12.2470 O.2   366  ASN366     -0.2867
    179  CB        21.5590    9.0120   13.7630 C.3   366  ASN366      0.1155
    180  CG        22.6610    9.0970   14.8590 C.2   366  ASN366      0.2627
    181  OD1       23.1360   10.1850   15.2090 O.2   366  ASN366     -0.2716
    182  ND2       23.0590    7.9450   15.3780 N.am  366  ASN366     -0.0877
    183  N         31.3560   10.9540   10.4610 N.3   386  ASP386     -0.1225
    184  CA        32.3660   10.1390    9.7810 C.3   386  ASP386      0.1805
    185  C         31.7670    9.0640    8.8360 C.2   386  ASP386      0.2598
    186  O         32.3640    8.7350    7.8220 O.2   386  ASP386     -0.2718
    187  CB        33.2420    9.4470   10.8420 C.3   386  ASP386      0.1424
    188  CG        34.1460   10.4290   11.5770 C.2   386  ASP386      0.3668
    189  OD1       34.6580   11.3710   10.9060 O.co2 386  ASP386     -0.2456
    190  OD2       34.3780   10.2310   12.7960 O.co2 386  ASP386     -0.2456
    191  N         30.6180    8.4970    9.2080 N.am  387  GLY387     -0.1942
    192  CA        30.1000    7.3190    8.5140 C.3   387  GLY387      0.2014
    193  C         29.4570    7.6020    7.1360 C.2   387  GLY387      0.2639
    194  O         29.0720    8.7240    6.8280 O.2   387  GLY387     -0.2714
    195  N         29.3740    6.5680    6.3120 N.am  388  HIS388     -0.1959
    196  CA        28.6170    6.5970    5.0850 C.3   388  HIS388      0.1787
    197  C         27.7930    5.3180    5.0560 C.2   388  HIS388      0.2620
    198  O         28.2650    4.2200    5.4660 O.2   388  HIS388     -0.2715
    199  CB        29.5430    6.6320    3.8540 C.3   388  HIS388      0.0785
    200  CG        30.5210    7.7750    3.8650 C.ar  388  HIS388      0.0821
    201  ND1       30.3060    8.9510    3.1710 N.ar  388  HIS388     -0.2267
    202  CD2       31.7230    7.9160    4.4680 C.ar  388  HIS388      0.1154
    203  CE1       31.3180    9.7750    3.3730 C.ar  388  HIS388      0.1986
    204  NE2       32.1940    9.1650    4.1490 N.ar  388  HIS388     -0.2212
    205  N         26.5800    5.4350    4.5520 N.am  389  LEU389     -0.1977
    206  CA        25.7810    4.2610    4.2920 C.3   389  LEU389      0.1596
    207  C         25.7560    3.9820    2.7890 C.2   389  LEU389      0.2287
    208  O         25.4200    4.8350    1.9850 O.2   389  LEU389     -0.2864
    209  CB        24.3780    4.4110    4.8380 C.3   389  LEU389      0.0297
    210  CG        23.6030    3.0670    4.8210 C.3   389  LEU389      0.0022
    211  CD1       24.2590    2.0800    5.7520 C.3   389  LEU389      0.0001
    212  CD2       22.0860    3.1550    5.1690 C.3   389  LEU389      0.0001
    213  N         16.9070    1.7640    5.9050 N.3   410  MET410     -0.1230
    214  CA        17.2100    0.4430    6.4550 C.3   410  MET410      0.1702
    215  C         17.3900    0.5010    7.9830 C.2   410  MET410      0.2592
    216  O         17.8530    1.4610    8.5070 O.2   410  MET410     -0.2718
    217  CB        18.3770   -0.2900    5.7400 C.3   410  MET410      0.0401
    218  CG        17.9430   -0.9100    4.4540 C.3   410  MET410      0.0596
    219  SD        18.8970   -2.2770    3.7330 S.3   410  MET410     -0.1393
    220  CE        18.5850   -3.5560    4.9860 C.3   410  MET410      0.0692
    221  N         17.0030   -0.5390    8.6950 N.am  411  LEU411     -0.1980
    222  CA        16.9640   -0.4400   10.1780 C.3   411  LEU411      0.1596
    223  C         18.3030   -0.7940   10.8070 C.2   411  LEU411      0.2287
    224  O         19.0380   -1.6080   10.2650 O.2   411  LEU411     -0.2864
    225  CB        15.8670   -1.3630   10.7020 C.3   411  LEU411      0.0297
    226  CG        14.4630   -0.9460   10.2950 C.3   411  LEU411      0.0022
    227  CD1       13.4460   -2.0100   10.8750 C.3   411  LEU411      0.0001
    228  CD2       14.1140    0.4990   10.7070 C.3   411  LEU411      0.0001
@<TRIPOS>BOND
     1   208   207    2
     2    93    91    1
     3   207   206    1
     4    87    88    1
     5    88    91    1
     6    88    89    1
     7   201   203   ar
     8   201   200   ar
     9   203   204   ar
    10   219   218    1
    11   219   220    1
    12    91    92    1
    13   199   200    1
    14   199   196    1
    15   200   202   ar
    16    94    89   am
    17    94    95    1
    18    89    90    2
    19   204   202   ar
    20    97    96    2
    21   206   205    1
    22   206   209    1
    23    98    95    1
    24   218   217    1
    25   205   197   am
    26   210   209    1
    27   210   212    1
    28   210   211    1
    29    95    96    1
    30   197   196    1
    31   197   198    2
    32    96    99   am
    33   196   195    1
    34   217   214    1
    35   102   101    2
    36   101   100    1
    37   213   214    1
    38    99   100    1
    39   195   193   am
    40   214   215    1
    41    79    80    1
    42   103   104    1
    43   194   193    2
    44   193   192    1
    45    80    83    1
    46    80    81    1
    47   186   185    2
    48   215   216    2
    49   215   221   am
    50   104   105    1
    51   104   107    1
    52    83    84    1
    53   111   109   ar
    54   111   113   ar
    55   109   108   ar
    56   106   105    2
    57   192   191    1
    58   221   222    1
    59    81    82    2
    60    84    86   am
    61    84    85    2
    62   185   191   am
    63   185   184    1
    64   114   113    1
    65   113   112   ar
    66   108   107    1
    67   108   110   ar
    68   184   183    1
    69   184   187    1
    70   110   112   ar
    71   222   225    1
    72   222   223    1
    73   224   223    2
    74   226   225    1
    75   226   228    1
    76   226   227    1
    77   187   188    1
    78   189   188   ar
    79    12    11    1
    80   188   190   ar
    81   177   178    2
    82   177   176    1
    83   115   116    1
    84    19    17    1
    85    11     9   ar
    86    11    10   ar
    87     9     7   ar
    88   124   122   ar
    89   124   123   ar
    90    18    17    1
    91   122   120   ar
    92   165   166    2
    93   165   164    1
    94    78    77    1
    95   123   121   ar
    96   170   172   ar
    97   170   168   ar
    98   176   179    1
    99   176   175    1
   100    17    14    1
   101   167   164    1
   102   167   168    1
   103    10     8   ar
   104    65    66   ar
   105    65    63   ar
   106   116   117    1
   107   116   119    1
   108     7     6   ar
   109   120   121   ar
   110   120   119    1
   111   172   173   ar
   112   179   180    1
   113   118   117    2
   114    66    64   ar
   115   164   163    1
   116   168   169   ar
   117    23    22    2
   118    77    76   ar
   119    77    75   ar
   120    14    13    1
   121    14    15    1
   122    63    61   ar
   123     8     6   ar
   124    76    74   ar
   125    31    32    2
   126    31    30    1
   127     6     5    1
   128   143   141    1
   129   180   181    2
   130   180   182   am
   131    13     3   am
   132    75    73   ar
   133   173   174    1
   134   173   171   ar
   135    64    62   ar
   136    30    29    1
   137    30    33    1
   138   169   171   ar
   139    22    29   am
   140    22    21    1
   141    20    15   am
   142    20    21    1
   143    15    16    2
   144     3     2    1
   145     3     4    2
   146    74    72   ar
   147    61    62   ar
   148    61    60    1
   149     2     5    1
   150     2     1    1
   151    33    34    1
   152   141   140    1
   153    21    24    1
   154    73    72   ar
   155    72    71    1
   156    24    25    1
   157    60    57    1
   158    34    36   ar
   159    34    35   ar
   160   135   133   ar
   161   135   134   ar
   162   140   142    1
   163   140   137    1
   164   133   131   ar
   165    25    26    1
   166    71    68    1
   167    27    26   ar
   168   134   132   ar
   169    26    28   ar
   170    57    56    1
   171    57    58    1
   172   136   137    1
   173   128   127    2
   174   137   138    1
   175   131   130   ar
   176   162   159    1
   177    48    47    2
   178   161   160    2
   179   160   159    1
   180   132   130   ar
   181    68    67    1
   182    68    69    1
   183   139   138    2
   184   149   148    1
   185    58    59    2
   186   130   129    1
   187   127   126    1
   188   159   158    1
   189    47    46    1
   190    44    43    1
   191    52    54   ar
   192    52    50   ar
   193    49    50    1
   194    49    46    1
   195    37    38    1
   196    43    42    1
   197    69    70    2
   198   157   155    1
   199    54    55   ar
   200    45    46    1
   201    45    39   am
   202    50    51   ar
   203   126   129    1
   204   126   125    1
   205   148   145    1
   206    41    42    1
   207    41    38    1
   208    38    39    1
   209    39    40    2
   210   145   144    1
   211   145   146    1
   212   155   156    1
   213   155   154    1
   214    55    53   ar
   215    51    53   ar
   216   154   151    1
   217   153   152    2
   218   146   147    2
   219   152   151    1
   220   151   150    1
