@<TRIPOS>MOLECULE
tmp/5agiA00.pdb
 149 142 0 0 0
SMALL
GASTEIGER

@<TRIPOS>ATOM
      1  N        -20.6240    7.4960  -18.3650 N.3     2  TYR2       -0.1241
      2  CA       -19.9260    7.0080  -17.1760 C.3     2  TYR2        0.1605
      3  C        -19.5720    8.1600  -16.2480 C.2     2  TYR2        0.2264
      4  O        -19.5820    9.3230  -16.6530 O.2     2  TYR2       -0.2867
      5  CB       -18.6270    6.3010  -17.5680 C.3     2  TYR2        0.0534
      6  CG       -18.8130    5.0610  -18.4040 C.ar    2  TYR2       -0.0201
      7  CD1      -19.0240    3.8220  -17.8080 C.ar    2  TYR2       -0.0009
      8  CD2      -18.7630    5.1230  -19.7920 C.ar    2  TYR2       -0.0009
      9  CE1      -19.1890    2.6790  -18.5710 C.ar    2  TYR2        0.0417
     10  CE2      -18.9280    3.9860  -20.5640 C.ar    2  TYR2        0.0417
     11  CZ       -19.1400    2.7680  -19.9500 C.ar    2  TYR2        0.1957
     12  OH       -19.3040    1.6400  -20.7180 O.3     2  TYR2       -0.2866
     13  N        -13.3680    4.9220  -15.5650 N.3    37  ALA37      -0.1231
     14  CA       -14.7990    4.9990  -15.8440 C.3    37  ALA37       0.1694
     15  C        -15.5420    4.0470  -14.9190 C.2    37  ALA37       0.2593
     16  O        -15.2430    2.8540  -14.8870 O.2    37  ALA37      -0.2718
     17  CB       -15.0750    4.6460  -17.2960 C.3    37  ALA37       0.0304
     18  N        -16.4990    4.5780  -14.1630 N.am   38  THR38      -0.1939
     19  CA       -17.3040    3.7650  -13.2550 C.3    38  THR38       0.2028
     20  C        -18.7870    4.0900  -13.3850 C.2    38  THR38       0.2642
     21  O        -19.1620    5.1860  -13.8050 O.2    38  THR38      -0.2714
     22  CB       -16.8710    3.9480  -11.7810 C.3    38  THR38       0.1808
     23  OG1      -17.5560    2.9960  -10.9570 O.3    38  THR38      -0.2208
     24  CG2      -17.1680    5.3600  -11.2730 C.3    38  THR38       0.0379
     25  N        -19.6210    3.1170  -13.0290 N.am   39  LEU39      -0.1963
     26  CA       -21.0550    3.3410  -12.8640 C.3    39  LEU39       0.1728
     27  C        -21.4640    3.1690  -11.3990 C.2    39  LEU39       0.2616
     28  O        -22.6540    3.1660  -11.0810 O.2    39  LEU39      -0.2715
     29  CB       -21.8500    2.3870  -13.7610 C.3    39  LEU39       0.0311
     30  CG       -21.6810    2.5850  -15.2710 C.3    39  LEU39       0.0022
     31  CD1      -22.5090    1.5680  -16.0420 C.3    39  LEU39       0.0001
     32  CD2      -22.0630    3.9970  -15.6910 C.3    39  LEU39       0.0001
     33  N        -20.4740    3.0520  -10.5120 N.am   40  ARG40      -0.1977
     34  CA       -20.7100    2.8050   -9.0910 C.3    40  ARG40       0.1597
     35  C        -19.8990    3.7800   -8.2320 C.2    40  ARG40       0.2287
     36  O        -19.0110    3.3650   -7.4860 O.2    40  ARG40      -0.2864
     37  CB       -20.3360    1.3610   -8.7430 C.3    40  ARG40       0.0334
     38  CG       -21.0600    0.3030   -9.5640 C.3    40  ARG40       0.0492
     39  CD       -22.5520    0.2520   -9.2720 C.3    40  ARG40       0.2205
     40  NE       -22.8240   -0.0220   -7.8630 N.pl3  40  ARG40      -0.0865
     41  CZ       -22.7090   -1.2150   -7.2790 C.cat  40  ARG40       0.5346
     42  NH1      -22.3340   -2.2870   -7.9740 N.pl3  40  ARG40       0.1354
     43  NH2      -22.9770   -1.3380   -5.9840 N.pl3  40  ARG40       0.1354
     44  N         -4.6090   -5.3190  -15.5070 N.3   122  MET122     -0.1245
     45  CA        -5.8190   -6.1150  -15.7080 C.3   122  MET122      0.1570
     46  C         -5.8850   -6.5150  -17.1780 C.2   122  MET122      0.2261
     47  O         -6.0320   -5.6630  -18.0530 O.2   122  MET122     -0.2867
     48  CB        -7.0670   -5.3200  -15.3170 C.3   122  MET122      0.0387
     49  CG        -8.3890   -5.9990  -15.6570 C.3   122  MET122      0.0595
     50  SD        -9.8280   -5.1220  -15.0150 S.3   122  MET122     -0.1393
     51  CE       -10.1480   -6.0600  -13.5250 C.3   122  MET122      0.0692
     52  N         -8.1740   -8.2320  -18.7320 N.3   124  THR124     -0.1203
     53  CA        -9.5310   -8.3310  -19.2720 C.3   124  THR124      0.1994
     54  C        -10.2430   -6.9810  -19.4430 C.2   124  THR124      0.2618
     55  O        -11.4720   -6.9340  -19.5280 O.2   124  THR124     -0.2717
     56  CB       -10.3920   -9.2390  -18.3750 C.3   124  THR124      0.1784
     57  OG1      -10.3810   -8.7340  -17.0340 O.3   124  THR124     -0.2211
     58  CG2       -9.8520  -10.6600  -18.3890 C.3   124  THR124      0.0376
     59  N         -9.4800   -5.8910  -19.5040 N.am  125  VAL125     -0.1965
     60  CA       -10.0530   -4.5790  -19.7980 C.3   125  VAL125      0.1727
     61  C        -10.4990   -4.5570  -21.2560 C.2   125  VAL125      0.2616
     62  O         -9.7190   -4.8830  -22.1520 O.2   125  VAL125     -0.2715
     63  CB        -9.0370   -3.4410  -19.5620 C.3   125  VAL125      0.0290
     64  CG1       -9.5820   -2.1070  -20.0610 C.3   125  VAL125      0.0023
     65  CG2       -8.6700   -3.3450  -18.0880 C.3   125  VAL125      0.0023
     66  N        -11.7560   -4.1870  -21.4900 N.am  126  LEU126     -0.1977
     67  CA       -12.2660   -4.0370  -22.8470 C.3   126  LEU126      0.1596
     68  C        -11.8160   -2.6790  -23.3800 C.2   126  LEU126      0.2287
     69  O        -12.2500   -1.6370  -22.8880 O.2   126  LEU126     -0.2864
     70  CB       -13.7930   -4.1600  -22.8670 C.3   126  LEU126      0.0297
     71  CG       -14.4920   -4.1430  -24.2320 C.3   126  LEU126      0.0022
     72  CD1      -13.9070   -5.1760  -25.1840 C.3   126  LEU126      0.0001
     73  CD2      -15.9850   -4.3760  -24.0540 C.3   126  LEU126      0.0001
     74  N        -14.3340    0.0870  -24.3080 N.3   129  LYS129     -0.1231
     75  CA       -15.3000    0.4640  -23.2770 C.3   129  LYS129      0.1693
     76  C        -14.7280    1.5510  -22.3710 C.2   129  LYS129      0.2593
     77  O        -13.5890    1.4500  -21.9190 O.2   129  LYS129     -0.2718
     78  CB       -15.6830   -0.7610  -22.4440 C.3   129  LYS129      0.0285
     79  CG       -16.7010   -0.4840  -21.3490 C.3   129  LYS129      0.0035
     80  CD       -17.0850   -1.7540  -20.6070 C.3   129  LYS129      0.0206
     81  CE       -17.9930   -1.4560  -19.4250 C.3   129  LYS129      0.1093
     82  NZ       -19.3350   -0.9620  -19.8410 N.3   129  LYS129     -0.1314
     83  N        -15.5240    2.5850  -22.1070 N.am  130  GLY130     -0.1942
     84  CA       -15.1270    3.6560  -21.1940 C.3   130  GLY130      0.2014
     85  C        -13.7980    4.2920  -21.5580 C.2   130  GLY130      0.2640
     86  O        -13.5680    4.6400  -22.7160 O.2   130  GLY130     -0.2714
     87  N        -12.9200    4.4260  -20.5660 N.am  131  THR131     -0.1936
     88  CA       -11.6140    5.0660  -20.7390 C.3   131  THR131      0.2028
     89  C        -10.4670    4.0710  -20.9100 C.2   131  THR131      0.2643
     90  O         -9.3240    4.4740  -21.1410 O.2   131  THR131     -0.2714
     91  CB       -11.2800    5.9400  -19.5190 C.3   131  THR131      0.1808
     92  OG1      -11.3180    5.1310  -18.3360 O.3   131  THR131     -0.2208
     93  CG2      -12.2740    7.0820  -19.3840 C.3   131  THR131      0.0379
     94  N        -10.7630    2.7790  -20.7750 N.am  132  GLY132     -0.1939
     95  CA        -9.7260    1.7500  -20.7290 C.3   132  GLY132      0.2014
     96  C         -9.0200    1.6840  -19.3820 C.2   132  GLY132      0.2639
     97  O         -8.0620    0.9270  -19.2180 O.2   132  GLY132     -0.2714
     98  N         -9.4970    2.4740  -18.4190 N.am  133  VAL133     -0.1963
     99  CA        -8.9490    2.5070  -17.0690 C.3   133  VAL133      0.1727
    100  C        -10.0750    2.0940  -16.1290 C.2   133  VAL133      0.2616
    101  O        -11.1880    2.6110  -16.2230 O.2   133  VAL133     -0.2715
    102  CB        -8.4410    3.9170  -16.7010 C.3   133  VAL133      0.0290
    103  CG1       -7.8350    3.9350  -15.3040 C.3   133  VAL133      0.0023
    104  CG2       -7.4240    4.4060  -17.7260 C.3   133  VAL133      0.0023
    105  N         -9.7830    1.1560  -15.2350 N.am  134  VAL134     -0.1963
    106  CA       -10.7870    0.5900  -14.3390 C.3   134  VAL134      0.1727
    107  C        -10.2640    0.6600  -12.9130 C.2   134  VAL134      0.2616
    108  O         -9.1990    0.1260  -12.6220 O.2   134  VAL134     -0.2715
    109  CB       -11.0840   -0.8780  -14.7110 C.3   134  VAL134      0.0290
    110  CG1      -12.1100   -1.4870  -13.7640 C.3   134  VAL134      0.0023
    111  CG2      -11.5740   -0.9710  -16.1490 C.3   134  VAL134      0.0023
    112  N        -11.0000    1.3190  -12.0210 N.am  135  THR135     -0.1951
    113  CA       -10.5890    1.3600  -10.6200 C.3   135  THR135      0.1897
    114  C        -11.0460    0.0870   -9.9150 C.2   135  THR135      0.2313
    115  O        -12.0780   -0.4880  -10.2580 O.2   135  THR135     -0.2863
    116  CB       -11.0800    2.6220   -9.8830 C.3   135  THR135      0.1794
    117  OG1      -10.3310    2.7700   -8.6700 O.3   135  THR135     -0.2208
    118  CG2      -12.5750    2.5580   -9.5630 C.3   135  THR135      0.0378
    119  N        -16.9710   -5.6880   -6.8070 N.3   141  SER141     -0.1217
    120  CA       -16.8070   -6.0350   -8.2220 C.3   141  SER141      0.1889
    121  C        -16.1870   -7.4250   -8.3600 C.2   141  SER141      0.2288
    122  O        -15.0250   -7.6150   -8.0010 O.2   141  SER141     -0.2866
    123  CB       -15.9210   -5.0100   -8.9310 C.3   141  SER141      0.2089
    124  OG       -15.5120   -5.4880  -10.2040 O.3   141  SER141     -0.2183
    125  N        -15.1750   -8.9950  -11.0880 N.3   143  ASP143     -0.1225
    126  CA       -14.0000   -8.8590  -11.9600 C.3   143  ASP143      0.1805
    127  C        -12.7700   -8.3930  -11.1880 C.2   143  ASP143      0.2597
    128  O        -11.6790   -8.9410  -11.3510 O.2   143  ASP143     -0.2718
    129  CB       -14.2770   -7.8650  -13.0940 C.3   143  ASP143      0.1424
    130  CG       -15.1280   -8.4560  -14.1980 C.2   143  ASP143      0.3668
    131  OD1      -14.7350   -9.4960  -14.7610 O.co2 143  ASP143     -0.2456
    132  OD2      -16.1830   -7.8720  -14.5160 O.co2 143  ASP143     -0.2456
    133  N        -12.9500   -7.3770  -10.3510 N.am  144  ASP144     -0.1974
    134  CA       -11.8450   -6.8250   -9.5720 C.3   144  ASP144      0.1709
    135  C        -11.3450   -7.8110   -8.5200 C.2   144  ASP144      0.2293
    136  O        -10.1410   -7.9110   -8.2870 O.2   144  ASP144     -0.2864
    137  CB       -12.2560   -5.5120   -8.9050 C.3   144  ASP144      0.1436
    138  CG       -12.6350   -4.4340   -9.9090 C.2   144  ASP144      0.3671
    139  OD1      -12.3520   -4.5940  -11.1170 O.co2 144  ASP144     -0.2456
    140  OD2      -13.2230   -3.4190   -9.4820 O.co2 144  ASP144     -0.2456
    141  N        -21.5310  -10.1190  -11.6140 N.3   205  LYS205     -0.1245
    142  CA       -21.5660   -8.6570  -11.6560 C.3   205  LYS205      0.1561
    143  C        -22.9920   -8.1220  -11.5180 C.2   205  LYS205      0.2260
    144  O        -23.2390   -7.1840  -10.7600 O.2   205  LYS205     -0.2867
    145  CB       -20.9450   -8.1640  -12.9660 C.3   205  LYS205      0.0271
    146  CG       -20.7660   -6.6600  -13.0730 C.3   205  LYS205      0.0035
    147  CD       -19.9830   -6.3150  -14.3280 C.3   205  LYS205      0.0206
    148  CE       -19.7430   -4.8230  -14.4640 C.3   205  LYS205      0.1093
    149  NZ       -19.0730   -4.5080  -15.7540 N.3   205  LYS205     -0.1314
@<TRIPOS>BOND
     1    72    71    1
     2    74    75    1
     3    71    73    1
     4    71    70    1
     5    68    69    2
     6    68    67    1
     7    75    78    1
     8    75    76    1
     9    70    67    1
    10    67    66    1
    11    86    85    2
    12    78    79    1
    13    76    83   am
    14    76    77    2
    15    62    61    2
    16    83    84    1
    17    85    84    1
    18    85    87   am
    19    66    61   am
    20    79    80    1
    21    61    60    1
    22    90    89    2
    23    89    94   am
    24    89    88    1
    25    94    95    1
    26    88    87    1
    27    88    91    1
    28    95    96    1
    29    12    11    1
    30    80    81    1
    31    10    11   ar
    32    10     8   ar
    33    64    63    1
    34    11     9   ar
    35    82    81    1
    36    60    63    1
    37    60    59    1
    38     8     6   ar
    39    63    65    1
    40    55    54    2
    41    91    93    1
    42    91    92    1
    43    59    54   am
    44    54    53    1
    45    96    97    2
    46    96    98   am
    47    53    52    1
    48    53    56    1
    49     9     7   ar
    50    98    99    1
    51     6     7   ar
    52     6     5    1
    53    58    56    1
    54    56    57    1
    55     1     2    1
    56    47    46    2
    57   104   102    1
    58     5     2    1
    59    17    14    1
    60    46    45    1
    61     2     3    1
    62    99   102    1
    63    99   100    1
    64   102   103    1
    65     4     3    2
    66   101   100    2
    67   111   109    1
    68   100   105   am
    69    31    30    1
    70    14    13    1
    71    14    15    1
    72   149   148    1
    73    45    44    1
    74    45    48    1
    75    32    30    1
    76    49    48    1
    77    49    50    1
    78    30    29    1
    79   105   106    1
    80    50    51    1
    81    15    16    2
    82    15    18   am
    83   131   130   ar
    84   109   106    1
    85   109   110    1
    86   132   130   ar
    87   148   147    1
    88   106   107    1
    89   147   146    1
    90   130   129    1
    91    18    19    1
    92    21    20    2
    93    29    26    1
    94    20    19    1
    95    20    25   am
    96    19    22    1
    97   129   126    1
    98   146   145    1
    99    25    26    1
   100   145   142    1
   101   107   108    2
   102   107   112   am
   103    26    27    1
   104   112   113    1
   105   126   127    1
   106   126   125    1
   107    22    24    1
   108    22    23    1
   109   142   141    1
   110   142   143    1
   111   143   144    2
   112    27    28    2
   113    27    33   am
   114   128   127    2
   115   127   133   am
   116   139   138   ar
   117   113   114    1
   118   113   116    1
   119    33    34    1
   120   133   134    1
   121   115   114    2
   122   124   123    1
   123   138   140   ar
   124   138   137    1
   125   116   118    1
   126   116   117    1
   127   134   137    1
   128   134   135    1
   129    38    39    1
   130    38    37    1
   131    39    40    1
   132    34    37    1
   133    34    35    1
   134   123   120    1
   135   135   136    2
   136   121   120    1
   137   121   122    2
   138    35    36    2
   139   120   119    1
   140    42    41    1
   141    40    41    2
   142    41    43    1
