@<TRIPOS>MOLECULE
tmp/5aglB03.pdb
 165 164 0 0 0
SMALL
GASTEIGER

@<TRIPOS>ATOM
      1  N          7.3390    5.6770   53.6680 N.3   108  CYS108     -0.1235
      2  CA         7.0690    4.4600   54.4350 C.3   108  CYS108      0.1677
      3  C          6.0030    3.6050   53.8090 C.2   108  CYS108      0.2270
      4  O          4.8280    4.0100   53.7000 O.2   108  CYS108     -0.2867
      5  CB         6.6660    4.7900   55.8900 C.3   108  CYS108      0.0956
      6  SG         6.3200    3.2710   56.8430 S.3   108  CYS108     -0.0801
      7  N         20.3360    3.9080   64.3530 N.3   171  GLN171     -0.1245
      8  CA        19.2700    3.0070   64.8020 C.3   171  GLN171      0.1566
      9  C         19.6630    2.5200   66.1880 C.2   171  GLN171      0.2260
     10  O         20.8580    2.4530   66.4920 O.2   171  GLN171     -0.2867
     11  CB        19.0930    1.7840   63.8880 C.3   171  GLN171      0.0367
     12  CG        18.4950    2.0370   62.5130 C.3   171  GLN171      0.0905
     13  CD        18.5580    0.7710   61.6320 C.2   171  GLN171      0.2608
     14  OE1       18.3810   -0.3480   62.1200 O.2   171  GLN171     -0.2717
     15  NE2       18.8180    0.9530   60.3450 N.am  171  GLN171     -0.0878
     16  N         22.3620   -1.7120   65.8110 N.3   174  ARG174     -0.1245
     17  CA        23.0980   -1.7250   64.5480 C.3   174  ARG174      0.1563
     18  C         24.4690   -2.3420   64.7850 C.2   174  ARG174      0.2260
     19  O         24.9300   -2.3510   65.9270 O.2   174  ARG174     -0.2867
     20  CB        23.2560   -0.2930   64.0140 C.3   174  ARG174      0.0307
     21  CG        22.2550    0.0240   62.9470 C.3   174  ARG174      0.0489
     22  CD        22.6370    1.2400   62.1280 C.3   174  ARG174      0.2205
     23  NE        22.5990    0.8870   60.7320 N.pl3 174  ARG174     -0.0865
     24  CZ        22.7770    1.7320   59.7280 C.cat 174  ARG174      0.5346
     25  NH1       22.9960    3.0210   59.9440 N.pl3 174  ARG174      0.1354
     26  NH2       22.7200    1.2750   58.4890 N.pl3 174  ARG174      0.1354
     27  N         21.1510  -11.3110   61.5940 N.3   254  TRP254     -0.1227
     28  CA        20.7270   -9.9070   61.6450 C.3   254  TRP254      0.1737
     29  C         19.8780   -9.6870   62.8810 C.2   254  TRP254      0.2595
     30  O         19.3940  -10.6450   63.4620 O.2   254  TRP254     -0.2718
     31  CB        19.9470   -9.5010   60.3880 C.3   254  TRP254      0.0564
     32  CG        19.9880   -8.0160   60.1450 C.ar  254  TRP254      0.0003
     33  CD1       18.9760   -7.1200   60.3390 C.ar  254  TRP254      0.0946
     34  CD2       21.1100   -7.2680   59.6540 C.ar  254  TRP254      0.0152
     35  NE1       19.4040   -5.8460   59.9860 N.ar  254  TRP254     -0.2442
     36  CE2       20.7120   -5.9210   59.5650 C.ar  254  TRP254      0.0810
     37  CE3       22.4150   -7.6170   59.2770 C.ar  254  TRP254      0.0012
     38  CZ2       21.5720   -4.9150   59.1290 C.ar  254  TRP254      0.0191
     39  CZ3       23.2690   -6.6220   58.8320 C.ar  254  TRP254      0.0001
     40  CH2       22.8520   -5.2860   58.7660 C.ar  254  TRP254      0.0015
     41  N         19.7010   -8.4430   63.3040 N.am  255  TYR255     -0.1976
     42  CA        18.8690   -8.1980   64.4900 C.3   255  TYR255      0.1639
     43  C         17.3890   -8.1250   64.0860 C.2   255  TYR255      0.2290
     44  O         17.0620   -7.8570   62.9350 O.2   255  TYR255     -0.2864
     45  CB        19.3210   -6.9370   65.2150 C.3   255  TYR255      0.0560
     46  CG        19.4950   -5.7640   64.2800 C.ar  255  TYR255     -0.0198
     47  CD1       20.7030   -5.5440   63.6240 C.ar  255  TYR255     -0.0009
     48  CD2       18.4320   -4.8980   64.0180 C.ar  255  TYR255     -0.0009
     49  CE1       20.8560   -4.4680   62.7350 C.ar  255  TYR255      0.0417
     50  CE2       18.5850   -3.8190   63.1600 C.ar  255  TYR255      0.0417
     51  CZ        19.7920   -3.6180   62.5260 C.ar  255  TYR255      0.1957
     52  OH        19.9120   -2.5580   61.6760 O.3   255  TYR255     -0.2866
     53  N         14.1690   -3.2170   63.9240 N.3   258  PRO258     -0.2102
     54  CA        14.6850   -2.0150   63.2810 C.3   258  PRO258      0.1504
     55  C         14.0870   -0.8140   64.0020 C.2   258  PRO258      0.2576
     56  O         12.8580   -0.7350   64.1640 O.2   258  PRO258     -0.2718
     57  CB        14.1640   -2.1300   61.8290 C.3   258  PRO258      0.0282
     58  CG        12.8570   -2.8620   61.9520 C.3   258  PRO258      0.0208
     59  CD        12.9390   -3.7140   63.2680 C.3   258  PRO258      0.0893
     60  N         14.9290    0.1090   64.4530 N.am  259  ALA259     -0.1966
     61  CA        14.4360    1.1740   65.3290 C.3   259  ALA259      0.1728
     62  C         15.1790    2.4450   64.9500 C.2   259  ALA259      0.2616
     63  O         16.3100    2.6930   65.4150 O.2   259  ALA259     -0.2715
     64  CB        14.6550    0.8130   66.8080 C.3   259  ALA259      0.0334
     65  N         14.5640    3.2330   64.0720 N.am  260  VAL260     -0.1977
     66  CA        15.2330    4.4440   63.5760 C.3   260  VAL260      0.1596
     67  C         15.3320    5.5000   64.7010 C.2   260  VAL260      0.2287
     68  O         14.3240    5.8430   65.2820 O.2   260  VAL260     -0.2864
     69  CB        14.4810    5.0100   62.3820 C.3   260  VAL260      0.0276
     70  CG1       14.9220    6.4650   62.0800 C.3   260  VAL260      0.0022
     71  CG2       14.6750    4.0850   61.1140 C.3   260  VAL260      0.0022
     72  N         11.8650    5.3690   66.9720 N.3   277  PHE277     -0.1227
     73  CA        10.6690    4.5690   66.6920 C.3   277  PHE277      0.1736
     74  C         11.0040    3.2180   66.0080 C.2   277  PHE277      0.2596
     75  O         11.9940    3.1060   65.3200 O.2   277  PHE277     -0.2718
     76  CB         9.6930    5.4000   65.8680 C.3   277  PHE277      0.0547
     77  CG        10.2890    5.9500   64.5820 C.ar  277  PHE277     -0.0202
     78  CD1       10.3040    5.1770   63.4200 C.ar  277  PHE277     -0.0042
     79  CD2       10.8320    7.2280   64.5360 C.ar  277  PHE277     -0.0042
     80  CE1       10.8370    5.6670   62.2260 C.ar  277  PHE277     -0.0003
     81  CE2       11.3820    7.7280   63.3330 C.ar  277  PHE277     -0.0003
     82  CZ        11.3610    6.9460   62.1740 C.ar  277  PHE277     -0.0000
     83  N         10.1750    2.2120   66.1990 N.am  278  SER278     -0.1938
     84  CA        10.4620    0.8740   65.6800 C.3   278  SER278      0.2055
     85  C          9.1840    0.2680   65.1460 C.2   278  SER278      0.2644
     86  O          8.1030    0.5470   65.6440 O.2   278  SER278     -0.2714
     87  CB        11.0760   -0.0420   66.7520 C.3   278  SER278      0.2130
     88  OG        10.2430   -0.1460   67.9180 O.3   278  SER278     -0.2179
     89  N          9.3110   -0.5360   64.0970 N.am  279  GLY279     -0.1939
     90  CA         8.1900   -1.3280   63.6220 C.3   279  GLY279      0.2014
     91  C          8.7160   -2.7420   63.4640 C.2   279  GLY279      0.2639
     92  O          9.0970   -3.3680   64.4400 O.2   279  GLY279     -0.2714
     93  N          8.7630   -3.2340   62.2300 N.am  280  TRP280     -0.1959
     94  CA         9.4360   -4.5080   61.9310 C.3   280  TRP280      0.1771
     95  C          9.9470   -4.5060   60.4860 C.2   280  TRP280      0.2620
     96  O          9.6070   -3.6230   59.7220 O.2   280  TRP280     -0.2715
     97  CB         8.5050   -5.7020   62.1550 C.3   280  TRP280      0.0590
     98  CG         7.1680   -5.6320   61.4600 C.ar  280  TRP280      0.0006
     99  CD1        6.8970   -5.8930   60.1190 C.ar  280  TRP280      0.0946
    100  CD2        5.9250   -5.2900   62.0540 C.ar  280  TRP280      0.0152
    101  NE1        5.5530   -5.7160   59.8750 N.ar  280  TRP280     -0.2442
    102  CE2        4.9370   -5.3540   61.0450 C.ar  280  TRP280      0.0810
    103  CE3        5.5440   -4.8980   63.3450 C.ar  280  TRP280      0.0012
    104  CZ2        3.5850   -5.0610   61.3020 C.ar  280  TRP280      0.0191
    105  CZ3        4.2150   -4.6400   63.6000 C.ar  280  TRP280      0.0001
    106  CH2        3.2480   -4.7200   62.5830 C.ar  280  TRP280      0.0015
    107  N         10.7410   -5.5000   60.1070 N.am  281  TYR281     -0.1960
    108  CA        11.4240   -5.4430   58.8250 C.3   281  TYR281      0.1771
    109  C         10.5730   -5.9210   57.6710 C.2   281  TYR281      0.2619
    110  O          9.8030   -6.8780   57.8050 O.2   281  TYR281     -0.2715
    111  CB        12.6590   -6.3340   58.8730 C.3   281  TYR281      0.0574
    112  CG        13.9330   -5.6350   59.2920 C.ar  281  TYR281     -0.0198
    113  CD1       14.5120   -4.6600   58.4680 C.ar  281  TYR281     -0.0009
    114  CD2       14.5620   -5.9440   60.5040 C.ar  281  TYR281     -0.0009
    115  CE1       15.6840   -4.0290   58.8070 C.ar  281  TYR281      0.0417
    116  CE2       15.7420   -5.3030   60.8630 C.ar  281  TYR281      0.0417
    117  CZ        16.2910   -4.3530   60.0100 C.ar  281  TYR281      0.1957
    118  OH        17.4730   -3.7220   60.3050 O.3   281  TYR281     -0.2866
    119  N         10.7620   -5.2890   56.5210 N.am  282  MET282     -0.1977
    120  CA        10.4250   -5.9240   55.2540 C.3   282  MET282      0.1605
    121  C         11.6950   -6.6600   54.8090 C.2   282  MET282      0.2287
    122  O         12.8090   -6.1350   54.9280 O.2   282  MET282     -0.2864
    123  CB         9.9640   -4.8770   54.2280 C.3   282  MET282      0.0413
    124  CG         9.5760   -5.4650   52.8510 C.3   282  MET282      0.0598
    125  SD         8.7510   -4.2240   51.8230 S.3   282  MET282     -0.1393
    126  CE        10.1410   -3.2190   51.3210 C.3   282  MET282      0.0692
    127  N         14.8440   -5.1580   52.9980 N.3   285  GLU285     -0.1245
    128  CA        15.7440   -4.2080   53.6900 C.3   285  GLU285      0.1567
    129  C         17.0800   -4.8700   54.0760 C.2   285  GLU285      0.2260
    130  O         18.1750   -4.3070   53.8470 O.2   285  GLU285     -0.2867
    131  CB        15.0910   -3.6510   54.9480 C.3   285  GLU285      0.0388
    132  CG        13.7910   -2.8510   54.6960 C.3   285  GLU285      0.1160
    133  CD        13.2200   -2.2680   55.9950 C.2   285  GLU285      0.3649
    134  OE1       13.8190   -1.2810   56.4650 O.co2 285  GLU285     -0.2457
    135  OE2       12.1760   -2.7510   56.5090 O.co2 285  GLU285     -0.2457
    136  N         19.3410   -4.7570   50.5320 N.3   289  ARG289     -0.1231
    137  CA        20.1770   -3.5860   50.8290 C.3   289  ARG289      0.1694
    138  C         21.3210   -3.8710   51.8310 C.2   289  ARG289      0.2592
    139  O         22.4930   -3.6290   51.5280 O.2   289  ARG289     -0.2718
    140  CB        19.3110   -2.4050   51.3280 C.3   289  ARG289      0.0321
    141  CG        18.1070   -2.0680   50.4080 C.3   289  ARG289      0.0489
    142  CD        18.5310   -1.6050   48.9900 C.3   289  ARG289      0.2205
    143  NE        19.6570   -0.6560   49.0280 N.pl3 289  ARG289     -0.0865
    144  CZ        19.5230    0.6270   49.3790 C.cat 289  ARG289      0.5346
    145  NH1       18.3180    1.1150   49.6730 N.pl3 289  ARG289      0.1354
    146  NH2       20.5820    1.4260   49.4380 N.pl3 289  ARG289      0.1354
    147  N         20.9870   -4.3510   53.0220 N.am  290  ASP290     -0.1974
    148  CA        22.0200   -4.5090   54.0350 C.3   290  ASP290      0.1709
    149  C         23.0260   -5.6040   53.6550 C.2   290  ASP290      0.2293
    150  O         24.2120   -5.4770   53.9240 O.2   290  ASP290     -0.2864
    151  CB        21.4210   -4.7690   55.4190 C.3   290  ASP290      0.1436
    152  CG        20.4040   -3.7150   55.8310 C.2   290  ASP290      0.3671
    153  OD1       20.4240   -2.5850   55.3040 O.co2 290  ASP290     -0.2456
    154  OD2       19.5550   -4.0190   56.7040 O.co2 290  ASP290     -0.2456
    155  N         27.7280   -2.0610   51.6040 N.3   296  ARG296     -0.1245
    156  CA        27.2550   -2.6630   52.8690 C.3   296  ARG296      0.1563
    157  C         27.9700   -4.0150   53.0070 C.2   296  ARG296      0.2260
    158  O         29.1650   -4.0840   52.7060 O.2   296  ARG296     -0.2867
    159  CB        25.7340   -2.7790   52.8840 C.3   296  ARG296      0.0307
    160  CG        25.0050   -1.3980   52.7990 C.3   296  ARG296      0.0489
    161  CD        25.2160   -0.5170   54.0460 C.3   296  ARG296      0.2205
    162  NE        24.8130   -1.1700   55.3130 N.pl3 296  ARG296     -0.0865
    163  CZ        23.5510   -1.3010   55.7350 C.cat 296  ARG296      0.5346
    164  NH1       22.5460   -0.7950   55.0210 N.pl3 296  ARG296      0.1354
    165  NH2       23.2940   -1.9010   56.8890 N.pl3 296  ARG296      0.1354
@<TRIPOS>BOND
     1   142   143    1
     2   142   141    1
     3   143   144    2
     4   144   146    1
     5   144   145    1
     6   141   140    1
     7   136   137    1
     8   137   140    1
     9   137   138    1
    10   126   125    1
    11   139   138    2
    12   155   156    1
    13   125   124    1
    14   138   147   am
    15   158   157    2
    16   160   159    1
    17   160   161    1
    18   124   123    1
    19   156   159    1
    20   156   157    1
    21   127   128    1
    22   147   148    1
    23   149   150    2
    24   149   148    1
    25     1     2    1
    26   128   129    1
    27   128   131    1
    28     4     3    2
    29     3     2    1
    30   130   129    2
    31   148   151    1
    32   161   162    1
    33   123   120    1
    34     2     5    1
    35   132   131    1
    36   132   133    1
    37   121   122    2
    38   121   120    1
    39   164   163    1
    40   120   119    1
    41   153   152   ar
    42   162   163    2
    43   151   152    1
    44   163   165    1
    45   152   154   ar
    46     5     6    1
    47   133   134   ar
    48   133   135   ar
    49   119   109   am
    50   109   110    2
    51   109   108    1
    52   113   115   ar
    53   113   112   ar
    54    26    24    1
    55    40    39   ar
    56    40    38   ar
    57   115   117   ar
    58   108   111    1
    59   108   107    1
    60    39    37   ar
    61   111   112    1
    62    38    36   ar
    63    37    34   ar
    64   112   114   ar
    65    36    34   ar
    66    36    35   ar
    67    34    32   ar
    68    96    95    2
    69    24    25    1
    70    24    23    2
    71   101    99   ar
    72   101   102   ar
    73    35    33   ar
    74   117   118    1
    75   117   116   ar
    76   107    95   am
    77    99    98   ar
    78    32    33   ar
    79    32    31    1
    80    15    13   am
    81    31    28    1
    82    95    94    1
    83   114   116   ar
    84    23    22    1
    85   102   104   ar
    86   102   100   ar
    87    71    69    1
    88   104   106   ar
    89    98   100   ar
    90    98    97    1
    91    27    28    1
    92    13    14    2
    93    13    12    1
    94    28    29    1
    95    52    51    1
    96    57    58    1
    97    57    54    1
    98    94    97    1
    99    94    93    1
   100    58    59    1
   101   100   103   ar
   102    70    69    1
   103    22    21    1
   104    82    80   ar
   105    82    81   ar
   106    80    78   ar
   107    93    91   am
   108    69    66    1
   109    12    11    1
   110    51    49   ar
   111    51    50   ar
   112   106   105   ar
   113    49    47   ar
   114    29    41   am
   115    29    30    2
   116    44    43    2
   117    21    20    1
   118    50    48   ar
   119    59    53    1
   120    54    53    1
   121    54    55    1
   122    41    42    1
   123    81    79   ar
   124   103   105   ar
   125    78    77   ar
   126    91    90    1
   127    91    92    2
   128    66    65    1
   129    66    67    1
   130    90    89    1
   131    47    46   ar
   132    11     8    1
   133    55    56    2
   134    55    60   am
   135    20    17    1
   136    48    46   ar
   137    65    62   am
   138    43    42    1
   139    89    85   am
   140    46    45    1
   141     7     8    1
   142    60    61    1
   143    42    45    1
   144    79    77   ar
   145    17    18    1
   146    17    16    1
   147    77    76    1
   148    67    68    2
   149    18    19    2
   150     8     9    1
   151    62    61    1
   152    62    63    2
   153    85    86    2
   154    85    84    1
   155    75    74    2
   156    61    64    1
   157    84    83    1
   158    84    87    1
   159    76    73    1
   160    74    83   am
   161    74    73    1
   162     9    10    2
   163    73    72    1
   164    87    88    1
