@<TRIPOS>MOLECULE
tmp/5agnA02.pdb
 154 153 0 0 0
SMALL
GASTEIGER

@<TRIPOS>ATOM
      1  N          4.3890    0.6430   18.0470 N.3   169  GLN169     -0.1245
      2  CA         5.7900    0.3220   17.5920 C.3   169  GLN169      0.1566
      3  C          5.5800   -0.2590   16.1830 C.2   169  GLN169      0.2260
      4  O          4.4880   -0.7600   15.8880 O.2   169  GLN169     -0.2867
      5  CB         6.4440   -0.7530   18.4580 C.3   169  GLN169      0.0367
      6  CG         6.8430   -0.3500   19.8630 C.3   169  GLN169      0.0905
      7  CD         7.4290   -1.5290   20.6410 C.2   169  GLN169      0.2608
      8  OE1        7.9820   -2.4640   20.0520 O.2   169  GLN169     -0.2717
      9  NE2        7.2710   -1.5160   21.9500 N.am  169  GLN169     -0.0878
     10  N          4.6620   -5.0880   16.5220 N.3   172  ARG172     -0.1245
     11  CA         4.0710   -5.5620   17.7680 C.3   172  ARG172      0.1563
     12  C          3.1170   -6.7280   17.4590 C.2   172  ARG172      0.2260
     13  O          2.7230   -6.9120   16.3150 O.2   172  ARG172     -0.2867
     14  CB         3.3390   -4.4370   18.4810 C.3   172  ARG172      0.0307
     15  CG         4.1980   -3.7200   19.4980 C.3   172  ARG172      0.0489
     16  CD         3.3340   -2.8630   20.4020 C.3   172  ARG172      0.2205
     17  NE         3.6600   -3.0820   21.7930 N.pl3 172  ARG172     -0.0865
     18  CZ         3.1100   -2.3860   22.7910 C.cat 172  ARG172      0.5346
     19  NH1        2.1830   -1.4570   22.5510 N.pl3 172  ARG172      0.1354
     20  NH2        3.4720   -2.6250   24.0410 N.pl3 172  ARG172      0.1354
     21  N          9.8080  -13.5670   20.8000 N.3   252  TRP252     -0.1227
     22  CA         9.6740  -12.1160   20.7010 C.3   252  TRP252      0.1737
     23  C         10.3990  -11.6250   19.4350 C.2   252  TRP252      0.2595
     24  O         11.1350  -12.3890   18.8070 O.2   252  TRP252     -0.2718
     25  CB        10.1940  -11.4380   21.9600 C.3   252  TRP252      0.0564
     26  CG         9.5120  -10.1250   22.2380 C.ar  252  TRP252      0.0003
     27  CD1       10.0500   -8.8790   22.0880 C.ar  252  TRP252      0.0946
     28  CD2        8.1560   -9.9320   22.6960 C.ar  252  TRP252      0.0152
     29  NE1        9.1210   -7.9120   22.4400 N.ar  252  TRP252     -0.2442
     30  CE2        7.9520   -8.5300   22.8150 C.ar  252  TRP252      0.0810
     31  CE3        7.1030  -10.8090   23.0370 C.ar  252  TRP252      0.0012
     32  CZ2        6.7290   -7.9780   23.2600 C.ar  252  TRP252      0.0191
     33  CZ3        5.8820  -10.2670   23.4700 C.ar  252  TRP252      0.0001
     34  CH2        5.7070   -8.8620   23.5790 C.ar  252  TRP252      0.0015
     35  N         10.1390  -10.3830   19.0450 N.am  253  TYR253     -0.1976
     36  CA        10.8020   -9.7550   17.8750 C.3   253  TYR253      0.1639
     37  C         12.0810   -9.0630   18.3080 C.2   253  TYR253      0.2290
     38  O         12.1980   -8.6190   19.4660 O.2   253  TYR253     -0.2864
     39  CB         9.8510   -8.7800   17.1660 C.3   253  TYR253      0.0560
     40  CG         9.1760   -7.7700   18.0960 C.ar  253  TYR253     -0.0198
     41  CD1        8.0000   -8.0990   18.7980 C.ar  253  TYR253     -0.0009
     42  CD2        9.6920   -6.4730   18.2560 C.ar  253  TYR253     -0.0009
     43  CE1        7.3660   -7.1730   19.6300 C.ar  253  TYR253      0.0417
     44  CE2        9.0620   -5.5490   19.0950 C.ar  253  TYR253      0.0417
     45  CZ         7.8950   -5.9100   19.7880 C.ar  253  TYR253      0.1957
     46  OH         7.2720   -4.9910   20.6300 O.3   253  TYR253     -0.2866
     47  N         13.0720   -3.2000   18.6050 N.3   256  PRO256     -0.2116
     48  CA        12.1270   -2.3570   19.3370 C.3   256  PRO256      0.1372
     49  C         12.0220   -0.9780   18.6560 C.2   256  PRO256      0.2244
     50  O         12.9910   -0.1950   18.6650 O.2   256  PRO256     -0.2868
     51  CB        12.7630   -2.2400   20.7340 C.3   256  PRO256      0.0268
     52  CG        14.2740   -2.3580   20.4770 C.3   256  PRO256      0.0207
     53  CD        14.4200   -3.2320   19.2330 C.3   256  PRO256      0.0892
     54  N          9.6950    2.2290   18.5010 N.3   258  VAL258     -0.1245
     55  CA         8.6310    3.1410   18.9390 C.3   258  VAL258      0.1561
     56  C          8.2320    4.0530   17.8160 C.2   258  VAL258      0.2260
     57  O          9.0720    4.7680   17.2750 O.2   258  VAL258     -0.2867
     58  CB         9.0590    4.0210   20.1610 C.3   258  VAL258      0.0252
     59  CG1        7.9190    4.9720   20.5790 C.3   258  VAL258      0.0019
     60  CG2        9.4400    3.1360   21.3600 C.3   258  VAL258      0.0019
     61  N         11.5250    5.4290   15.5300 N.3   275  PHE275     -0.1227
     62  CA        12.9890    5.2170   15.8100 C.3   275  PHE275      0.1736
     63  C         13.1880    3.8690   16.4750 C.2   275  PHE275      0.2596
     64  O         12.2550    3.3320   17.0640 O.2   275  PHE275     -0.2718
     65  CB        13.5320    6.3010   16.7510 C.3   275  PHE275      0.0547
     66  CG        12.8040    6.4010   18.0850 C.ar  275  PHE275     -0.0202
     67  CD1       13.1770    5.6080   19.1720 C.ar  275  PHE275     -0.0042
     68  CD2       11.7440    7.3060   18.2540 C.ar  275  PHE275     -0.0042
     69  CE1       12.5240    5.7320   20.4140 C.ar  275  PHE275     -0.0003
     70  CE2       11.0940    7.4230   19.4940 C.ar  275  PHE275     -0.0003
     71  CZ        11.4900    6.6460   20.5630 C.ar  275  PHE275     -0.0000
     72  N         14.3930    3.3110   16.3840 N.am  276  SER276     -0.1938
     73  CA        14.6350    2.0070   16.9420 C.3   276  SER276      0.2055
     74  C         16.1210    1.9470   17.3630 C.2   276  SER276      0.2644
     75  O         16.9360    2.5780   16.7470 O.2   276  SER276     -0.2714
     76  CB        14.3500    0.8890   15.9190 C.3   276  SER276      0.2130
     77  OG        15.0700    1.0590   14.6790 O.3   276  SER276     -0.2179
     78  N         16.4180    1.1680   18.4120 N.am  277  GLY277     -0.1939
     79  CA        17.8050    0.8390   18.8090 C.3   277  GLY277      0.2014
     80  C         17.8440   -0.6570   18.9420 C.2   277  GLY277      0.2639
     81  O         17.7030   -1.3870   17.9660 O.2   277  GLY277     -0.2714
     82  N         18.0090   -1.1200   20.1680 N.am  278  TRP278     -0.1959
     83  CA        17.8980   -2.5400   20.4680 C.3   278  TRP278      0.1771
     84  C         17.4730   -2.7380   21.9190 C.2   278  TRP278      0.2620
     85  O         17.5500   -1.8100   22.7330 O.2   278  TRP278     -0.2715
     86  CB        19.2400   -3.2400   20.2410 C.3   278  TRP278      0.0590
     87  CG        20.4280   -2.6170   20.9660 C.ar  278  TRP278      0.0006
     88  CD1       20.7680   -2.7460   22.3150 C.ar  278  TRP278      0.0946
     89  CD2       21.4450   -1.8010   20.3760 C.ar  278  TRP278      0.0152
     90  NE1       21.9260   -2.0500   22.5660 N.ar  278  TRP278     -0.2442
     91  CE2       22.3650   -1.4640   21.4010 C.ar  278  TRP278      0.0810
     92  CE3       21.6750   -1.3300   19.0700 C.ar  278  TRP278      0.0012
     93  CZ2       23.5200   -0.6790   21.1500 C.ar  278  TRP278      0.0191
     94  CZ3       22.8040   -0.5320   18.8240 C.ar  278  TRP278      0.0001
     95  CH2       23.7280   -0.2350   19.8540 C.ar  278  TRP278      0.0015
     96  N         17.0520   -3.9510   22.2350 N.am  279  TYR279     -0.1960
     97  CA        16.4130   -4.2400   23.5230 C.3   279  TYR279      0.1771
     98  C         17.3790   -4.3710   24.6950 C.2   279  TYR279      0.2619
     99  O         18.5090   -4.8990   24.5630 O.2   279  TYR279     -0.2715
    100  CB        15.6130   -5.5430   23.4270 C.3   279  TYR279      0.0574
    101  CG        14.1440   -5.3920   23.0360 C.ar  279  TYR279     -0.0198
    102  CD1       13.2550   -4.7660   23.8780 C.ar  279  TYR279     -0.0009
    103  CD2       13.6400   -5.9740   21.8580 C.ar  279  TYR279     -0.0009
    104  CE1       11.8950   -4.6930   23.5690 C.ar  279  TYR279      0.0417
    105  CE2       12.2910   -5.8880   21.5190 C.ar  279  TYR279      0.0417
    106  CZ        11.4310   -5.2240   22.3660 C.ar  279  TYR279      0.1957
    107  OH        10.0770   -5.1140   22.0710 O.3   279  TYR279     -0.2866
    108  N         16.8990   -3.9330   25.8610 N.am  280  MET280     -0.1977
    109  CA        17.4980   -4.3450   27.1210 C.3   280  MET280      0.1605
    110  C         16.6350   -5.5300   27.5240 C.2   280  MET280      0.2287
    111  O         15.4000   -5.4480   27.4430 O.2   280  MET280     -0.2864
    112  CB        17.4460   -3.2060   28.1480 C.3   280  MET280      0.0413
    113  CG        18.1200   -3.5730   29.4830 C.3   280  MET280      0.0598
    114  SD        18.3720   -2.1440   30.5550 S.3   280  MET280     -0.1393
    115  CE        16.6530   -1.7820   30.9990 C.3   280  MET280      0.0692
    116  N         13.0280   -5.4590   29.3240 N.3   283  GLU283     -0.1245
    117  CA        11.8510   -4.9370   28.6470 C.3   283  GLU283      0.1567
    118  C         10.9220   -6.0800   28.2220 C.2   283  GLU283      0.2260
    119  O          9.7120   -6.0050   28.4080 O.2   283  GLU283     -0.2867
    120  CB        12.2140   -4.1240   27.4130 C.3   283  GLU283      0.0388
    121  CG        13.0110   -2.8620   27.7040 C.3   283  GLU283      0.1160
    122  CD        13.3180   -2.0910   26.4280 C.2   283  GLU283      0.3649
    123  OE1       12.4420   -1.3100   25.9880 O.co2 283  GLU283     -0.2457
    124  OE2       14.4280   -2.2500   25.8720 O.co2 283  GLU283     -0.2457
    125  N          8.8480   -7.0410   31.8010 N.3   287  ARG287     -0.1231
    126  CA         7.6520   -6.2630   31.4770 C.3   287  ARG287      0.1694
    127  C          6.7060   -6.9740   30.4930 C.2   287  ARG287      0.2592
    128  O          5.5360   -7.2150   30.8090 O.2   287  ARG287     -0.2718
    129  CB         8.0150   -4.8470   30.9580 C.3   287  ARG287      0.0321
    130  CG         8.8530   -3.9780   31.9140 C.3   287  ARG287      0.0489
    131  CD         8.2090   -3.8040   33.3110 C.3   287  ARG287      0.2205
    132  NE         6.8070   -3.3760   33.2400 N.pl3 287  ARG287     -0.0865
    133  CZ         6.4020   -2.1360   32.9330 C.cat 287  ARG287      0.5346
    134  NH1        7.2900   -1.1420   32.6890 N.pl3 287  ARG287      0.1354
    135  NH2        5.0870   -1.8760   32.8930 N.pl3 287  ARG287      0.1354
    136  N          7.2020   -7.2780   29.2930 N.am  288  ASP288     -0.1974
    137  CA         6.3310   -7.8280   28.2500 C.3   288  ASP288      0.1709
    138  C          5.8020   -9.2060   28.6530 C.2   288  ASP288      0.2293
    139  O          4.6040   -9.4910   28.4790 O.2   288  ASP288     -0.2864
    140  CB         7.0520   -7.8240   26.8870 C.3   288  ASP288      0.1436
    141  CG         7.4980   -6.4120   26.4790 C.2   288  ASP288      0.3671
    142  OD1        6.8880   -5.4520   27.0390 O.co2 288  ASP288     -0.2456
    143  OD2        8.4820   -6.2610   25.6740 O.co2 288  ASP288     -0.2456
    144  N          0.2030   -7.9370   30.7890 N.3   294  ARG294     -0.1245
    145  CA         0.8120   -8.2430   29.4980 C.3   294  ARG294      0.1563
    146  C          0.6950   -9.7500   29.2670 C.2   294  ARG294      0.2260
    147  O         -0.4010  -10.2720   29.4630 O.2   294  ARG294     -0.2867
    148  CB         2.2080   -7.6670   29.3700 C.3   294  ARG294      0.0307
    149  CG         2.2450   -6.1430   29.4160 C.3   294  ARG294      0.0489
    150  CD         1.6370   -5.4620   28.1950 C.3   294  ARG294      0.2205
    151  NE         2.2860   -5.8170   26.9240 N.pl3 294  ARG294     -0.0865
    152  CZ         3.5120   -5.4320   26.5500 C.cat 294  ARG294      0.5346
    153  NH1        4.2460   -4.6900   27.3620 N.pl3 294  ARG294      0.1354
    154  NH2        3.9950   -5.8010   25.3630 N.pl3 294  ARG294      0.1354
@<TRIPOS>BOND
     1    77    76    1
     2    61    62    1
     3    62    63    1
     4    62    65    1
     5     4     3    2
     6    76    73    1
     7     3     2    1
     8    13    12    2
     9    72    63   am
    10    72    73    1
    11    63    64    2
    12    10    11    1
    13    75    74    2
    14    65    66    1
    15    73    74    1
    16    39    36    1
    17    39    40    1
    18    57    56    2
    19    74    78   am
    20    12    11    1
    21     2     1    1
    22     2     5    1
    23    11    14    1
    24    56    55    1
    25    36    37    1
    26    36    35    1
    27    81    80    2
    28    66    68   ar
    29    66    67   ar
    30    40    42   ar
    31    40    41   ar
    32    68    70   ar
    33    42    44   ar
    34    37    38    2
    35    78    79    1
    36     5     6    1
    37    14    15    1
    38    54    55    1
    39    47    53    1
    40    47    48    1
    41    49    50    2
    42    49    48    1
    43    41    43   ar
    44    24    23    2
    45    79    80    1
    46    94    92   ar
    47    94    95   ar
    48    55    58    1
    49    80    82   am
    50    35    23   am
    51    92    89   ar
    52    44    45   ar
    53    67    69   ar
    54    53    52    1
    55    48    51    1
    56    23    22    1
    57    70    71   ar
    58    15    16    1
    59    43    45   ar
    60    45    46    1
    61    95    93   ar
    62     6     7    1
    63     8     7    2
    64    58    59    1
    65    58    60    1
    66    82    83    1
    67    86    83    1
    68    86    87    1
    69    89    87   ar
    70    89    91   ar
    71    16    17    1
    72    69    71   ar
    73    83    84    1
    74    52    51    1
    75     7     9   am
    76    22    21    1
    77    22    25    1
    78    87    88   ar
    79    93    91   ar
    80    91    90   ar
    81   105   103   ar
    82   105   106   ar
    83    17    18    2
    84   103   101   ar
    85    84    96   am
    86    84    85    2
    87    25    26    1
    88   107   106    1
    89    27    26   ar
    90    27    29   ar
    91    96    97    1
    92    26    28   ar
    93    88    90   ar
    94   106   104   ar
    95    29    30   ar
    96    19    18    1
    97    28    30   ar
    98    28    31   ar
    99    18    20    1
   100    30    32   ar
   101   101   100    1
   102   101   102   ar
   103    31    33   ar
   104    32    34   ar
   105   100    97    1
   106    33    34   ar
   107    97    98    1
   108   104   102   ar
   109    99    98    2
   110    98   108   am
   111   154   152    1
   112   143   141   ar
   113   108   109    1
   114   124   122   ar
   115   123   122   ar
   116   122   121    1
   117   141   140    1
   118   141   142   ar
   119   152   151    2
   120   152   153    1
   121   140   137    1
   122   151   150    1
   123   109   110    1
   124   109   112    1
   125   120   121    1
   126   120   117    1
   127   111   110    2
   128   112   113    1
   129   150   149    1
   130   118   119    2
   131   118   117    1
   132   137   138    1
   133   137   136    1
   134   139   138    2
   135   117   116    1
   136   146   147    2
   137   146   145    1
   138   136   127   am
   139   148   149    1
   140   148   145    1
   141   113   114    1
   142   145   144    1
   143   127   128    2
   144   127   126    1
   145   114   115    1
   146   129   126    1
   147   129   130    1
   148   126   125    1
   149   130   131    1
   150   134   133    1
   151   135   133    1
   152   133   132    2
   153   132   131    1
