@<TRIPOS>MOLECULE
tmp/5agoA02.pdb
 129 128 0 0 0
SMALL
GASTEIGER

@<TRIPOS>ATOM
      1  N          4.5430    0.5840   18.2240 N.3   169  GLN169     -0.1245
      2  CA         5.8590    0.1870   17.7350 C.3   169  GLN169      0.1566
      3  C          5.6690   -0.4240   16.3450 C.2   169  GLN169      0.2260
      4  O          4.6040   -0.9660   16.0490 O.2   169  GLN169     -0.2867
      5  CB         6.5160   -0.8530   18.6350 C.3   169  GLN169      0.0367
      6  CG         6.8620   -0.3820   20.0450 C.3   169  GLN169      0.0905
      7  CD         7.4100   -1.5110   20.8990 C.2   169  GLN169      0.2608
      8  OE1        8.2140   -2.3260   20.4330 O.2   169  GLN169     -0.2717
      9  NE2        6.9660   -1.5750   22.1550 N.am  169  GLN169     -0.0878
     10  N         10.1570  -13.6810   20.8110 N.3   252  TRP252     -0.1227
     11  CA         9.9650  -12.2420   20.7350 C.3   252  TRP252      0.1737
     12  C         10.6880  -11.7040   19.5030 C.2   252  TRP252      0.2595
     13  O         11.4930  -12.4040   18.8850 O.2   252  TRP252     -0.2718
     14  CB        10.4590  -11.5410   22.0050 C.3   252  TRP252      0.0564
     15  CG         9.7700  -10.2190   22.2840 C.ar  252  TRP252      0.0003
     16  CD1       10.3070   -8.9660   22.1430 C.ar  252  TRP252      0.0946
     17  CD2        8.4260  -10.0260   22.7560 C.ar  252  TRP252      0.0152
     18  NE1        9.3820   -8.0090   22.5020 N.ar  252  TRP252     -0.2442
     19  CE2        8.2200   -8.6310   22.8750 C.ar  252  TRP252      0.0810
     20  CE3        7.3760  -10.8930   23.0840 C.ar  252  TRP252      0.0012
     21  CZ2        7.0050   -8.0860   23.2970 C.ar  252  TRP252      0.0191
     22  CZ3        6.1720  -10.3470   23.5100 C.ar  252  TRP252      0.0001
     23  CH2        6.0000   -8.9560   23.6160 C.ar  252  TRP252      0.0015
     24  N         10.3970  -10.4600   19.1490 N.am  253  TYR253     -0.1976
     25  CA        11.0270   -9.8510   17.9810 C.3   253  TYR253      0.1639
     26  C         12.3060   -9.1360   18.3770 C.2   253  TYR253      0.2290
     27  O         12.4490   -8.6710   19.5100 O.2   253  TYR253     -0.2864
     28  CB        10.0650   -8.8870   17.2980 C.3   253  TYR253      0.0560
     29  CG         9.3810   -7.9100   18.2350 C.ar  253  TYR253     -0.0198
     30  CD1        8.1620   -8.2240   18.8380 C.ar  253  TYR253     -0.0009
     31  CD2        9.9390   -6.6640   18.4890 C.ar  253  TYR253     -0.0009
     32  CE1        7.5310   -7.3220   19.6800 C.ar  253  TYR253      0.0417
     33  CE2        9.3160   -5.7610   19.3110 C.ar  253  TYR253      0.0417
     34  CZ         8.1150   -6.0940   19.9130 C.ar  253  TYR253      0.1957
     35  OH         7.5010   -5.1770   20.7310 O.3   253  TYR253     -0.2866
     36  N         13.0720   -3.3040   18.6390 N.3   256  PRO256     -0.2116
     37  CA        12.1140   -2.4200   19.3010 C.3   256  PRO256      0.1372
     38  C         12.1120   -1.0750   18.5880 C.2   256  PRO256      0.2244
     39  O         13.1470   -0.4190   18.4650 O.2   256  PRO256     -0.2868
     40  CB        12.6630   -2.3070   20.7340 C.3   256  PRO256      0.0268
     41  CG        14.1510   -2.4610   20.5740 C.3   256  PRO256      0.0207
     42  CD        14.3840   -3.3050   19.3100 C.3   256  PRO256      0.0892
     43  N          9.8980    2.3340   18.5160 N.3   258  VAL258     -0.1245
     44  CA         8.8020    3.1740   18.9760 C.3   258  VAL258      0.1561
     45  C          8.3250    4.0740   17.8460 C.2   258  VAL258      0.2260
     46  O          9.1150    4.8120   17.2610 O.2   258  VAL258     -0.2867
     47  CB         9.2290    4.0260   20.1970 C.3   258  VAL258      0.0252
     48  CG1        8.1420    5.0260   20.5610 C.3   258  VAL258      0.0019
     49  CG2        9.5300    3.1200   21.3910 C.3   258  VAL258      0.0019
     50  N         11.4990    5.4110   15.5410 N.3   275  PHE275     -0.1241
     51  CA        12.9150    5.2110   15.8190 C.3   275  PHE275      0.1605
     52  C         13.1590    3.8670   16.4920 C.2   275  PHE275      0.2264
     53  O         12.2370    3.2560   17.0220 O.2   275  PHE275     -0.2867
     54  CB        13.4730    6.3540   16.6600 C.3   275  PHE275      0.0534
     55  CG        12.7760    6.5320   17.9840 C.ar  275  PHE275     -0.0203
     56  CD1       13.1190    5.7500   19.0730 C.ar  275  PHE275     -0.0042
     57  CD2       11.7770    7.4810   18.1320 C.ar  275  PHE275     -0.0042
     58  CE1       12.4850    5.9230   20.3040 C.ar  275  PHE275     -0.0003
     59  CE2       11.1390    7.6570   19.3640 C.ar  275  PHE275     -0.0003
     60  CZ        11.4960    6.8760   20.4400 C.ar  275  PHE275     -0.0000
     61  N         16.3840    1.1900   18.4480 N.3   277  GLY277     -0.1210
     62  CA        17.7320    0.8730   18.8840 C.3   277  GLY277      0.1956
     63  C         17.8600   -0.6300   19.0160 C.2   277  GLY277      0.2612
     64  O         17.8060   -1.3430   18.0300 O.2   277  GLY277     -0.2717
     65  N         18.0240   -1.1220   20.2430 N.am  278  TRP278     -0.1962
     66  CA        17.9850   -2.5600   20.4990 C.3   278  TRP278      0.1771
     67  C         17.5250   -2.7640   21.9390 C.2   278  TRP278      0.2619
     68  O         17.5540   -1.8240   22.7310 O.2   278  TRP278     -0.2715
     69  CB        19.3460   -3.2180   20.2720 C.3   278  TRP278      0.0590
     70  CG        20.4710   -2.5200   20.9690 C.ar  278  TRP278      0.0006
     71  CD1       20.7990   -2.6020   22.3050 C.ar  278  TRP278      0.0946
     72  CD2       21.4200   -1.6290   20.3780 C.ar  278  TRP278      0.0152
     73  NE1       21.8930   -1.8130   22.5660 N.ar  278  TRP278     -0.2442
     74  CE2       22.2970   -1.2100   21.4030 C.ar  278  TRP278      0.0810
     75  CE3       21.6230   -1.1490   19.0770 C.ar  278  TRP278      0.0012
     76  CZ2       23.3520   -0.3260   21.1670 C.ar  278  TRP278      0.0191
     77  CZ3       22.6700   -0.2770   18.8450 C.ar  278  TRP278      0.0001
     78  CH2       23.5220    0.1270   19.8860 C.ar  278  TRP278      0.0015
     79  N         17.1170   -3.9840   22.2710 N.am  279  TYR279     -0.1974
     80  CA        16.4790   -4.2540   23.5660 C.3   279  TYR279      0.1639
     81  C         17.4440   -4.3230   24.7440 C.2   279  TYR279      0.2290
     82  O         18.5640   -4.8070   24.6140 O.2   279  TYR279     -0.2864
     83  CB        15.7250   -5.5840   23.5260 C.3   279  TYR279      0.0560
     84  CG        14.2730   -5.5010   23.1340 C.ar  279  TYR279     -0.0198
     85  CD1       13.3430   -4.9000   23.9670 C.ar  279  TYR279     -0.0009
     86  CD2       13.8250   -6.0470   21.9250 C.ar  279  TYR279     -0.0009
     87  CE1       12.0100   -4.8370   23.6160 C.ar  279  TYR279      0.0417
     88  CE2       12.4980   -5.9870   21.5670 C.ar  279  TYR279      0.0417
     89  CZ        11.5970   -5.3760   22.4050 C.ar  279  TYR279      0.1957
     90  OH        10.2680   -5.3120   22.0530 O.3   279  TYR279     -0.2866
     91  N         13.2180   -5.4670   29.4150 N.3   283  GLU283     -0.1245
     92  CA        12.0310   -4.9940   28.7090 C.3   283  GLU283      0.1567
     93  C         11.1390   -6.1680   28.3090 C.2   283  GLU283      0.2260
     94  O          9.9350   -6.1510   28.5580 O.2   283  GLU283     -0.2867
     95  CB        12.4130   -4.1960   27.4490 C.3   283  GLU283      0.0388
     96  CG        13.2860   -2.9590   27.7140 C.3   283  GLU283      0.1160
     97  CD        13.5780   -2.1660   26.4410 C.2   283  GLU283      0.3649
     98  OE1       12.6510   -1.4920   25.9530 O.co2 283  GLU283     -0.2457
     99  OE2       14.7210   -2.2130   25.9270 O.co2 283  GLU283     -0.2457
    100  N          9.0340   -7.0140   31.8330 N.3   287  ARG287     -0.1231
    101  CA         7.8160   -6.2660   31.5600 C.3   287  ARG287      0.1694
    102  C          6.8760   -6.9970   30.5990 C.2   287  ARG287      0.2592
    103  O          5.7200   -7.2390   30.9410 O.2   287  ARG287     -0.2718
    104  CB         8.1380   -4.8580   31.0450 C.3   287  ARG287      0.0321
    105  CG         8.9600   -3.9610   31.9940 C.3   287  ARG287      0.0489
    106  CD         8.3260   -3.7960   33.4080 C.3   287  ARG287      0.2205
    107  NE         6.9050   -3.4560   33.3430 N.pl3 287  ARG287     -0.0865
    108  CZ         6.4290   -2.2510   33.0260 C.cat 287  ARG287      0.5346
    109  NH1        7.2520   -1.2410   32.7640 N.pl3 287  ARG287      0.1354
    110  NH2        5.1200   -2.0490   32.9830 N.pl3 287  ARG287      0.1354
    111  N          7.3630   -7.3510   29.4000 N.am  288  ASP288     -0.1974
    112  CA         6.4870   -7.9440   28.3900 C.3   288  ASP288      0.1709
    113  C          5.9980   -9.3230   28.8020 C.2   288  ASP288      0.2293
    114  O          4.8230   -9.6560   28.6150 O.2   288  ASP288     -0.2864
    115  CB         7.1680   -8.0100   27.0010 C.3   288  ASP288      0.1436
    116  CG         7.5950   -6.6470   26.4960 C.2   288  ASP288      0.3671
    117  OD1        7.0110   -5.6380   26.9440 O.co2 288  ASP288     -0.2456
    118  OD2        8.5130   -6.5820   25.6480 O.co2 288  ASP288     -0.2456
    119  N          0.2560   -8.0190   30.8840 N.3   294  ARG294     -0.1245
    120  CA         0.8220   -8.4460   29.5930 C.3   294  ARG294      0.1563
    121  C          0.7290   -9.9710   29.4310 C.2   294  ARG294      0.2260
    122  O         -0.3110  -10.5460   29.7300 O.2   294  ARG294     -0.2867
    123  CB         2.2570   -7.9480   29.4130 C.3   294  ARG294      0.0307
    124  CG         2.4260   -6.4370   29.5580 C.3   294  ARG294      0.0489
    125  CD         1.8090   -5.6850   28.4040 C.3   294  ARG294      0.2205
    126  NE         2.4500   -6.0530   27.1420 N.pl3 294  ARG294     -0.0865
    127  CZ         3.6550   -5.6270   26.7730 C.cat 294  ARG294      0.5346
    128  NH1        4.3430   -4.8150   27.5650 N.pl3 294  ARG294      0.1354
    129  NH2        4.1740   -6.0070   25.6110 N.pl3 294  ARG294      0.1354
@<TRIPOS>BOND
     1    50    51    1
     2    51    52    1
     3    51    54    1
     4     4     3    2
     5     3     2    1
     6    52    53    2
     7    54    55    1
     8    46    45    2
     9    28    25    1
    10    28    29    1
    11     2     1    1
    12     2     5    1
    13    45    44    1
    14    25    26    1
    15    25    24    1
    16    55    57   ar
    17    55    56   ar
    18    64    63    2
    19    57    59   ar
    20    29    31   ar
    21    29    30   ar
    22    26    27    2
    23    61    62    1
    24    39    38    2
    25    31    33   ar
    26    43    44    1
    27    38    37    1
    28     5     6    1
    29    36    37    1
    30    36    42    1
    31    30    32   ar
    32    77    75   ar
    33    77    78   ar
    34    62    63    1
    35    13    12    2
    36    44    47    1
    37    63    65   am
    38    56    58   ar
    39    75    72   ar
    40    24    12   am
    41    37    40    1
    42    42    41    1
    43    33    34   ar
    44    59    60   ar
    45    12    11    1
    46    32    34   ar
    47    78    76   ar
    48    34    35    1
    49     6     7    1
    50    47    48    1
    51    47    49    1
    52    65    66    1
    53    69    66    1
    54    69    70    1
    55    58    60   ar
    56    72    70   ar
    57    72    74   ar
    58     8     7    2
    59    66    67    1
    60    41    40    1
    61    11    10    1
    62    11    14    1
    63     7     9   am
    64    70    71   ar
    65    76    74   ar
    66    74    73   ar
    67    88    86   ar
    68    88    89   ar
    69    86    84   ar
    70    67    79   am
    71    67    68    2
    72    14    15    1
    73    90    89    1
    74    16    15   ar
    75    16    18   ar
    76    79    80    1
    77    15    17   ar
    78    71    73   ar
    79    89    87   ar
    80    18    19   ar
    81    17    19   ar
    82    17    20   ar
    83    19    21   ar
    84    20    22   ar
    85    84    83    1
    86    84    85   ar
    87    21    23   ar
    88    22    23   ar
    89    83    80    1
    90    80    81    1
    91    87    85   ar
    92    82    81    2
    93   129   127    1
    94   118   116   ar
    95    99    97   ar
    96    98    97   ar
    97    97    96    1
    98   116   117   ar
    99   116   115    1
   100   127   126    2
   101   127   128    1
   102   115   112    1
   103   126   125    1
   104    95    96    1
   105    95    92    1
   106    93    94    2
   107    93    92    1
   108   112   113    1
   109   112   111    1
   110   125   124    1
   111   114   113    2
   112    92    91    1
   113   111   102   am
   114   123   124    1
   115   123   120    1
   116   121   120    1
   117   121   122    2
   118   120   119    1
   119   102   103    2
   120   102   101    1
   121   104   101    1
   122   104   105    1
   123   101   100    1
   124   105   106    1
   125   109   108    1
   126   110   108    1
   127   108   107    2
   128   107   106    1
