@<TRIPOS>MOLECULE
tmp/5agpB03.pdb
 152 150 0 0 0
SMALL
GASTEIGER

@<TRIPOS>ATOM
      1  N          7.4640    5.5090   53.5500 N.3   108  CYS108     -0.1235
      2  CA         7.2380    4.2670   54.3660 C.3   108  CYS108      0.1677
      3  C          6.1920    3.3710   53.7710 C.2   108  CYS108      0.2270
      4  O          5.0000    3.7370   53.6830 O.2   108  CYS108     -0.2867
      5  CB         6.8550    4.5760   55.8300 C.3   108  CYS108      0.0956
      6  SG         6.6530    3.0850   56.8830 S.3   108  CYS108     -0.0801
      7  N         20.4550    3.7640   64.1840 N.3   171  GLN171     -0.1245
      8  CA        19.3910    2.8790   64.6500 C.3   171  GLN171      0.1566
      9  C         19.8080    2.3050   66.0430 C.2   171  GLN171      0.2260
     10  O         20.9920    2.1870   66.3550 O.2   171  GLN171     -0.2867
     11  CB        19.0860    1.7090   63.6730 C.3   171  GLN171      0.0367
     12  CG        18.7010    2.0360   62.1980 C.3   171  GLN171      0.0905
     13  CD        18.7090    0.7650   61.3120 C.2   171  GLN171      0.2608
     14  OE1       18.6740   -0.3720   61.8170 O.2   171  GLN171     -0.2717
     15  NE2       18.7530    0.9460   60.0050 N.am  171  GLN171     -0.0878
     16  N         22.6230   -1.9540   65.6400 N.3   174  ARG174     -0.1245
     17  CA        23.3400   -1.9500   64.3690 C.3   174  ARG174      0.1563
     18  C         24.7330   -2.4740   64.6300 C.2   174  ARG174      0.2260
     19  O         25.2660   -2.3350   65.7590 O.2   174  ARG174     -0.2867
     20  CB        23.4620   -0.4920   63.8480 C.3   174  ARG174      0.0307
     21  CG        22.4630   -0.1310   62.7460 C.3   174  ARG174      0.0489
     22  CD        22.8730    1.1040   61.9430 C.3   174  ARG174      0.2205
     23  NE        22.7660    0.7770   60.5460 N.pl3 174  ARG174     -0.0865
     24  CZ        22.9320    1.6180   59.5500 C.cat 174  ARG174      0.5346
     25  NH1       23.2080    2.8600   59.7720 N.pl3 174  ARG174      0.1354
     26  NH2       22.8370    1.1920   58.3030 N.pl3 174  ARG174      0.1354
     27  N         21.3770  -11.4410   61.3570 N.3   254  TRP254     -0.1227
     28  CA        20.9290  -10.0400   61.4870 C.3   254  TRP254      0.1737
     29  C         20.1330   -9.8560   62.7730 C.2   254  TRP254      0.2595
     30  O         19.7470  -10.8610   63.3640 O.2   254  TRP254     -0.2718
     31  CB        20.0980   -9.6050   60.2720 C.3   254  TRP254      0.0564
     32  CG        20.1740   -8.1390   60.0350 C.ar  254  TRP254      0.0003
     33  CD1       19.1830   -7.2520   60.1750 C.ar  254  TRP254      0.0946
     34  CD2       21.3160   -7.4230   59.5640 C.ar  254  TRP254      0.0152
     35  NE1       19.6470   -5.9780   59.8700 N.ar  254  TRP254     -0.2442
     36  CE2       20.9510   -6.0730   59.4710 C.ar  254  TRP254      0.0810
     37  CE3       22.6180   -7.8040   59.2080 C.ar  254  TRP254      0.0012
     38  CZ2       21.8240   -5.0920   59.0350 C.ar  254  TRP254      0.0191
     39  CZ3       23.4840   -6.8460   58.8000 C.ar  254  TRP254      0.0001
     40  CH2       23.0830   -5.4870   58.6890 C.ar  254  TRP254      0.0015
     41  N         19.8860   -8.6160   63.2090 N.am  255  TYR255     -0.1976
     42  CA        19.0480   -8.3860   64.3940 C.3   255  TYR255      0.1639
     43  C         17.5990   -8.3210   63.9080 C.2   255  TYR255      0.2290
     44  O         17.3270   -7.9760   62.7400 O.2   255  TYR255     -0.2864
     45  CB        19.4170   -7.0810   65.1070 C.3   255  TYR255      0.0560
     46  CG        19.6370   -5.9270   64.1520 C.ar  255  TYR255     -0.0198
     47  CD1       20.9010   -5.6880   63.5720 C.ar  255  TYR255     -0.0009
     48  CD2       18.5770   -5.1000   63.7830 C.ar  255  TYR255     -0.0009
     49  CE1       21.1050   -4.6390   62.6880 C.ar  255  TYR255      0.0417
     50  CE2       18.7790   -4.0410   62.8920 C.ar  255  TYR255      0.0417
     51  CZ        20.0300   -3.8300   62.3580 C.ar  255  TYR255      0.1957
     52  OH        20.1750   -2.7720   61.5000 O.3   255  TYR255     -0.2866
     53  N         14.4000   -3.4010   63.7170 N.3   258  PRO258     -0.2116
     54  CA        14.8790   -2.1960   63.0340 C.3   258  PRO258      0.1372
     55  C         14.3160   -0.9600   63.7680 C.2   258  PRO258      0.2244
     56  O         13.1020   -0.8200   63.8830 O.2   258  PRO258     -0.2868
     57  CB        14.2160   -2.2950   61.6270 C.3   258  PRO258      0.0268
     58  CG        13.0610   -3.2410   61.7590 C.3   258  PRO258      0.0207
     59  CD        13.1280   -3.9030   63.1520 C.3   258  PRO258      0.0892
     60  N         14.8380    3.0550   63.8710 N.3   260  VAL260     -0.1245
     61  CA        15.4430    4.2930   63.3830 C.3   260  VAL260      0.1561
     62  C         15.5650    5.2960   64.5340 C.2   260  VAL260      0.2260
     63  O         14.5710    5.6470   65.1380 O.2   260  VAL260     -0.2867
     64  CB        14.6630    4.8670   62.1630 C.3   260  VAL260      0.0252
     65  CG1       15.1310    6.2910   61.8610 C.3   260  VAL260      0.0019
     66  CG2       14.9390    4.0090   60.8950 C.3   260  VAL260      0.0019
     67  N         12.1370    5.1060   66.7870 N.3   277  PHE277     -0.1227
     68  CA        10.9440    4.3240   66.4840 C.3   277  PHE277      0.1736
     69  C         11.2740    2.9700   65.8410 C.2   277  PHE277      0.2596
     70  O         12.3700    2.7570   65.2690 O.2   277  PHE277     -0.2718
     71  CB         9.9440    5.1340   65.6820 C.3   277  PHE277      0.0547
     72  CG        10.4950    5.6190   64.3170 C.ar  277  PHE277     -0.0202
     73  CD1       10.4830    4.7890   63.2080 C.ar  277  PHE277     -0.0042
     74  CD2       11.0060    6.9030   64.1740 C.ar  277  PHE277     -0.0042
     75  CE1       10.9780    5.2210   61.9880 C.ar  277  PHE277     -0.0003
     76  CE2       11.4850    7.3260   62.9640 C.ar  277  PHE277     -0.0003
     77  CZ        11.4600    6.4850   61.8690 C.ar  277  PHE277     -0.0000
     78  N         10.3340    2.0490   65.8800 N.am  278  SER278     -0.1938
     79  CA        10.6740    0.7260   65.4230 C.3   278  SER278      0.2055
     80  C          9.4010    0.0840   64.9060 C.2   278  SER278      0.2644
     81  O          8.2930    0.3810   65.3860 O.2   278  SER278     -0.2714
     82  CB        11.2600   -0.1210   66.5580 C.3   278  SER278      0.2130
     83  OG        10.3010   -0.2920   67.5890 O.3   278  SER278     -0.2179
     84  N          9.5640   -0.7810   63.9040 N.am  279  GLY279     -0.1939
     85  CA         8.4980   -1.6180   63.5000 C.3   279  GLY279      0.2014
     86  C          9.0230   -3.0160   63.3450 C.2   279  GLY279      0.2639
     87  O          9.4490   -3.6490   64.3160 O.2   279  GLY279     -0.2714
     88  N          8.9760   -3.5000   62.1030 N.am  280  TRP280     -0.1959
     89  CA         9.6320   -4.7300   61.7460 C.3   280  TRP280      0.1771
     90  C         10.0940   -4.7240   60.2690 C.2   280  TRP280      0.2619
     91  O          9.6030   -3.9520   59.4570 O.2   280  TRP280     -0.2715
     92  CB         8.6900   -5.8950   61.9210 C.3   280  TRP280      0.0590
     93  CG         7.3460   -5.7900   61.2850 C.ar  280  TRP280      0.0006
     94  CD1        7.0280   -6.0960   59.9840 C.ar  280  TRP280      0.0946
     95  CD2        6.1120   -5.4350   61.9090 C.ar  280  TRP280      0.0152
     96  NE1        5.6920   -5.9350   59.7650 N.ar  280  TRP280     -0.2442
     97  CE2        5.0960   -5.5320   60.9220 C.ar  280  TRP280      0.0810
     98  CE3        5.7470   -5.0500   63.2030 C.ar  280  TRP280      0.0012
     99  CZ2        3.7460   -5.2500   61.1980 C.ar  280  TRP280      0.0191
    100  CZ3        4.3950   -4.7600   63.4670 C.ar  280  TRP280      0.0001
    101  CH2        3.4200   -4.8630   62.4680 C.ar  280  TRP280      0.0015
    102  N         10.9440   -5.6830   59.9340 N.am  281  TYR281     -0.1974
    103  CA        11.6680   -5.6470   58.6810 C.3   281  TYR281      0.1639
    104  C         10.8550   -6.1380   57.5170 C.2   281  TYR281      0.2290
    105  O         10.1700   -7.1160   57.6110 O.2   281  TYR281     -0.2864
    106  CB        12.8690   -6.5370   58.8070 C.3   281  TYR281      0.0560
    107  CG        14.0970   -5.8160   59.2420 C.ar  281  TYR281     -0.0198
    108  CD1       14.6610   -4.8160   58.4390 C.ar  281  TYR281     -0.0009
    109  CD2       14.7590   -6.1500   60.4390 C.ar  281  TYR281     -0.0009
    110  CE1       15.8340   -4.1790   58.8050 C.ar  281  TYR281      0.0417
    111  CE2       15.9390   -5.5130   60.7950 C.ar  281  TYR281      0.0417
    112  CZ        16.4530   -4.5280   59.9760 C.ar  281  TYR281      0.1957
    113  OH        17.6220   -3.9050   60.3090 O.3   281  TYR281     -0.2866
    114  N         15.0730   -5.2580   52.9280 N.3   285  GLU285     -0.1245
    115  CA        15.9090   -4.3280   53.6690 C.3   285  GLU285      0.1567
    116  C         17.2190   -4.9930   54.0190 C.2   285  GLU285      0.2260
    117  O         18.2970   -4.4060   53.7610 O.2   285  GLU285     -0.2867
    118  CB        15.2360   -3.7760   54.9380 C.3   285  GLU285      0.0388
    119  CG        14.0240   -2.9130   54.6460 C.3   285  GLU285      0.1160
    120  CD        13.3600   -2.4450   55.9640 C.2   285  GLU285      0.3649
    121  OE1       13.8710   -1.4600   56.5280 O.co2 285  GLU285     -0.2457
    122  OE2       12.3050   -2.9800   56.3720 O.co2 285  GLU285     -0.2457
    123  N         19.6510   -4.8760   50.4350 N.3   289  ARG289     -0.1231
    124  CA        20.4270   -3.6920   50.7470 C.3   289  ARG289      0.1694
    125  C         21.5770   -3.9830   51.7520 C.2   289  ARG289      0.2592
    126  O         22.7540   -3.7440   51.4400 O.2   289  ARG289     -0.2718
    127  CB        19.5010   -2.5570   51.2780 C.3   289  ARG289      0.0321
    128  CG        18.3210   -2.1730   50.3340 C.3   289  ARG289      0.0489
    129  CD        18.7080   -1.7830   48.8770 C.3   289  ARG289      0.2205
    130  NE        19.7590   -0.7600   48.8920 N.pl3 289  ARG289     -0.0865
    131  CZ        19.5840    0.5250   49.2570 C.cat 289  ARG289      0.5346
    132  NH1       18.3560    1.0040   49.5300 N.pl3 289  ARG289      0.1354
    133  NH2       20.6480    1.3460   49.3280 N.pl3 289  ARG289      0.1354
    134  N         21.2310   -4.4510   52.9520 N.am  290  ASP290     -0.1974
    135  CA        22.2510   -4.6860   53.9870 C.3   290  ASP290      0.1709
    136  C         23.3020   -5.7200   53.5280 C.2   290  ASP290      0.2293
    137  O         24.5090   -5.5350   53.7420 O.2   290  ASP290     -0.2864
    138  CB        21.6130   -5.0710   55.3480 C.3   290  ASP290      0.1436
    139  CG        20.6280   -4.0160   55.8280 C.2   290  ASP290      0.3671
    140  OD1       20.6900   -2.8590   55.3860 O.co2 290  ASP290     -0.2456
    141  OD2       19.7540   -4.3000   56.6580 O.co2 290  ASP290     -0.2456
    142  N         27.9050   -2.0760   51.5070 N.3   296  ARG296     -0.1245
    143  CA        27.4590   -2.7040   52.7910 C.3   296  ARG296      0.1563
    144  C         28.1990   -4.0290   52.9490 C.2   296  ARG296      0.2260
    145  O         29.3890   -4.0840   52.6310 O.2   296  ARG296     -0.2867
    146  CB        25.9250   -2.8140   52.8630 C.3   296  ARG296      0.0307
    147  CG        25.2210   -1.4640   52.6790 C.3   296  ARG296      0.0489
    148  CD        25.4140   -0.5310   53.8840 C.3   296  ARG296      0.2205
    149  NE        25.0220   -1.2120   55.1370 N.pl3 296  ARG296     -0.0865
    150  CZ        23.7630   -1.3500   55.5780 C.cat 296  ARG296      0.5346
    151  NH1       22.7560   -0.8090   54.9010 N.pl3 296  ARG296      0.1354
    152  NH2       23.5050   -1.9900   56.7380 N.pl3 296  ARG296      0.1354
@<TRIPOS>BOND
     1   129   130    1
     2   129   128    1
     3   130   131    2
     4   131   133    1
     5   131   132    1
     6   128   127    1
     7   123   124    1
     8   124   127    1
     9   124   125    1
    10   126   125    2
    11   142   143    1
    12   125   134   am
    13   145   144    2
    14   147   146    1
    15   147   148    1
    16   143   146    1
    17   143   144    1
    18   114   115    1
    19   134   135    1
    20   136   137    2
    21   136   135    1
    22     1     2    1
    23   115   116    1
    24   115   118    1
    25     4     3    2
    26   117   116    2
    27     3     2    1
    28   148   149    1
    29   135   138    1
    30     2     5    1
    31   119   118    1
    32   119   120    1
    33   151   150    1
    34   149   150    2
    35   138   139    1
    36   140   139   ar
    37   150   152    1
    38   139   141   ar
    39     5     6    1
    40   120   122   ar
    41   120   121   ar
    42   104   105    2
    43   104   103    1
    44    26    24    1
    45   108   110   ar
    46   108   107   ar
    47   103   106    1
    48   103   102    1
    49    40    39   ar
    50    40    38   ar
    51    39    37   ar
    52   110   112   ar
    53   106   107    1
    54    38    36   ar
    55    37    34   ar
    56   107   109   ar
    57    91    90    2
    58    36    34   ar
    59    36    35   ar
    60    24    25    1
    61    24    23    2
    62    34    32   ar
    63    96    94   ar
    64    96    97   ar
    65    35    33   ar
    66   102    90   am
    67   112   113    1
    68   112   111   ar
    69    94    93   ar
    70    15    13   am
    71    32    33   ar
    72    32    31    1
    73    90    89    1
    74    31    28    1
    75   109   111   ar
    76    23    22    1
    77    66    64    1
    78    97    99   ar
    79    97    95   ar
    80    99   101   ar
    81    93    95   ar
    82    93    92    1
    83    13    14    2
    84    13    12    1
    85    27    28    1
    86    28    29    1
    87    52    51    1
    88    57    58    1
    89    57    54    1
    90    89    92    1
    91    89    88    1
    92    58    59    1
    93    65    64    1
    94    77    75   ar
    95    77    76   ar
    96    95    98   ar
    97    22    21    1
    98    75    73   ar
    99    88    86   am
   100    64    61    1
   101    12    11    1
   102    51    49   ar
   103    51    50   ar
   104   101   100   ar
   105    49    47   ar
   106    44    43    2
   107    21    20    1
   108    29    41   am
   109    29    30    2
   110    50    48   ar
   111    76    74   ar
   112    54    53    1
   113    54    55    1
   114    59    53    1
   115    98   100   ar
   116    73    72   ar
   117    41    42    1
   118    86    85    1
   119    86    87    2
   120    61    60    1
   121    61    62    1
   122    85    84    1
   123    47    46   ar
   124    11     8    1
   125    55    56    2
   126    48    46   ar
   127    20    17    1
   128    84    80   am
   129    43    42    1
   130    46    45    1
   131    74    72   ar
   132     7     8    1
   133    72    71    1
   134    17    18    1
   135    17    16    1
   136    42    45    1
   137    62    63    2
   138    18    19    2
   139     8     9    1
   140    80    81    2
   141    80    79    1
   142    70    69    2
   143    79    78    1
   144    79    82    1
   145    71    68    1
   146    69    78   am
   147    69    68    1
   148     9    10    2
   149    68    67    1
   150    82    83    1
