@<TRIPOS>MOLECULE
tmp/5agsA00.pdb
 138 136 0 0 0
SMALL
GASTEIGER

@<TRIPOS>ATOM
      1  N        -17.8700   12.7670  -12.8150 N.3    16  PHE16      -0.1227
      2  CA       -18.3850   12.2140  -11.5680 C.3    16  PHE16       0.1736
      3  C        -17.6460   10.9280  -11.2240 C.2    16  PHE16       0.2596
      4  O        -17.5540   10.0060  -12.0510 O.2    16  PHE16      -0.2718
      5  CB       -19.8950   11.9400  -11.6410 C.3    16  PHE16       0.0547
      6  CG       -20.4330   11.2850  -10.3960 C.ar   16  PHE16      -0.0202
      7  CD1      -20.5290   12.0080   -9.2030 C.ar   16  PHE16      -0.0042
      8  CD2      -20.7550    9.9370  -10.3900 C.ar   16  PHE16      -0.0042
      9  CE1      -20.9900   11.4000   -8.0310 C.ar   16  PHE16      -0.0003
     10  CE2      -21.2200    9.3220   -9.2270 C.ar   16  PHE16      -0.0003
     11  CZ       -21.3390   10.0540   -8.0520 C.ar   16  PHE16      -0.0000
     12  N        -17.1330   10.8660   -9.9900 N.am   17  THR17      -0.1939
     13  CA       -16.4360    9.6510   -9.5290 C.3    17  THR17       0.2028
     14  C        -16.8970    9.1800   -8.1480 C.2    17  THR17       0.2643
     15  O        -17.1390    9.9860   -7.2630 O.2    17  THR17      -0.2714
     16  CB       -14.8830    9.8090   -9.5860 C.3    17  THR17       0.1808
     17  OG1      -14.2630    8.5700   -9.2220 O.3    17  THR17      -0.2208
     18  CG2      -14.3840   10.9150   -8.6490 C.3    17  THR17       0.0379
     19  N        -16.9980    7.8680   -7.9790 N.am   18  THR18      -0.1936
     20  CA       -17.1880    7.2760   -6.6510 C.3    18  THR18       0.2028
     21  C        -15.8660    6.9850   -5.9410 C.2    18  THR18       0.2642
     22  O        -15.8700    6.5590   -4.7720 O.2    18  THR18      -0.2714
     23  CB       -18.0110    5.9770   -6.7400 C.3    18  THR18       0.1808
     24  OG1      -17.2790    5.0150   -7.5110 O.3    18  THR18      -0.2208
     25  CG2      -19.3770    6.2430   -7.3760 C.3    18  THR18       0.0379
     26  N        -14.7400    7.2590   -6.6130 N.am   19  ARG19      -0.1977
     27  CA       -13.4050    6.9720   -6.0690 C.3    19  ARG19       0.1597
     28  C        -12.4770    8.1830   -6.2400 C.2    19  ARG19       0.2287
     29  O        -11.4450    8.1040   -6.9160 O.2    19  ARG19      -0.2864
     30  CB       -12.7980    5.6980   -6.6900 C.3    19  ARG19       0.0334
     31  CG       -13.5770    4.4030   -6.3540 C.3    19  ARG19       0.0492
     32  CD       -13.5640    4.1040   -4.8390 C.3    19  ARG19       0.2205
     33  NE       -12.1790    4.0030   -4.3620 N.pl3  19  ARG19      -0.0865
     34  CZ       -11.4000    2.9190   -4.5020 C.cat  19  ARG19       0.5346
     35  NH1      -11.8790    1.7960   -5.0470 N.pl3  19  ARG19       0.1354
     36  NH2      -10.1430    2.9340   -4.0830 N.pl3  19  ARG19       0.1354
     37  N        -18.6560    3.0680  -23.7990 N.3   109  TYR109     -0.1227
     38  CA       -18.8530    2.5250  -22.4470 C.3   109  TYR109      0.1736
     39  C        -19.2530    3.5860  -21.4540 C.2   109  TYR109      0.2595
     40  O        -19.7080    3.2680  -20.3540 O.2   109  TYR109     -0.2718
     41  CB       -17.6900    1.6590  -21.9470 C.3   109  TYR109      0.0548
     42  CG       -16.4330    2.3050  -21.3450 C.ar  109  TYR109     -0.0200
     43  CD1      -15.3540    2.6730  -22.1500 C.ar  109  TYR109     -0.0009
     44  CD2      -16.2650    2.3930  -19.9450 C.ar  109  TYR109     -0.0009
     45  CE1      -14.1710    3.1940  -21.5920 C.ar  109  TYR109      0.0417
     46  CE2      -15.0810    2.9060  -19.3750 C.ar  109  TYR109      0.0417
     47  CZ       -14.0430    3.3070  -20.2040 C.ar  109  TYR109      0.1957
     48  OH       -12.8540    3.7920  -19.6630 O.3   109  TYR109     -0.2866
     49  N        -19.0820    4.8460  -21.8470 N.am  110  VAL110     -0.1966
     50  CA       -19.5570    5.9710  -21.0470 C.3   110  VAL110      0.1727
     51  C        -20.8790    6.4660  -21.6090 C.2   110  VAL110      0.2616
     52  O        -20.9810    6.7720  -22.8040 O.2   110  VAL110     -0.2715
     53  CB       -18.4930    7.0990  -20.9720 C.3   110  VAL110      0.0290
     54  CG1      -19.0350    8.3250  -20.2250 C.3   110  VAL110      0.0023
     55  CG2      -17.2360    6.5580  -20.2890 C.3   110  VAL110      0.0023
     56  N        -21.8880    6.5040  -20.7390 N.am  111  LEU111     -0.1977
     57  CA       -23.2610    6.8740  -21.1100 C.3   111  LEU111      0.1596
     58  C        -23.5500    8.3640  -20.9580 C.2   111  LEU111      0.2287
     59  O        -23.2580    8.9580  -19.9120 O.2   111  LEU111     -0.2864
     60  CB       -24.2630    6.0740  -20.2630 C.3   111  LEU111      0.0297
     61  CG       -24.0570    4.5640  -20.2110 C.3   111  LEU111      0.0022
     62  CD1      -24.9250    3.9590  -19.1090 C.3   111  LEU111      0.0001
     63  CD2      -24.3720    3.9180  -21.5550 C.3   111  LEU111      0.0001
     64  N        -26.0000    9.9770  -17.9170 N.3   114  TYR114     -0.1227
     65  CA       -25.7240    9.5440  -16.5600 C.3   114  TYR114      0.1736
     66  C        -24.5630   10.3100  -15.9440 C.2   114  TYR114      0.2596
     67  O        -23.5460   10.5190  -16.5910 O.2   114  TYR114     -0.2718
     68  CB       -25.4150    8.0540  -16.5630 C.3   114  TYR114      0.0548
     69  CG       -25.4430    7.4510  -15.1970 C.ar  114  TYR114     -0.0200
     70  CD1      -26.6540    7.0760  -14.6120 C.ar  114  TYR114     -0.0009
     71  CD2      -24.2680    7.2530  -14.4800 C.ar  114  TYR114     -0.0009
     72  CE1      -26.6890    6.5250  -13.3430 C.ar  114  TYR114      0.0417
     73  CE2      -24.2900    6.7050  -13.2120 C.ar  114  TYR114      0.0417
     74  CZ       -25.5050    6.3420  -12.6510 C.ar  114  TYR114      0.1957
     75  OH       -25.5360    5.7910  -11.3960 O.3   114  TYR114     -0.2866
     76  N        -24.7050   10.7020  -14.6820 N.am  115  GLY115     -0.1942
     77  CA       -23.6890   11.5060  -14.0080 C.3   115  GLY115      0.2014
     78  C        -23.5140   12.8260  -14.7360 C.2   115  GLY115      0.2640
     79  O        -24.4760   13.5640  -14.9460 O.2   115  GLY115     -0.2714
     80  N        -22.2860   13.1130  -15.1510 N.am  116  THR116     -0.1936
     81  CA       -22.0060   14.2910  -15.9600 C.3   116  THR116      0.2028
     82  C        -21.7650   13.9200  -17.4230 C.2   116  THR116      0.2643
     83  O        -21.4410   14.7910  -18.2400 O.2   116  THR116     -0.2714
     84  CB       -20.7350   14.9590  -15.4690 C.3   116  THR116      0.1808
     85  OG1      -19.6580   14.0410  -15.6890 O.3   116  THR116     -0.2208
     86  CG2      -20.8330   15.2830  -13.9860 C.3   116  THR116      0.0379
     87  N        -21.9020   12.6330  -17.7460 N.am  117  GLY117     -0.1939
     88  CA       -21.5590   12.1290  -19.0850 C.3   117  GLY117      0.2014
     89  C        -20.0660   12.0330  -19.3630 C.2   117  GLY117      0.2639
     90  O        -19.6450   11.7940  -20.5000 O.2   117  GLY117     -0.2714
     91  N        -19.2540   12.1620  -18.3150 N.am  118  ALA118     -0.1963
     92  CA       -17.8140   12.0020  -18.4590 C.3   118  ALA118      0.1728
     93  C        -17.2270   11.3660  -17.2120 C.2   118  ALA118      0.2616
     94  O        -17.7070   11.5790  -16.0910 O.2   118  ALA118     -0.2715
     95  CB       -17.1510   13.3600  -18.7120 C.3   118  ALA118      0.0334
     96  N        -16.1600   10.6080  -17.4160 N.am  119  ILE119     -0.1963
     97  CA       -15.4540    9.9700  -16.3210 C.3   119  ILE119      0.1727
     98  C        -13.9740   10.3120  -16.3350 C.2   119  ILE119      0.2616
     99  O        -13.3960   10.6600  -17.3880 O.2   119  ILE119     -0.2715
    100  CB       -15.6090    8.4210  -16.3590 C.3   119  ILE119      0.0290
    101  CG1      -14.9100    7.8070  -17.5850 C.3   119  ILE119      0.0022
    102  CG2      -17.0880    8.0070  -16.2720 C.3   119  ILE119      0.0023
    103  CD1      -14.7530    6.2750  -17.5290 C.3   119  ILE119      0.0001
    104  N        -13.3530   10.2030  -15.1650 N.am  120  MET120     -0.1977
    105  CA       -11.9100   10.0200  -15.1030 C.3   120  MET120      0.1605
    106  C        -11.6520    8.5180  -15.1350 C.2   120  MET120      0.2287
    107  O        -12.3710    7.7480  -14.4940 O.2   120  MET120     -0.2864
    108  CB       -11.2820   10.6820  -13.8730 C.3   120  MET120      0.0413
    109  CG       -11.5340    9.9700  -12.5480 C.3   120  MET120      0.0598
    110  SD       -10.8960   10.9620  -11.1870 S.3   120  MET120     -0.1393
    111  CE       -10.9360    9.7530   -9.8720 C.3   120  MET120      0.0692
    112  N        -10.3690    0.3280  -11.5700 N.3   126  ASP126     -0.1239
    113  CA       -11.6740    0.1470  -12.1740 C.3   126  ASP126      0.1674
    114  C        -11.4740   -0.7930  -13.3570 C.2   126  ASP126      0.2266
    115  O        -10.7770   -0.4470  -14.3050 O.2   126  ASP126     -0.2867
    116  CB       -12.2350    1.5130  -12.6010 C.3   126  ASP126      0.1410
    117  CG       -13.6320    1.4280  -13.2520 C.2   126  ASP126      0.3668
    118  OD1      -13.9750    0.3680  -13.8460 O.co2 126  ASP126     -0.2456
    119  OD2      -14.3770    2.4240  -13.1950 O.co2 126  ASP126     -0.2456
    120  N        -13.2770   -1.7320  -15.7840 N.3   128  ARG128     -0.1231
    121  CA       -13.7480   -1.1950  -17.0750 C.3   128  ARG128      0.1694
    122  C        -12.6460   -0.3510  -17.7180 C.2   128  ARG128      0.2592
    123  O        -12.3800   -0.4510  -18.9200 O.2   128  ARG128     -0.2718
    124  CB       -15.0290   -0.3770  -16.8810 C.3   128  ARG128      0.0321
    125  CG       -16.1350   -1.1790  -16.2000 C.3   128  ARG128      0.0489
    126  CD       -17.2710   -0.3210  -15.7250 C.3   128  ARG128      0.2205
    127  NE       -16.8660    0.5890  -14.6460 N.pl3 128  ARG128     -0.0865
    128  CZ       -17.7080    1.3600  -13.9640 C.cat 128  ARG128      0.5346
    129  NH1      -19.0120    1.3330  -14.2160 N.pl3 128  ARG128      0.1354
    130  NH2      -17.2380    2.1690  -13.0100 N.pl3 128  ARG128      0.1354
    131  N        -11.9800    0.4620  -16.8970 N.am  129  ASP129     -0.1974
    132  CA       -10.8790    1.2960  -17.3740 C.3   129  ASP129      0.1709
    133  C         -9.6250    0.4700  -17.6450 C.2   129  ASP129      0.2293
    134  O         -8.8460    0.8000  -18.5390 O.2   129  ASP129     -0.2864
    135  CB       -10.5790    2.4070  -16.3500 C.3   129  ASP129      0.1436
    136  CG       -11.7640    3.3440  -16.1170 C.2   129  ASP129      0.3671
    137  OD1      -12.7140    3.4480  -16.9550 O.co2 129  ASP129     -0.2456
    138  OD2      -11.7440    4.0080  -15.0510 O.co2 129  ASP129     -0.2456
@<TRIPOS>BOND
     1    37    38    1
     2    52    51    2
     3    38    41    1
     4    38    39    1
     5    43    45   ar
     6    43    42   ar
     7    41    42    1
     8    49    39   am
     9    49    50    1
    10    51    50    1
    11    51    56   am
    12    45    47   ar
    13    63    61    1
    14    39    40    2
    15    42    44   ar
    16    57    58    1
    17    57    56    1
    18    57    60    1
    19    50    53    1
    20    53    55    1
    21    53    54    1
    22    58    59    2
    23    90    89    2
    24    60    61    1
    25    61    62    1
    26    47    48    1
    27    47    46   ar
    28    44    46   ar
    29    89    88    1
    30    89    91   am
    31    88    87    1
    32   123   122    2
    33    95    92    1
    34   134   133    2
    35    92    91    1
    36    92    93    1
    37    83    82    2
    38    64    65    1
    39    87    82   am
    40   122   121    1
    41   122   131   am
    42   133   132    1
    43   101   103    1
    44   101   100    1
    45    82    81    1
    46    96    93   am
    47    96    97    1
    48    99    98    2
    49   132   131    1
    50   132   135    1
    51    93    94    2
    52   121   124    1
    53   121   120    1
    54   137   136   ar
    55   124   125    1
    56    67    66    2
    57    68    65    1
    58    68    69    1
    59    65    66    1
    60   100    97    1
    61   100   102    1
    62   135   136    1
    63    98    97    1
    64    98   104   am
    65   125   126    1
    66   136   138   ar
    67    81    84    1
    68    81    80    1
    69    66    76   am
    70   126   127    1
    71    85    84    1
    72    84    86    1
    73    69    70   ar
    74    69    71   ar
    75   104   105    1
    76    80    78   am
    77   106   105    1
    78   106   107    2
    79   105   108    1
    80    79    78    2
    81    78    77    1
    82    76    77    1
    83   127   128    2
    84    70    72   ar
    85    71    73   ar
    86   115   114    2
    87   129   128    1
    88   128   130    1
    89   108   109    1
    90   118   117   ar
    91   114   113    1
    92    72    74   ar
    93   117   119   ar
    94   117   116    1
    95    73    74   ar
    96     1     2    1
    97    74    75    1
    98   116   113    1
    99   109   110    1
   100   113   112    1
   101     4     3    2
   102     5     2    1
   103     5     6    1
   104     2     3    1
   105     3    12   am
   106   110   111    1
   107     6     8   ar
   108     6     7   ar
   109     8    10   ar
   110    12    13    1
   111    16    13    1
   112    16    17    1
   113    16    18    1
   114    13    14    1
   115    10    11   ar
   116     7     9   ar
   117    14    19   am
   118    14    15    2
   119    11     9   ar
   120    19    20    1
   121    24    23    1
   122    25    23    1
   123    29    28    2
   124    23    20    1
   125    30    31    1
   126    30    27    1
   127    20    21    1
   128    26    27    1
   129    26    21   am
   130    31    32    1
   131    28    27    1
   132    21    22    2
   133    35    34    1
   134    32    33    1
   135    34    33    2
   136    34    36    1
