@<TRIPOS>MOLECULE
tmp/5aguA01.pdb
 104 99 0 0 0
SMALL
GASTEIGER

@<TRIPOS>ATOM
      1  N        -32.3130   79.1360   -9.6310 N.3   160  VAL160     -0.1245
      2  CA       -31.7990   77.9030  -10.1940 C.3   160  VAL160      0.1561
      3  C        -30.7940   78.2930  -11.2500 C.2   160  VAL160      0.2260
      4  O        -31.1070   79.0750  -12.1360 O.2   160  VAL160     -0.2867
      5  CB       -32.9220   77.0320  -10.8010 C.3   160  VAL160      0.0252
      6  CG1      -32.3360   75.8080  -11.4750 C.3   160  VAL160      0.0019
      7  CG2      -33.9300   76.6370   -9.7160 C.3   160  VAL160      0.0019
      8  N        -26.7530   71.5740  -12.3050 N.3   171  VAL171     -0.1245
      9  CA       -27.8500   72.3990  -11.8030 C.3   171  VAL171      0.1561
     10  C        -27.7120   72.6850  -10.3000 C.2   171  VAL171      0.2260
     11  O        -27.6010   71.7690   -9.4870 O.2   171  VAL171     -0.2867
     12  CB       -29.2140   71.7440  -12.0610 C.3   171  VAL171      0.0252
     13  CG1      -30.3480   72.7120  -11.7640 C.3   171  VAL171      0.0019
     14  CG2      -29.3040   71.2030  -13.4940 C.3   171  VAL171      0.0019
     15  N        -29.5900   74.8230   -7.1240 N.3   173  GLU173     -0.1245
     16  CA       -30.7070   75.5970   -6.6330 C.3   173  GLU173      0.1567
     17  C        -30.2850   76.2220   -5.3140 C.2   173  GLU173      0.2260
     18  O        -29.5940   75.5890   -4.5270 O.2   173  GLU173     -0.2867
     19  CB       -31.9570   74.7250   -6.4480 C.3   173  GLU173      0.0388
     20  CG       -33.0920   75.4630   -5.7640 C.3   173  GLU173      0.1160
     21  CD       -34.3500   74.6310   -5.6280 C.2   173  GLU173      0.3649
     22  OE1      -34.6390   73.8180   -6.5250 O.co2 173  GLU173     -0.2457
     23  OE2      -35.0480   74.7860   -4.6180 O.co2 173  GLU173     -0.2457
     24  N        -34.4450   71.1250  -19.3290 N.3   244  PHE244     -0.1227
     25  CA       -33.5570   70.1260  -18.7380 C.3   244  PHE244      0.1736
     26  C        -34.2080   69.2990  -17.6360 C.2   244  PHE244      0.2595
     27  O        -33.7450   68.1960  -17.3470 O.2   244  PHE244     -0.2718
     28  CB       -32.2900   70.8040  -18.2010 C.3   244  PHE244      0.0547
     29  CG       -32.5580   71.8520  -17.1590 C.ar  244  PHE244     -0.0202
     30  CD1      -32.6440   71.5110  -15.8100 C.ar  244  PHE244     -0.0042
     31  CD2      -32.7350   73.1770  -17.5210 C.ar  244  PHE244     -0.0042
     32  CE1      -32.9230   72.4770  -14.8500 C.ar  244  PHE244     -0.0003
     33  CE2      -32.9970   74.1390  -16.5630 C.ar  244  PHE244     -0.0003
     34  CZ       -33.0960   73.7780  -15.2210 C.ar  244  PHE244     -0.0000
     35  N        -35.2760   69.8150  -17.0240 N.am  245  ARG245     -0.1980
     36  CA       -35.8310   69.1740  -15.8320 C.3   245  ARG245      0.1597
     37  C        -36.3600   67.7720  -16.0740 C.2   245  ARG245      0.2287
     38  O        -36.3340   66.9360  -15.1680 O.2   245  ARG245     -0.2864
     39  CB       -36.9510   70.0220  -15.2220 C.3   245  ARG245      0.0334
     40  CG       -36.4510   71.0400  -14.2340 C.3   245  ARG245      0.0492
     41  CD       -37.5790   71.9290  -13.7550 C.3   245  ARG245      0.2205
     42  NE       -37.0510   72.9170  -12.8250 N.pl3 245  ARG245     -0.0865
     43  CZ       -36.6770   74.1410  -13.1660 C.cat 245  ARG245      0.5346
     44  NH1      -36.7870   74.5580  -14.4240 N.pl3 245  ARG245      0.1354
     45  NH2      -36.2070   74.9570  -12.2400 N.pl3 245  ARG245      0.1354
     46  N        -34.1320   64.7210  -15.3940 N.3   248  LEU248     -0.1245
     47  CA       -33.7960   64.3320  -14.0360 C.3   248  LEU248      0.1561
     48  C        -34.6270   63.1340  -13.6410 C.2   248  LEU248      0.2260
     49  O        -35.8310   63.2490  -13.4680 O.2   248  LEU248     -0.2867
     50  CB       -34.0150   65.4930  -13.0590 C.3   248  LEU248      0.0270
     51  CG       -33.2570   66.7580  -13.4530 C.3   248  LEU248      0.0019
     52  CD1      -33.6940   67.9740  -12.6090 C.3   248  LEU248      0.0001
     53  CD2      -31.7630   66.5260  -13.3400 C.3   248  LEU248      0.0001
     54  N        -24.8500   63.2410   -7.1580 N.3   346  ARG346     -0.1245
     55  CA       -25.3640   64.0980   -6.0980 C.3   346  ARG346      0.1563
     56  C        -24.3670   64.1460   -4.9550 C.2   346  ARG346      0.2260
     57  O        -23.7380   63.1340   -4.6330 O.2   346  ARG346     -0.2867
     58  CB       -26.7140   63.5860   -5.5540 C.3   346  ARG346      0.0307
     59  CG       -27.9240   63.8360   -6.4230 C.3   346  ARG346      0.0489
     60  CD       -29.2130   63.2430   -5.7920 C.3   346  ARG346      0.2205
     61  NE       -30.3270   63.1480   -6.7490 N.pl3 346  ARG346     -0.0865
     62  CZ       -31.0980   64.1730   -7.1160 C.cat 346  ARG346      0.5346
     63  NH1      -30.9080   65.3800   -6.5930 N.pl3 346  ARG346      0.1354
     64  NH2      -32.0700   63.9950   -7.9980 N.pl3 346  ARG346      0.1354
     65  N        -33.5450   64.2080   -2.9770 N.3   360  SER360     -0.1202
     66  CA       -33.4470   65.5760   -3.4710 C.3   360  SER360      0.2020
     67  C        -32.2160   66.2590   -2.8880 C.2   360  SER360      0.2619
     68  O        -31.8770   66.0460   -1.7250 O.2   360  SER360     -0.2717
     69  CB       -34.7180   66.3670   -3.1540 C.3   360  SER360      0.2103
     70  OG       -34.7490   66.7760   -1.8060 O.3   360  SER360     -0.2182
     71  N        -31.5240   67.0290   -3.7270 N.am  361  THR361     -0.1938
     72  CA       -30.3730   67.8360   -3.3270 C.3   361  THR361      0.2028
     73  C        -30.4740   69.1990   -4.0020 C.2   361  THR361      0.2642
     74  O        -31.1750   69.3480   -4.9930 O.2   361  THR361     -0.2714
     75  CB       -29.0170   67.1770   -3.7220 C.3   361  THR361      0.1808
     76  OG1      -29.0980   66.7120   -5.0670 O.3   361  THR361     -0.2208
     77  CG2      -28.6630   65.9930   -2.8080 C.3   361  THR361      0.0379
     78  N        -29.7650   70.1910   -3.4840 N.am  362  ASP362     -0.1957
     79  CA       -29.7550   71.5160   -4.1030 C.3   362  ASP362      0.1840
     80  C        -28.7370   71.5690   -5.2560 C.2   362  ASP362      0.2622
     81  O        -28.6280   72.5670   -5.9600 O.2   362  ASP362     -0.2715
     82  CB       -29.4660   72.6090   -3.0580 C.3   362  ASP362      0.1450
     83  CG       -28.1440   72.4050   -2.3120 C.2   362  ASP362      0.3671
     84  OD1      -27.2640   71.6350   -2.7680 O.co2 362  ASP362     -0.2456
     85  OD2      -27.9820   73.0480   -1.2500 O.co2 362  ASP362     -0.2456
     86  N        -28.0030   70.4740   -5.4490 N.am  363  TYR363     -0.1960
     87  CA       -27.0780   70.3630   -6.5650 C.3   363  TYR363      0.1771
     88  C        -27.1030   68.9890   -7.2360 C.2   363  TYR363      0.2619
     89  O        -27.1420   67.9490   -6.5720 O.2   363  TYR363     -0.2715
     90  CB       -25.6470   70.6720   -6.1190 C.3   363  TYR363      0.0574
     91  CG       -24.6890   70.6330   -7.2850 C.ar  363  TYR363     -0.0198
     92  CD1      -24.7300   71.6130   -8.2630 C.ar  363  TYR363     -0.0009
     93  CD2      -23.7820   69.5940   -7.4270 C.ar  363  TYR363     -0.0009
     94  CE1      -23.8800   71.5770   -9.3400 C.ar  363  TYR363      0.0417
     95  CE2      -22.9190   69.5380   -8.5130 C.ar  363  TYR363      0.0417
     96  CZ       -22.9680   70.5360   -9.4560 C.ar  363  TYR363      0.1957
     97  OH       -22.1200   70.4900  -10.5260 O.3   363  TYR363     -0.2866
     98  N        -27.1000   68.9890   -8.5660 N.am  364  VAL364     -0.1977
     99  CA       -26.9590   67.7440   -9.3200 C.3   364  VAL364      0.1596
    100  C        -26.0150   67.9500  -10.4910 C.2   364  VAL364      0.2287
    101  O        -25.9380   69.0420  -11.0630 O.2   364  VAL364     -0.2864
    102  CB       -28.3280   67.1870   -9.8670 C.3   364  VAL364      0.0276
    103  CG1      -29.3780   67.0670   -8.7600 C.3   364  VAL364      0.0022
    104  CG2      -28.8680   68.0460  -10.9910 C.3   364  VAL364      0.0022
@<TRIPOS>BOND
     1    24    25    1
     2    25    28    1
     3    25    26    1
     4    28    29    1
     5    26    27    2
     6    26    35   am
     7    31    29   ar
     8    31    33   ar
     9    29    30   ar
    10    35    36    1
    11    33    34   ar
    12    37    36    1
    13    37    38    2
    14    36    39    1
    15    30    32   ar
    16    46    47    1
    17    39    40    1
    18    34    32   ar
    19    44    43    1
    20    40    41    1
    21    47    48    1
    22    47    50    1
    23    41    42    1
    24    48    49    2
    25    14    12    1
    26    51    53    1
    27    51    50    1
    28    51    52    1
    29    43    42    2
    30    43    45    1
    31     8     9    1
    32     4     3    2
    33    12     9    1
    34    12    13    1
    35     9    10    1
    36     6     5    1
    37     3     2    1
    38   101   100    2
    39   104   102    1
    40     5     2    1
    41     5     7    1
    42    97    96    1
    43   100    99    1
    44    10    11    2
    45     2     1    1
    46   102    99    1
    47   102   103    1
    48    96    94   ar
    49    96    95   ar
    50    94    92   ar
    51    99    98    1
    52    98    88   am
    53    95    93   ar
    54    92    91   ar
    55    64    62    1
    56    93    91   ar
    57    91    90    1
    58    88    89    2
    59    88    87    1
    60    54    55    1
    61    15    16    1
    62    62    61    2
    63    62    63    1
    64    61    60    1
    65    16    19    1
    66    16    17    1
    67    87    90    1
    68    87    86    1
    69    22    21   ar
    70    19    20    1
    71    59    60    1
    72    59    58    1
    73    55    58    1
    74    55    56    1
    75    81    80    2
    76    20    21    1
    77    21    23   ar
    78    86    80   am
    79    17    18    2
    80    80    79    1
    81    76    75    1
    82    74    73    2
    83    56    57    2
    84    79    78    1
    85    79    82    1
    86    73    78   am
    87    73    72    1
    88    71    72    1
    89    71    67   am
    90    75    72    1
    91    75    77    1
    92    66    69    1
    93    66    65    1
    94    66    67    1
    95    69    70    1
    96    82    83    1
    97    67    68    2
    98    84    83   ar
    99    83    85   ar
