@<TRIPOS>MOLECULE
tmp/5agvB00.pdb
 225 222 0 0 0
SMALL
GASTEIGER

@<TRIPOS>ATOM
      1  N        -38.3530   25.9190   28.3120 N.3   152  LEU152     -0.1245
      2  CA       -37.7460   25.0430   27.3160 C.3   152  LEU152      0.1561
      3  C        -36.5960   24.2540   27.9500 C.2   152  LEU152      0.2260
      4  O        -35.4140   24.5340   27.6900 O.2   152  LEU152     -0.2867
      5  CB       -37.2520   25.8540   26.1170 C.3   152  LEU152      0.0270
      6  CG       -38.3250   26.5790   25.3040 C.3   152  LEU152      0.0019
      7  CD1      -37.6660   27.4750   24.2610 C.3   152  LEU152      0.0001
      8  CD2      -39.2430   25.5710   24.6320 C.3   152  LEU152      0.0001
      9  N        -35.1470   21.4330   27.6380 N.3   154  MET154     -0.1230
     10  CA       -34.1330   20.7580   26.8260 C.3   154  MET154      0.1702
     11  C        -32.9610   21.6840   26.4770 C.2   154  MET154      0.2592
     12  O        -31.8500   21.2190   26.2300 O.2   154  MET154     -0.2718
     13  CB       -34.7530   20.1940   25.5390 C.3   154  MET154      0.0401
     14  CG       -35.1080   21.2510   24.4900 C.3   154  MET154      0.0596
     15  SD       -36.5940   22.1980   24.8720 S.3   154  MET154     -0.1393
     16  CE       -37.8540   21.0440   24.3510 C.3   154  MET154      0.0692
     17  N        -33.1950   22.9910   26.4820 N.am  155  LEU155     -0.1980
     18  CA       -32.1430   23.9400   26.1270 C.3   155  LEU155      0.1596
     19  C        -31.2920   24.3990   27.3200 C.2   155  LEU155      0.2287
     20  O        -30.2790   25.0680   27.1230 O.2   155  LEU155     -0.2864
     21  CB       -32.7480   25.1670   25.4500 C.3   155  LEU155      0.0297
     22  CG       -33.6070   24.8990   24.2150 C.3   155  LEU155      0.0022
     23  CD1      -34.1630   26.2180   23.6990 C.3   155  LEU155      0.0001
     24  CD2      -32.8020   24.2260   23.1690 C.3   155  LEU155      0.0001
     25  N        -27.1730   24.8450   23.2020 N.3   172  THR172     -0.1218
     26  CA       -27.8070   25.8070   22.3080 C.3   172  THR172      0.1862
     27  C        -28.9930   26.4940   22.9890 C.2   172  THR172      0.2287
     28  O        -29.6090   25.9240   23.8890 O.2   172  THR172     -0.2866
     29  CB       -28.2850   25.1300   20.9930 C.3   172  THR172      0.1770
     30  OG1      -28.7010   26.1310   20.0580 O.3   172  THR172     -0.2211
     31  CG2      -29.4590   24.1510   21.2510 C.3   172  THR172      0.0375
     32  N        -31.2320   28.1060   20.7290 N.3   174  ARG174     -0.1231
     33  CA       -31.9160   28.3110   19.4450 C.3   174  ARG174      0.1694
     34  C        -31.2730   29.4170   18.6140 C.2   174  ARG174      0.2592
     35  O        -31.5610   29.5290   17.4250 O.2   174  ARG174     -0.2718
     36  CB       -33.4180   28.6270   19.6010 C.3   174  ARG174      0.0321
     37  CG       -34.2070   27.6250   20.4180 C.3   174  ARG174      0.0489
     38  CD       -35.5930   28.1910   20.7130 C.3   174  ARG174      0.2205
     39  NE       -36.4570   28.1480   19.5450 N.pl3 174  ARG174     -0.0865
     40  CZ       -37.5430   28.9030   19.3950 C.cat 174  ARG174      0.5346
     41  NH1      -37.8780   29.7810   20.3370 N.pl3 174  ARG174      0.1354
     42  NH2      -38.2820   28.7870   18.2990 N.pl3 174  ARG174      0.1354
     43  N        -30.4000   30.2220   19.2210 N.am  175  PHE175     -0.1962
     44  CA       -29.7920   31.3300   18.4780 C.3   175  PHE175      0.1771
     45  C        -28.3070   31.1160   18.2170 C.2   175  PHE175      0.2619
     46  O        -27.7820   31.5410   17.1900 O.2   175  PHE175     -0.2715
     47  CB       -30.0500   32.6450   19.2200 C.3   175  PHE175      0.0574
     48  CG       -31.5050   32.9640   19.2980 C.ar  175  PHE175     -0.0200
     49  CD1      -32.1890   33.3430   18.1520 C.ar  175  PHE175     -0.0042
     50  CD2      -32.2180   32.7820   20.4810 C.ar  175  PHE175     -0.0042
     51  CE1      -33.5670   33.5820   18.1850 C.ar  175  PHE175     -0.0003
     52  CE2      -33.5940   33.0400   20.5210 C.ar  175  PHE175     -0.0003
     53  CZ       -34.2650   33.4330   19.3730 C.ar  175  PHE175     -0.0000
     54  N        -27.6380   30.4460   19.1420 N.am  176  ARG176     -0.1963
     55  CA       -26.2610   30.0260   18.9190 C.3   176  ARG176      0.1729
     56  C        -26.1470   28.5940   19.3730 C.2   176  ARG176      0.2616
     57  O        -26.9370   28.1270   20.2090 O.2   176  ARG176     -0.2715
     58  CB       -25.2530   30.9120   19.6630 C.3   176  ARG176      0.0348
     59  CG       -25.5690   31.1440   21.1560 C.3   176  ARG176      0.0492
     60  CD       -26.3260   32.4530   21.3230 C.3   176  ARG176      0.2205
     61  NE       -26.7370   32.7780   22.6960 N.pl3 176  ARG176     -0.0865
     62  CZ       -25.9760   33.4220   23.5780 C.cat 176  ARG176      0.5346
     63  NH1      -24.7250   33.7630   23.2670 N.pl3 176  ARG176      0.1354
     64  NH2      -26.4610   33.7090   24.7860 N.pl3 176  ARG176      0.1354
     65  N        -25.1770   27.9000   18.7900 N.am  177  LEU177     -0.1977
     66  CA       -24.8670   26.5150   19.1120 C.3   177  LEU177      0.1596
     67  C        -23.3680   26.4130   19.3190 C.2   177  LEU177      0.2287
     68  O        -22.6090   26.7410   18.3980 O.2   177  LEU177     -0.2864
     69  CB       -25.3050   25.5770   17.9780 C.3   177  LEU177      0.0297
     70  CG       -24.7020   24.1700   17.9520 C.3   177  LEU177      0.0022
     71  CD1      -25.2040   23.3240   19.1560 C.3   177  LEU177      0.0001
     72  CD2      -25.0470   23.4840   16.6290 C.3   177  LEU177      0.0001
     73  N        -35.0410   15.6290   25.8080 N.3   248  GLU248     -0.1231
     74  CA       -34.4270   15.3070   24.5240 C.3   248  GLU248      0.1699
     75  C        -33.7260   16.5280   23.9450 C.2   248  GLU248      0.2592
     76  O        -34.2870   17.6210   23.9060 O.2   248  GLU248     -0.2718
     77  CB       -35.4810   14.7730   23.5490 C.3   248  GLU248      0.0402
     78  CG       -34.9540   14.4060   22.1650 C.3   248  GLU248      0.1161
     79  CD       -36.0500   13.8930   21.2410 C.2   248  GLU248      0.3649
     80  OE1      -37.1160   13.4730   21.7490 O.co2 248  GLU248     -0.2457
     81  OE2      -35.8510   13.9170   20.0070 O.co2 248  GLU248     -0.2457
     82  N        -32.4920   16.3340   23.5000 N.am  249  PHE249     -0.1963
     83  CA       -31.7030   17.4130   22.9180 C.3   249  PHE249      0.1756
     84  C        -31.9220   17.4800   21.3970 C.2   249  PHE249      0.2461
     85  O        -32.1100   16.4550   20.7440 O.2   249  PHE249     -0.2730
     86  CB       -30.2250   17.2110   23.2570 C.3   249  PHE249      0.0574
     87  CG       -29.3850   18.4440   23.0980 C.ar  249  PHE249     -0.0200
     88  CD1      -29.3750   19.4210   24.0810 C.ar  249  PHE249     -0.0042
     89  CD2      -28.6030   18.6300   21.9670 C.ar  249  PHE249     -0.0042
     90  CE1      -28.6040   20.5610   23.9400 C.ar  249  PHE249     -0.0003
     91  CE2      -27.8310   19.7650   21.8210 C.ar  249  PHE249     -0.0003
     92  CZ       -27.8290   20.7330   22.8130 C.ar  249  PHE249     -0.0000
     93  N        -31.9280   18.6960   20.8300 N.am  250  PRO250     -0.2716
     94  CA       -32.0910   18.8130   19.3780 C.3   250  PRO250      0.1536
     95  C        -30.9610   18.1090   18.6150 C.2   250  PRO250      0.2598
     96  O        -29.8430   18.0320   19.1420 O.2   250  PRO250     -0.2715
     97  CB       -32.0440   20.3270   19.1390 C.3   250  PRO250      0.0310
     98  CG       -32.3470   20.9400   20.4520 C.3   250  PRO250      0.0237
     99  CD       -31.7930   20.0080   21.4790 C.3   250  PRO250      0.0939
    100  N        -31.2520   17.6000   17.4190 N.am  251  LYS251     -0.1964
    101  CA       -30.2200   17.0360   16.5530 C.3   251  LYS251      0.1728
    102  C        -29.4330   18.1630   15.8830 C.2   251  LYS251      0.2616
    103  O        -29.8820   18.7480   14.9040 O.2   251  LYS251     -0.2715
    104  CB       -30.8350   16.1210   15.4930 C.3   251  LYS251      0.0311
    105  CG       -31.8560   15.1330   16.0420 C.3   251  LYS251      0.0038
    106  CD       -31.3150   14.3640   17.2430 C.3   251  LYS251      0.0206
    107  CE       -30.1800   13.4200   16.8660 C.3   251  LYS251      0.1093
    108  NZ       -29.8690   12.4530   17.9700 N.3   251  LYS251     -0.1314
    109  N        -28.2540   18.4540   16.4090 N.am  252  PHE252     -0.1974
    110  CA       -27.5100   19.6490   15.9990 C.3   252  PHE252      0.1639
    111  C        -26.4720   19.3860   14.9130 C.2   252  PHE252      0.2290
    112  O        -25.9910   20.3140   14.2730 O.2   252  PHE252     -0.2864
    113  CB       -26.8160   20.2530   17.2160 C.3   252  PHE252      0.0560
    114  CG       -25.7970   19.3360   17.8350 C.ar  252  PHE252     -0.0200
    115  CD1      -26.1760   18.3870   18.7700 C.ar  252  PHE252     -0.0042
    116  CD2      -24.4620   19.4060   17.4590 C.ar  252  PHE252     -0.0042
    117  CE1      -25.2460   17.5270   19.3200 C.ar  252  PHE252     -0.0003
    118  CE2      -23.5280   18.5640   18.0130 C.ar  252  PHE252     -0.0003
    119  CZ       -23.9150   17.6170   18.9350 C.ar  252  PHE252     -0.0000
    120  N        -26.4760   18.0400   11.9730 N.3   254  GLN254     -0.1231
    121  CA       -26.8590   18.3900   10.6100 C.3   254  GLN254      0.1698
    122  C        -26.6620   19.8850   10.3070 C.2   254  GLN254      0.2592
    123  O        -26.5880   20.2790    9.1440 O.2   254  GLN254     -0.2718
    124  CB       -28.3180   17.9980   10.3650 C.3   254  GLN254      0.0381
    125  CG       -29.2200   18.3170   11.5530 C.3   254  GLN254      0.0905
    126  CD       -30.6890   18.0580   11.2710 C.2   254  GLN254      0.2608
    127  OE1      -31.3810   17.4220   12.0690 O.2   254  GLN254     -0.2717
    128  NE2      -31.1770   18.5630   10.1380 N.am  254  GLN254     -0.0878
    129  N        -26.5780   20.7080   11.3490 N.am  255  LEU255     -0.1980
    130  CA       -26.4370   22.1520   11.1780 C.3   255  LEU255      0.1596
    131  C        -25.0000   22.5850   10.8660 C.2   255  LEU255      0.2287
    132  O        -24.7770   23.6850   10.3820 O.2   255  LEU255     -0.2864
    133  CB       -26.9240   22.8930   12.4330 C.3   255  LEU255      0.0297
    134  CG       -28.4350   23.1480   12.5530 C.3   255  LEU255      0.0022
    135  CD1      -29.1960   21.8800   12.8740 C.3   255  LEU255      0.0001
    136  CD2      -28.7150   24.2270   13.5980 C.3   255  LEU255      0.0001
    137  N        -26.9110   39.9300   16.2270 N.3   327  ASN327     -0.1240
    138  CA       -27.0720   40.3840   17.6000 C.3   327  ASN327      0.1653
    139  C        -25.6660   40.5490   18.1910 C.2   327  ASN327      0.2266
    140  O        -24.9070   39.5730   18.2840 O.2   327  ASN327     -0.2867
    141  CB       -27.9320   39.3690   18.3730 C.3   327  ASN327      0.1155
    142  CG       -28.0740   39.6990   19.8620 C.2   327  ASN327      0.2627
    143  OD1      -27.1220   40.1310   20.5120 O.2   327  ASN327     -0.2716
    144  ND2      -29.2700   39.4640   20.4070 N.am  327  ASN327     -0.0877
    145  N        -24.6960   38.2680   21.1790 N.3   330  TYR330     -0.1241
    146  CA       -24.4570   36.8900   20.7390 C.3   330  TYR330      0.1605
    147  C        -23.1420   36.7710   19.9900 C.2   330  TYR330      0.2264
    148  O        -22.4350   35.7660   20.0750 O.2   330  TYR330     -0.2867
    149  CB       -25.5670   36.4030   19.8180 C.3   330  TYR330      0.0534
    150  CG       -26.9160   36.2610   20.4590 C.ar  330  TYR330     -0.0201
    151  CD1      -27.0850   36.3640   21.8470 C.ar  330  TYR330     -0.0009
    152  CD2      -28.0380   36.0290   19.6740 C.ar  330  TYR330     -0.0009
    153  CE1      -28.3420   36.2240   22.4220 C.ar  330  TYR330      0.0417
    154  CE2      -29.2950   35.8840   20.2400 C.ar  330  TYR330      0.0417
    155  CZ       -29.4410   35.9880   21.6070 C.ar  330  TYR330      0.1957
    156  OH       -30.7020   35.8430   22.1530 O.3   330  TYR330     -0.2866
    157  N        -28.9040   35.1290    5.4640 N.3   351  GLY351     -0.1210
    158  CA       -29.9870   34.5780    6.2610 C.3   351  GLY351      0.1956
    159  C        -29.7160   33.2110    6.8810 C.2   351  GLY351      0.2612
    160  O        -30.6070   32.6250    7.4820 O.2   351  GLY351     -0.2717
    161  N        -28.4870   32.7120    6.7490 N.am  352  LYS352     -0.1966
    162  CA       -28.1340   31.3610    7.2060 C.3   352  LYS352      0.1713
    163  C        -27.0060   31.4120    8.2450 C.2   352  LYS352      0.2458
    164  O        -26.2980   32.4110    8.3350 O.2   352  LYS352     -0.2730
    165  CB       -27.7370   30.4880    6.0060 C.3   352  LYS352      0.0311
    166  CG       -28.9280   30.0650    5.1460 C.3   352  LYS352      0.0038
    167  CD       -29.9670   29.3390    5.9980 C.3   352  LYS352      0.0206
    168  CE       -31.2360   29.0430    5.2000 C.3   352  LYS352      0.1093
    169  NZ       -30.9600   28.0590    4.1380 N.3   352  LYS352     -0.1314
    170  N        -26.8300   30.3330    9.0340 N.am  353  PRO353     -0.2727
    171  CA       -25.8820   30.4030   10.1550 C.3   353  PRO353      0.1402
    172  C        -24.4540   30.7470    9.7520 C.2   353  PRO353      0.2269
    173  O        -23.9910   30.3950    8.6560 O.2   353  PRO353     -0.2865
    174  CB       -25.9260   28.9850   10.7390 C.3   353  PRO353      0.0296
    175  CG       -27.2650   28.4810   10.3860 C.3   353  PRO353      0.0237
    176  CD       -27.5890   29.0650    9.0370 C.3   353  PRO353      0.0939
    177  N        -21.7490   28.3050   16.3030 N.3   385  LEU385     -0.1231
    178  CA       -22.5960   28.5030   15.1420 C.3   385  LEU385      0.1693
    179  C        -23.6310   29.5580   15.5000 C.2   385  LEU385      0.2592
    180  O        -24.3940   29.3680   16.4430 O.2   385  LEU385     -0.2718
    181  CB       -23.2770   27.1940   14.7420 C.3   385  LEU385      0.0284
    182  CG       -23.9500   27.1680   13.3680 C.3   385  LEU385      0.0019
    183  CD1      -22.9020   27.1570   12.2610 C.3   385  LEU385      0.0001
    184  CD2      -24.8850   25.9800   13.2340 C.3   385  LEU385      0.0001
    185  N        -23.6490   30.6610   14.7640 N.am  386  LEU386     -0.1966
    186  CA       -24.4750   31.8020   15.1440 C.3   386  LEU386      0.1728
    187  C        -25.4940   32.1760   14.0790 C.2   386  LEU386      0.2616
    188  O        -25.1210   32.4310   12.9340 O.2   386  LEU386     -0.2715
    189  CB       -23.5740   33.0100   15.4330 C.3   386  LEU386      0.0311
    190  CG       -24.3270   34.2890   15.7960 C.3   386  LEU386      0.0022
    191  CD1      -25.1970   34.0780   17.0360 C.3   386  LEU386      0.0001
    192  CD2      -23.3390   35.4160   16.0490 C.3   386  LEU386      0.0001
    193  N        -26.7760   32.2450   14.4380 N.am  387  MET387     -0.1964
    194  CA       -27.7600   32.6940   13.4700 C.3   387  MET387      0.1722
    195  C        -27.6810   34.2220   13.3200 C.2   387  MET387      0.2458
    196  O        -27.5650   34.9450   14.3120 O.2   387  MET387     -0.2730
    197  CB       -29.1780   32.2730   13.8670 C.3   387  MET387      0.0427
    198  CG       -30.1610   32.3050   12.6870 C.3   387  MET387      0.0599
    199  SD       -29.8390   30.9910   11.4920 S.3   387  MET387     -0.1393
    200  CE       -31.2300   31.2110   10.3640 C.3   387  MET387      0.0692
    201  N        -27.7110   34.7110   12.0680 N.am  388  PRO388     -0.2716
    202  CA       -27.7960   36.1550   11.8330 C.3   388  PRO388      0.1536
    203  C        -29.2100   36.6680   12.0710 C.2   388  PRO388      0.2598
    204  O        -30.1520   35.8680   12.2040 O.2   388  PRO388     -0.2715
    205  CB       -27.4100   36.2890   10.3570 C.3   388  PRO388      0.0310
    206  CG       -27.9010   34.9890    9.7420 C.3   388  PRO388      0.0237
    207  CD       -27.6310   33.9460   10.8030 C.3   388  PRO388      0.0939
    208  N        -29.3580   37.9890   12.1300 N.am  389  VAL389     -0.1964
    209  CA       -30.6810   38.5970   12.1750 C.3   389  VAL389      0.1727
    210  C        -30.9070   39.2340   10.8180 C.2   389  VAL389      0.2616
    211  O        -29.9420   39.4780   10.0860 O.2   389  VAL389     -0.2715
    212  CB       -30.8070   39.6310   13.3080 C.3   389  VAL389      0.0290
    213  CG1      -30.7210   38.9360   14.6560 C.3   389  VAL389      0.0023
    214  CG2      -29.7110   40.7100   13.1930 C.3   389  VAL389      0.0023
    215  N        -32.1640   39.4960   10.4760 N.am  390  ARG390     -0.1977
    216  CA       -32.4820   40.0580    9.1620 C.3   390  ARG390      0.1597
    217  C        -32.1480   41.5430    9.0780 C.2   390  ARG390      0.2287
    218  O        -32.3790   42.3010   10.0210 O.2   390  ARG390     -0.2864
    219  CB       -33.9550   39.8420    8.8240 C.3   390  ARG390      0.0334
    220  CG       -34.3510   38.3780    8.7990 C.3   390  ARG390      0.0492
    221  CD       -35.2000   38.0130    7.5830 C.3   390  ARG390      0.2205
    222  NE       -35.5400   36.5880    7.5840 N.pl3 390  ARG390     -0.0865
    223  CZ       -34.8620   35.6520    6.9240 C.cat 390  ARG390      0.5346
    224  NH1      -33.8070   35.9810    6.1860 N.pl3 390  ARG390      0.1354
    225  NH2      -35.2480   34.3860    6.9940 N.pl3 390  ARG390      0.1354
@<TRIPOS>BOND
     1   169   168    1
     2   166   167    1
     3   166   165    1
     4   168   167    1
     5   157   158    1
     6   165   162    1
     7   224   223    1
     8   158   159    1
     9   161   159   am
    10   161   162    1
    11   159   160    2
    12   223   225    1
    13   223   222    2
    14   162   163    1
    15   221   222    1
    16   221   220    1
    17   163   164    2
    18   163   170   am
    19   173   172    2
    20   220   219    1
    21   219   216    1
    22   170   176    1
    23   170   171    1
    24   176   175    1
    25   217   216    1
    26   217   218    2
    27   123   122    2
    28   216   215    1
    29   206   205    1
    30   206   207    1
    31   172   171    1
    32   211   210    2
    33   128   126   am
    34   171   174    1
    35   122   121    1
    36   122   129   am
    37   205   202    1
    38   200   199    1
    39   124   121    1
    40   124   125    1
    41   132   131    2
    42   175   174    1
    43   215   210   am
    44   121   120    1
    45   207   201    1
    46   210   209    1
    47   131   130    1
    48   130   129    1
    49   130   133    1
    50   126   125    1
    51   126   127    2
    52   199   198    1
    53   202   201    1
    54   202   203    1
    55   201   195   am
    56   203   208   am
    57   203   204    2
    58   208   209    1
    59   209   212    1
    60   183   182    1
    61   133   134    1
    62   134   135    1
    63   134   136    1
    64   198   197    1
    65   188   187    2
    66   214   212    1
    67   184   182    1
    68   212   213    1
    69   195   194    1
    70   195   196    2
    71   182   181    1
    72   194   197    1
    73   194   193    1
    74   187   193   am
    75   187   186    1
    76   112   111    2
    77   181   178    1
    78   185   186    1
    79   185   179   am
    80   103   102    2
    81   111   110    1
    82   178   179    1
    83   178   177    1
    84   186   189    1
    85   189   190    1
    86   104   105    1
    87   104   101    1
    88   179   180    2
    89   190   192    1
    90   190   191    1
    91   102   109   am
    92   102   101    1
    93   110   109    1
    94   110   113    1
    95   105   106    1
    96   137   138    1
    97   101   100    1
    98    72    70    1
    99   107   106    1
   100   107   108    1
   101    46    45    2
   102   113   114    1
   103   100    95   am
   104    35    34    2
   105   116   114   ar
   106   116   118   ar
   107   138   139    1
   108   138   141    1
   109   114   115   ar
   110    70    69    1
   111    70    71    1
   112    69    66    1
   113   118   119   ar
   114    49    51   ar
   115    49    48   ar
   116    51    53   ar
   117   139   140    2
   118    45    44    1
   119    45    54   am
   120    42    40    1
   121   141   142    1
   122    68    67    2
   123    44    47    1
   124    44    43    1
   125    34    43   am
   126    34    33    1
   127    95    96    2
   128    95    94    1
   129   115   117   ar
   130    65    66    1
   131    65    56   am
   132    55    54    1
   133    55    56    1
   134    55    58    1
   135   119   117   ar
   136    66    67    1
   137    97    94    1
   138    97    98    1
   139    47    48    1
   140    48    50   ar
   141    53    52   ar
   142    56    57    2
   143    94    93    1
   144    40    39    2
   145    40    41    1
   146    33    36    1
   147    33    32    1
   148    39    38    1
   149    36    37    1
   150    58    59    1
   151   152   154   ar
   152   152   150   ar
   153   149   150    1
   154   149   146    1
   155   142   144   am
   156   142   143    2
   157   147   148    2
   158   147   146    1
   159    81    79   ar
   160    30    29    1
   161   154   155   ar
   162    37    38    1
   163    98    99    1
   164   150   151   ar
   165    50    52   ar
   166   146   145    1
   167    85    84    2
   168    93    84   am
   169    93    99    1
   170    29    31    1
   171    29    26    1
   172    59    60    1
   173    79    80   ar
   174    79    78    1
   175    60    61    1
   176    84    83    1
   177   155   156    1
   178   155   153   ar
   179    91    89   ar
   180    91    92   ar
   181   151   153   ar
   182    89    87   ar
   183    78    77    1
   184    26    27    1
   185    26    25    1
   186    61    62    2
   187    92    90   ar
   188    83    86    1
   189    83    82    1
   190    27    28    2
   191    87    86    1
   192    87    88   ar
   193    24    22    1
   194    63    62    1
   195    82    75   am
   196    77    74    1
   197    62    64    1
   198    23    22    1
   199    76    75    2
   200    90    88   ar
   201    75    74    1
   202    22    21    1
   203     7     6    1
   204    16    15    1
   205    14    15    1
   206    14    13    1
   207    74    73    1
   208     8     6    1
   209     6     5    1
   210    21    18    1
   211    13    10    1
   212     5     2    1
   213    18    17    1
   214    18    19    1
   215    12    11    2
   216    11    17   am
   217    11    10    1
   218    10     9    1
   219    20    19    2
   220     2     3    1
   221     2     1    1
   222     4     3    2
