@<TRIPOS>MOLECULE
tmp/5ah2C01.pdb
 193 189 0 0 0
SMALL
GASTEIGER

@<TRIPOS>ATOM
      1  N        -28.7380   25.6800  -36.0010 N.3   151  LEU151     -0.1245
      2  CA       -28.0570   26.1900  -37.1940 C.3   151  LEU151      0.1561
      3  C        -28.6160   25.5740  -38.4760 C.2   151  LEU151      0.2260
      4  O        -28.1360   24.5310  -38.9170 O.2   151  LEU151     -0.2867
      5  CB       -26.5530   25.9190  -37.1080 C.3   151  LEU151      0.0270
      6  CG       -25.6000   26.9930  -37.6460 C.3   151  LEU151      0.0019
      7  CD1      -26.0820   27.5050  -38.9740 C.3   151  LEU151      0.0001
      8  CD2      -25.4460   28.1560  -36.6680 C.3   151  LEU151      0.0001
      9  N        -28.2680   26.3350  -41.7230 N.3   153  MET153     -0.1230
     10  CA       -27.4570   26.1200  -42.9220 C.3   153  MET153      0.1702
     11  C        -26.4900   24.9610  -42.7870 C.2   153  MET153      0.2592
     12  O        -25.7060   24.7110  -43.7010 O.2   153  MET153     -0.2718
     13  CB       -26.6890   27.3840  -43.3300 C.3   153  MET153      0.0401
     14  CG       -26.1030   28.2060  -42.2000 C.3   153  MET153      0.0596
     15  SD       -24.3350   27.9750  -41.9420 S.3   153  MET153     -0.1393
     16  CE       -23.6530   29.1360  -43.1220 C.3   153  MET153      0.0692
     17  N        -26.5450   24.2420  -41.6710 N.am  154  LEU154     -0.1980
     18  CA       -25.8010   22.9840  -41.5560 C.3   154  LEU154      0.1596
     19  C        -26.7370   21.7810  -41.7110 C.2   154  LEU154      0.2287
     20  O        -26.2770   20.6630  -41.9160 O.2   154  LEU154     -0.2864
     21  CB       -25.0560   22.9050  -40.2150 C.3   154  LEU154      0.0297
     22  CG       -24.0730   24.0590  -39.9370 C.3   154  LEU154      0.0022
     23  CD1      -23.4000   23.8820  -38.5800 C.3   154  LEU154      0.0001
     24  CD2      -23.0370   24.1990  -41.0310 C.3   154  LEU154      0.0001
     25  N        -22.1330   19.5660  -44.4580 N.3   171  THR171     -0.1218
     26  CA       -21.1280   19.7080  -43.4060 C.3   171  THR171      0.1862
     27  C        -21.7840   20.0160  -42.0720 C.2   171  THR171      0.2287
     28  O        -22.8990   20.5550  -42.0210 O.2   171  THR171     -0.2866
     29  CB       -20.1100   20.8220  -43.7310 C.3   171  THR171      0.1770
     30  OG1      -19.1640   20.9320  -42.6580 O.3   171  THR171     -0.2211
     31  CG2      -20.8100   22.1640  -43.9120 C.3   171  THR171      0.0375
     32  N        -19.5520   21.3250  -39.6770 N.3   173  ARG173     -0.1231
     33  CA       -18.3860   22.0900  -39.1980 C.3   173  ARG173      0.1694
     34  C        -17.2400   21.1980  -38.7120 C.2   173  ARG173      0.2592
     35  O        -16.1200   21.6840  -38.5260 O.2   173  ARG173     -0.2718
     36  CB       -18.7570   23.0820  -38.0790 C.3   173  ARG173      0.0321
     37  CG       -19.6940   24.1870  -38.4850 C.3   173  ARG173      0.0489
     38  CD       -19.7130   25.2870  -37.4040 C.3   173  ARG173      0.2205
     39  NE       -20.0440   24.7310  -36.1030 N.pl3 173  ARG173     -0.0865
     40  CZ       -19.6590   25.2440  -34.9400 C.cat 173  ARG173      0.5346
     41  NH1      -18.9020   26.3340  -34.8960 N.pl3 173  ARG173      0.1354
     42  NH2      -20.0310   24.6540  -33.8170 N.pl3 173  ARG173      0.1354
     43  N        -17.5080   19.9110  -38.5260 N.am  174  PHE174     -0.1962
     44  CA       -16.4530   18.9720  -38.1330 C.3   174  PHE174      0.1771
     45  C        -16.0430   18.0510  -39.2810 C.2   174  PHE174      0.2619
     46  O        -14.8620   17.7250  -39.4260 O.2   174  PHE174     -0.2715
     47  CB       -16.8900   18.1680  -36.9080 C.3   174  PHE174      0.0574
     48  CG       -17.1840   19.0370  -35.7170 C.ar  174  PHE174     -0.0200
     49  CD1      -16.1510   19.6010  -34.9910 C.ar  174  PHE174     -0.0042
     50  CD2      -18.4880   19.3530  -35.3690 C.ar  174  PHE174     -0.0042
     51  CE1      -16.4120   20.4430  -33.9020 C.ar  174  PHE174     -0.0003
     52  CE2      -18.7620   20.2060  -34.2640 C.ar  174  PHE174     -0.0003
     53  CZ       -17.7170   20.7420  -33.5490 C.ar  174  PHE174     -0.0000
     54  N        -17.0070   17.6370  -40.1000 N.am  175  ARG175     -0.1963
     55  CA       -16.6880   16.9390  -41.3410 C.3   175  ARG175      0.1729
     56  C        -17.3830   17.6190  -42.5220 C.2   175  ARG175      0.2616
     57  O        -18.4120   18.2790  -42.3530 O.2   175  ARG175     -0.2715
     58  CB       -17.0830   15.4540  -41.2850 C.3   175  ARG175      0.0348
     59  CG       -18.4940   15.2030  -40.7360 C.3   175  ARG175      0.0492
     60  CD       -18.4080   14.9000  -39.2560 C.3   175  ARG175      0.2205
     61  NE       -19.6870   14.6200  -38.6080 N.pl3 175  ARG175     -0.0865
     62  CZ       -20.2930   13.4360  -38.5810 C.cat 175  ARG175      0.5346
     63  NH1      -19.7710   12.3890  -39.2100 N.pl3 175  ARG175      0.1354
     64  NH2      -21.4300   13.3020  -37.9110 N.pl3 175  ARG175      0.1354
     65  N        -16.7980   17.4700  -43.7060 N.am  176  LEU176     -0.1977
     66  CA       -17.4300   17.9030  -44.9450 C.3   176  LEU176      0.1596
     67  C        -17.3820   16.7170  -45.8920 C.2   176  LEU176      0.2287
     68  O        -16.3310   16.0590  -46.0350 O.2   176  LEU176     -0.2864
     69  CB       -16.7280   19.1290  -45.5470 C.3   176  LEU176      0.0297
     70  CG       -16.9670   19.3970  -47.0490 C.3   176  LEU176      0.0022
     71  CD1      -18.2530   20.2110  -47.3000 C.3   176  LEU176      0.0001
     72  CD2      -15.7640   20.0980  -47.6750 C.3   176  LEU176      0.0001
     73  N        -22.2150   27.1240  -46.3940 N.3   249  PRO249     -0.2102
     74  CA       -20.8520   27.6590  -46.2320 C.3   249  PRO249      0.1504
     75  C        -20.0290   27.5340  -47.5060 C.2   249  PRO249      0.2576
     76  O        -20.3110   26.6660  -48.3160 O.2   249  PRO249     -0.2718
     77  CB       -20.2500   26.8030  -45.1090 C.3   249  PRO249      0.0282
     78  CG       -21.2640   25.7250  -44.8040 C.3   249  PRO249      0.0208
     79  CD       -22.5880   26.1840  -45.3240 C.3   249  PRO249      0.0893
     80  N        -19.0470   28.4090  -47.6890 N.am  250  LYS250     -0.1966
     81  CA       -18.1410   28.3010  -48.8280 C.3   250  LYS250      0.1728
     82  C        -17.1130   27.2020  -48.5460 C.2   250  LYS250      0.2616
     83  O        -16.1870   27.3960  -47.7590 O.2   250  LYS250     -0.2715
     84  CB       -17.4610   29.6480  -49.1030 C.3   250  LYS250      0.0311
     85  CG       -16.7870   29.7470  -50.4720 C.3   250  LYS250      0.0038
     86  CD       -17.4890   28.8810  -51.5220 C.3   250  LYS250      0.0206
     87  CE       -16.6050   27.7190  -51.9660 C.3   250  LYS250      0.1093
     88  NZ       -17.3440   26.7300  -52.7760 N.3   250  LYS250     -0.1314
     89  N        -17.2790   26.0510  -49.1880 N.am  251  PHE251     -0.1974
     90  CA       -16.6030   24.8430  -48.7320 C.3   251  PHE251      0.1639
     91  C        -15.3750   24.4460  -49.5580 C.2   251  PHE251      0.2290
     92  O        -14.4960   23.7530  -49.0520 O.2   251  PHE251     -0.2864
     93  CB       -17.5980   23.6720  -48.6920 C.3   251  PHE251      0.0560
     94  CG       -18.1380   23.2740  -50.0400 C.ar  251  PHE251     -0.0200
     95  CD1      -19.2220   23.9510  -50.6020 C.ar  251  PHE251     -0.0042
     96  CD2      -17.5760   22.2190  -50.7410 C.ar  251  PHE251     -0.0042
     97  CE1      -19.7350   23.5870  -51.8360 C.ar  251  PHE251     -0.0003
     98  CE2      -18.0720   21.8400  -51.9840 C.ar  251  PHE251     -0.0003
     99  CZ       -19.1520   22.5280  -52.5430 C.ar  251  PHE251     -0.0000
    100  N        -12.8160   26.0030  -50.5180 N.3   253  GLN253     -0.1231
    101  CA       -11.5790   26.5180  -49.9420 C.3   253  GLN253      0.1698
    102  C        -11.0240   25.5850  -48.8580 C.2   253  GLN253      0.2592
    103  O         -9.8500   25.6660  -48.5080 O.2   253  GLN253     -0.2718
    104  CB       -11.8050   27.9120  -49.3510 C.3   253  GLN253      0.0381
    105  CG       -12.7410   27.9010  -48.1530 C.3   253  GLN253      0.0905
    106  CD       -12.9950   29.2770  -47.5620 C.2   253  GLN253      0.2608
    107  OE1      -12.0860   30.1030  -47.4390 O.2   253  GLN253     -0.2717
    108  NE2      -14.2440   29.5260  -47.1800 N.am  253  GLN253     -0.0878
    109  N        -11.8650   24.7010  -48.3310 N.am  254  LEU254     -0.1980
    110  CA       -11.4450   23.7780  -47.2700 C.3   254  LEU254      0.1596
    111  C        -10.6760   22.5880  -47.8050 C.2   254  LEU254      0.2287
    112  O        -10.0260   21.8730  -47.0420 O.2   254  LEU254     -0.2864
    113  CB       -12.6480   23.2420  -46.4930 C.3   254  LEU254      0.0297
    114  CG       -13.6210   24.1700  -45.7810 C.3   254  LEU254      0.0022
    115  CD1      -14.7560   23.3290  -45.1890 C.3   254  LEU254      0.0001
    116  CD2      -12.9010   24.9920  -44.7090 C.3   254  LEU254      0.0001
    117  N        -16.7200   10.0260  -35.9600 N.3   328  TYR328     -0.1241
    118  CA       -16.6250   10.7850  -37.2010 C.3   328  TYR328      0.1605
    119  C        -15.7390   10.0210  -38.1790 C.2   328  TYR328      0.2264
    120  O        -15.9070   10.1390  -39.3870 O.2   328  TYR328     -0.2867
    121  CB       -16.0680   12.1910  -36.9880 C.3   328  TYR328      0.0534
    122  CG       -16.9260   13.1290  -36.1380 C.ar  328  TYR328     -0.0201
    123  CD1      -18.2510   12.8210  -35.8180 C.ar  328  TYR328     -0.0009
    124  CD2      -16.4030   14.3280  -35.6670 C.ar  328  TYR328     -0.0009
    125  CE1      -19.0240   13.6840  -35.0470 C.ar  328  TYR328      0.0417
    126  CE2      -17.1680   15.1940  -34.8930 C.ar  328  TYR328      0.0417
    127  CZ       -18.4720   14.8650  -34.5910 C.ar  328  TYR328      0.1957
    128  OH       -19.2250   15.7240  -33.8410 O.3   328  TYR328     -0.2866
    129  N         -3.0850   19.1570  -36.7300 N.3   349  SER349     -0.1202
    130  CA        -4.2070   20.0070  -36.3360 C.3   349  SER349      0.2020
    131  C         -4.9650   20.6230  -37.5270 C.2   349  SER349      0.2619
    132  O         -5.7510   21.5630  -37.3580 O.2   349  SER349     -0.2717
    133  CB        -3.7100   21.1080  -35.4070 C.3   349  SER349      0.2103
    134  OG        -2.7510   21.9100  -36.0660 O.3   349  SER349     -0.2182
    135  N         -4.7310   20.0740  -38.7150 N.am  350  ARG350     -0.1965
    136  CA        -5.3840   20.5080  -39.9390 C.3   350  ARG350      0.1714
    137  C         -6.2010   19.3560  -40.5560 C.2   350  ARG350      0.2458
    138  O         -5.8760   18.1800  -40.3500 O.2   350  ARG350     -0.2730
    139  CB        -4.3450   21.0460  -40.9390 C.3   350  ARG350      0.0347
    140  CG        -4.0520   22.5460  -40.7770 C.3   350  ARG350      0.0492
    141  CD        -2.8550   22.9940  -41.6060 C.3   350  ARG350      0.2205
    142  NE        -3.1420   23.0190  -43.0410 N.pl3 350  ARG350     -0.0865
    143  CZ        -2.2130   22.9550  -43.9950 C.cat 350  ARG350      0.5346
    144  NH1       -0.9270   22.8510  -43.6700 N.pl3 350  ARG350      0.1354
    145  NH2       -2.5680   22.9850  -45.2770 N.pl3 350  ARG350      0.1354
    146  N         -7.2700   19.6910  -41.3000 N.am  351  PRO351     -0.2727
    147  CA        -8.1910   18.6710  -41.8340 C.3   351  PRO351      0.1402
    148  C         -7.4910   17.5280  -42.5730 C.2   351  PRO351      0.2269
    149  O         -6.4890   17.7390  -43.2530 O.2   351  PRO351     -0.2865
    150  CB        -9.0750   19.4620  -42.8090 C.3   351  PRO351      0.0296
    151  CG        -9.0230   20.8680  -42.3250 C.3   351  PRO351      0.0237
    152  CD        -7.6570   21.0560  -41.6990 C.3   351  PRO351      0.0939
    153  N        -13.9880   15.0930  -45.7540 N.3   375  LEU375     -0.1245
    154  CA       -12.9790   15.9080  -45.1000 C.3   375  LEU375      0.1561
    155  C        -13.2830   15.9480  -43.6070 C.2   375  LEU375      0.2260
    156  O        -14.3900   16.3240  -43.2070 O.2   375  LEU375     -0.2867
    157  CB       -12.9580   17.3170  -45.6840 C.3   375  LEU375      0.0270
    158  CG       -11.8510   18.2650  -45.2220 C.3   375  LEU375      0.0019
    159  CD1      -10.5270   17.8910  -45.8760 C.3   375  LEU375      0.0001
    160  CD2      -12.2200   19.7120  -45.5300 C.3   375  LEU375      0.0001
    161  N        -11.9790   17.0100  -39.6340 N.3   377  MET377     -0.1231
    162  CA       -11.1130   17.7900  -38.7540 C.3   377  MET377      0.1687
    163  C        -10.5870   16.8880  -37.6380 C.2   377  MET377      0.2434
    164  O        -11.3380   16.0770  -37.0980 O.2   377  MET377     -0.2733
    165  CB       -11.8730   18.9930  -38.1670 C.3   377  MET377      0.0400
    166  CG       -10.9760   20.1070  -37.5680 C.3   377  MET377      0.0596
    167  SD        -9.9470   20.9670  -38.7950 S.3   377  MET377     -0.1393
    168  CE        -9.0120   22.1270  -37.7920 C.3   377  MET377      0.0692
    169  N         -9.2860   16.9940  -37.3100 N.am  378  PRO378     -0.2718
    170  CA        -8.7230   16.2310  -36.1810 C.3   378  PRO378      0.1535
    171  C         -9.0800   16.8420  -34.8130 C.2   378  PRO378      0.2598
    172  O         -9.6500   17.9260  -34.7590 O.2   378  PRO378     -0.2715
    173  CB        -7.2100   16.3120  -36.4250 C.3   378  PRO378      0.0310
    174  CG        -7.0360   17.6110  -37.1480 C.3   378  PRO378      0.0237
    175  CD        -8.2380   17.7090  -38.0610 C.3   378  PRO378      0.0939
    176  N         -8.7550   16.1350  -33.7300 N.am  379  VAL379     -0.1964
    177  CA        -8.8240   16.6860  -32.3790 C.3   379  VAL379      0.1727
    178  C         -7.3900   16.7540  -31.8530 C.2   379  VAL379      0.2616
    179  O         -6.5270   16.0080  -32.3150 O.2   379  VAL379     -0.2715
    180  CB        -9.7070   15.8290  -31.4430 C.3   379  VAL379      0.0290
    181  CG1      -11.1700   15.8670  -31.8930 C.3   379  VAL379      0.0023
    182  CG2       -9.1960   14.3880  -31.4060 C.3   379  VAL379      0.0023
    183  N         -7.1140   17.6350  -30.9010 N.am  380  ARG380     -0.1977
    184  CA        -5.7280   17.7970  -30.4730 C.3   380  ARG380      0.1597
    185  C         -5.2820   16.6680  -29.5680 C.2   380  ARG380      0.2287
    186  O         -6.0470   16.1900  -28.7410 O.2   380  ARG380     -0.2864
    187  CB        -5.5300   19.1410  -29.7810 C.3   380  ARG380      0.0334
    188  CG        -5.9160   20.3010  -30.6890 C.3   380  ARG380      0.0492
    189  CD        -5.4610   21.6300  -30.1310 C.3   380  ARG380      0.2205
    190  NE        -5.9430   22.7210  -30.9610 N.pl3 380  ARG380     -0.0865
    191  CZ        -5.2310   23.2990  -31.9180 C.cat 380  ARG380      0.5346
    192  NH1       -3.9930   22.8890  -32.1660 N.pl3 380  ARG380      0.1354
    193  NH2       -5.7570   24.2900  -32.6210 N.pl3 380  ARG380      0.1354
@<TRIPOS>BOND
     1    88    87    1
     2    99    98   ar
     3    99    97   ar
     4    98    96   ar
     5    87    86    1
     6    97    95   ar
     7    86    85    1
     8    96    94   ar
     9    95    94   ar
    10   100   101    1
    11    85    84    1
    12    94    93    1
    13   101   104    1
    14   101   102    1
    15    91    92    2
    16    91    90    1
    17   104   105    1
    18    89    90    1
    19    89    82   am
    20    84    81    1
    21   102   103    2
    22   102   109   am
    23    81    82    1
    24    81    80    1
    25    90    93    1
    26    82    83    2
    27   109   110    1
    28    76    75    2
    29   105   106    1
    30   111   110    1
    31   111   112    2
    32    80    75   am
    33    72    70    1
    34   106   107    2
    35   106   108   am
    36    75    74    1
    37    71    70    1
    38   110   113    1
    39    70    69    1
    40   113   114    1
    41    73    74    1
    42    73    79    1
    43    74    77    1
    44    68    67    2
    45    67    66    1
    46   159   158    1
    47   114   115    1
    48   114   116    1
    49   153   154    1
    50   157   158    1
    51   157   154    1
    52    69    66    1
    53   160   158    1
    54    79    78    1
    55   145   143    1
    56    77    78    1
    57   154   155    1
    58    66    65    1
    59    25    26    1
    60   143   144    1
    61   143   142    2
    62    31    29    1
    63    29    26    1
    64    29    30    1
    65    65    56   am
    66    12    11    2
    67   155   156    2
    68    26    27    1
    69    13    10    1
    70    13    14    1
    71   149   148    2
    72    16    15    1
    73   142   141    1
    74    10    11    1
    75    10     9    1
    76   150   151    1
    77   150   147    1
    78    11    17   am
    79   148   147    1
    80    56    57    2
    81    56    55    1
    82   151   152    1
    83    14    15    1
    84    27    28    2
    85    20    19    2
    86   147   146    1
    87    19    18    1
    88   152   146    1
    89    17    18    1
    90   141   140    1
    91    18    21    1
    92    55    58    1
    93    55    54    1
    94   146   137   am
    95    58    59    1
    96    24    22    1
    97   139   140    1
    98   139   136    1
    99    59    60    1
   100   137   138    2
   101   137   136    1
   102    21    22    1
   103    54    45   am
   104   136   135    1
   105    22    23    1
   106    32    33    1
   107   161   162    1
   108    46    45    2
   109   120   119    2
   110    45    44    1
   111    60    61    1
   112    63    62    1
   113    33    34    1
   114    33    36    1
   115     7     6    1
   116     4     3    2
   117   167   168    1
   118   167   166    1
   119   162   165    1
   120   162   163    1
   121   135   131   am
   122    34    43   am
   123    34    35    2
   124    61    62    2
   125    62    64    1
   126    43    44    1
   127    37    36    1
   128    37    38    1
   129     3     2    1
   130   119   118    1
   131   165   166    1
   132    44    47    1
   133   175   169    1
   134   175   174    1
   135     6     5    1
   136     6     8    1
   137   163   169   am
   138   163   164    2
   139   131   132    2
   140   131   130    1
   141    38    39    1
   142   169   170    1
   143   118   121    1
   144   118   117    1
   145     2     5    1
   146     2     1    1
   147   174   173    1
   148   121   122    1
   149    47    48    1
   150   129   130    1
   151   173   170    1
   152   130   133    1
   153   170   171    1
   154   122   123   ar
   155   122   124   ar
   156    39    40    2
   157   134   133    1
   158   123   125   ar
   159    48    50   ar
   160    48    49   ar
   161   124   126   ar
   162    50    52   ar
   163   125   127   ar
   164    49    51   ar
   165    40    41    1
   166    40    42    1
   167   126   127   ar
   168   171   172    2
   169   171   176   am
   170   127   128    1
   171    52    53   ar
   172    51    53   ar
   173   176   177    1
   174   193   191    1
   175   177   178    1
   176   177   180    1
   177   179   178    2
   178   192   191    1
   179   191   190    2
   180   181   180    1
   181   178   183   am
   182   180   182    1
   183   190   189    1
   184   183   184    1
   185   188   189    1
   186   188   187    1
   187   184   187    1
   188   184   185    1
   189   185   186    2
