@<TRIPOS>MOLECULE
tmp/5ah3A00.pdb
 132 127 0 0 0
SMALL
GASTEIGER

@<TRIPOS>ATOM
      1  N         40.3620   19.0170   28.6180 N.3    68  VAL68      -0.1245
      2  CA        38.9490   18.7500   28.3700 C.3    68  VAL68       0.1561
      3  C         38.4960   19.3640   27.0350 C.2    68  VAL68       0.2260
      4  O         37.7740   18.7350   26.2670 O.2    68  VAL68      -0.2867
      5  CB        38.0610   19.2950   29.5210 C.3    68  VAL68       0.0252
      6  CG1       36.5860   19.1750   29.1720 C.3    68  VAL68       0.0019
      7  CG2       38.3610   18.5740   30.8270 C.3    68  VAL68       0.0019
      8  N         39.9040   17.5440   23.8710 N.3    71  PHE71      -0.1241
      9  CA        39.1710   16.3140   23.5890 C.3    71  PHE71       0.1605
     10  C         37.7640   16.6070   23.0710 C.2    71  PHE71       0.2264
     11  O         37.2750   15.8910   22.2000 O.2    71  PHE71      -0.2867
     12  CB        39.0810   15.3820   24.8140 C.3    71  PHE71       0.0534
     13  CG        38.3410   14.1100   24.5220 C.ar   71  PHE71      -0.0203
     14  CD1       38.9500   13.0950   23.8020 C.ar   71  PHE71      -0.0042
     15  CD2       37.0170   13.9570   24.8920 C.ar   71  PHE71      -0.0042
     16  CE1       38.2620   11.9330   23.4840 C.ar   71  PHE71      -0.0003
     17  CE2       36.3230   12.7980   24.5810 C.ar   71  PHE71      -0.0003
     18  CZ        36.9520   11.7830   23.8720 C.ar   71  PHE71      -0.0000
     19  N         33.0870   21.1650   42.7430 N.3   140  ARG140     -0.1231
     20  CA        33.5480   19.7830   42.7480 C.3   140  ARG140      0.1694
     21  C         34.0770   19.4180   41.3450 C.2   140  ARG140      0.2592
     22  O         33.4040   19.6630   40.3380 O.2   140  ARG140     -0.2718
     23  CB        32.4160   18.8560   43.1950 C.3   140  ARG140      0.0321
     24  CG        31.7240   19.3320   44.4860 C.3   140  ARG140      0.0489
     25  CD        30.9400   18.2330   45.1840 C.3   140  ARG140      0.2205
     26  NE        29.7510   17.8580   44.4410 N.pl3 140  ARG140     -0.0865
     27  CZ        29.3730   16.6070   44.2010 C.cat 140  ARG140      0.5346
     28  NH1       30.0900   15.5910   44.6570 N.pl3 140  ARG140      0.1354
     29  NH2       28.2720   16.3760   43.5010 N.pl3 140  ARG140      0.1354
     30  N         35.2800   18.8450   41.2900 N.am  141  LEU141     -0.1966
     31  CA        36.0330   18.7180   40.0440 C.3   141  LEU141      0.1728
     32  C         35.3850   17.8110   38.9920 C.2   141  LEU141      0.2617
     33  O         35.2950   18.1770   37.8080 O.2   141  LEU141     -0.2715
     34  CB        37.4550   18.2200   40.3220 C.3   141  LEU141      0.0311
     35  CG        38.3310   18.3860   39.0680 C.3   141  LEU141      0.0022
     36  CD1       38.4600   19.8640   38.7210 C.3   141  LEU141      0.0001
     37  CD2       39.7040   17.7450   39.2030 C.3   141  LEU141      0.0001
     38  N         34.9640   16.6260   39.4230 N.am  142  GLY142     -0.1941
     39  CA        34.2560   15.7020   38.5600 C.3   142  GLY142      0.1998
     40  C         33.1390   16.3990   37.8050 C.2   142  GLY142      0.2480
     41  O         33.1590   16.4590   36.5810 O.2   142  GLY142     -0.2729
     42  N         32.1560   16.9400   38.5410 N.am  143  PRO143     -0.2726
     43  CA        31.0640   17.7280   37.9570 C.3   143  PRO143      0.1402
     44  C         31.5190   18.9210   37.1040 C.2   143  PRO143      0.2269
     45  O         30.8450   19.2410   36.1320 O.2   143  PRO143     -0.2865
     46  CB        30.3020   18.2100   39.1870 C.3   143  PRO143      0.0296
     47  CG        30.5020   17.1040   40.1800 C.3   143  PRO143      0.0237
     48  CD        31.9200   16.6510   39.9680 C.3   143  PRO143      0.0939
     49  N         34.2110   19.1340   35.1770 N.3   145  MET145     -0.1230
     50  CA        34.7250   18.6430   33.9140 C.3   145  MET145      0.1702
     51  C         33.5860   18.2410   32.9890 C.2   145  MET145      0.2592
     52  O         33.5800   18.5920   31.8080 O.2   145  MET145     -0.2718
     53  CB        35.6760   17.4700   34.1510 C.3   145  MET145      0.0401
     54  CG        36.9930   17.8880   34.7920 C.3   145  MET145      0.0596
     55  SD        38.1520   16.5320   34.8780 S.3   145  MET145     -0.1393
     56  CE        37.4250   15.5420   36.1810 C.3   145  MET145      0.0692
     57  N         32.6180   17.5190   33.5450 N.am  146  VAL146     -0.1980
     58  CA        31.4010   17.1720   32.8290 C.3   146  VAL146      0.1595
     59  C         30.6900   18.4250   32.3360 C.2   146  VAL146      0.2287
     60  O         30.2630   18.5000   31.1840 O.2   146  VAL146     -0.2864
     61  CB        30.4300   16.3620   33.7180 C.3   146  VAL146      0.0276
     62  CG1       29.0560   16.2310   33.0430 C.3   146  VAL146      0.0022
     63  CG2       31.0160   14.9970   34.0220 C.3   146  VAL146      0.0022
     64  N         32.3450   20.0360   29.2500 N.3   149  PHE149     -0.1241
     65  CA        32.1080   19.2660   28.0400 C.3   149  PHE149      0.1605
     66  C         30.7110   19.5700   27.4870 C.2   149  PHE149      0.2264
     67  O         30.5240   19.7420   26.2840 O.2   149  PHE149     -0.2867
     68  CB        32.2680   17.7590   28.3080 C.3   149  PHE149      0.0534
     69  CG        32.2310   16.9100   27.0520 C.ar  149  PHE149     -0.0203
     70  CD1       31.0260   16.4760   26.5240 C.ar  149  PHE149     -0.0042
     71  CD2       33.4040   16.5610   26.3980 C.ar  149  PHE149     -0.0042
     72  CE1       30.9900   15.7110   25.3670 C.ar  149  PHE149     -0.0003
     73  CE2       33.3720   15.7960   25.2320 C.ar  149  PHE149     -0.0003
     74  CZ        32.1640   15.3730   24.7220 C.ar  149  PHE149     -0.0000
     75  N         25.0550   13.4720   42.1470 N.3   408  PHE408     -0.1227
     76  CA        26.4550   13.2150   41.8040 C.3   408  PHE408      0.1736
     77  C         26.9650   14.0910   40.6470 C.2   408  PHE408      0.2595
     78  O         28.1120   13.9630   40.2220 O.2   408  PHE408     -0.2718
     79  CB        26.6620   11.7250   41.4890 C.3   408  PHE408      0.0547
     80  CG        26.5280   11.3770   40.0390 C.ar  408  PHE408     -0.0202
     81  CD1       25.2810   11.2530   39.4550 C.ar  408  PHE408     -0.0042
     82  CD2       27.6560   11.1470   39.2600 C.ar  408  PHE408     -0.0042
     83  CE1       25.1560   10.9270   38.1120 C.ar  408  PHE408     -0.0003
     84  CE2       27.5410   10.8250   37.9170 C.ar  408  PHE408     -0.0003
     85  CZ        26.2900   10.7120   37.3440 C.ar  408  PHE408     -0.0000
     86  N         26.1230   15.0010   40.1660 N.am  409  LEU409     -0.1980
     87  CA        26.5400   15.9470   39.1330 C.3   409  LEU409      0.1596
     88  C         26.5340   17.3920   39.6280 C.2   409  LEU409      0.2287
     89  O         27.0270   18.2850   38.9470 O.2   409  LEU409     -0.2864
     90  CB        25.6460   15.8220   37.9020 C.3   409  LEU409      0.0297
     91  CG        25.9610   14.6420   36.9870 C.3   409  LEU409      0.0022
     92  CD1       25.1160   14.7280   35.7230 C.3   409  LEU409      0.0001
     93  CD2       27.4570   14.6050   36.6510 C.3   409  LEU409      0.0001
     94  N         28.2060   22.2900   46.5410 N.3   413  LEU413     -0.1245
     95  CA        27.3960   21.8920   47.7030 C.3   413  LEU413      0.1561
     96  C         26.5410   23.0510   48.1970 C.2   413  LEU413      0.2260
     97  O         26.9960   24.1900   48.2710 O.2   413  LEU413     -0.2867
     98  CB        28.2710   21.3790   48.8440 C.3   413  LEU413      0.0270
     99  CG        29.1400   20.1390   48.6130 C.3   413  LEU413      0.0019
    100  CD1       29.8630   19.7580   49.9050 C.3   413  LEU413      0.0001
    101  CD2       28.3090   18.9840   48.1030 C.3   413  LEU413      0.0001
    102  N         38.8260   18.7840   47.7090 N.3   442  GLU442     -0.1231
    103  CA        37.4250   18.6350   47.3520 C.3   442  GLU442      0.1684
    104  C         36.5160   19.2100   48.4240 C.2   442  GLU442      0.2434
    105  O         36.7550   19.0180   49.6190 O.2   442  GLU442     -0.2733
    106  CB        37.0800   17.1660   47.1140 C.3   442  GLU442      0.0402
    107  CG        37.3180   16.7000   45.6800 C.3   442  GLU442      0.1161
    108  CD        36.3600   17.3380   44.6850 C.2   442  GLU442      0.3649
    109  OE1       35.1640   16.9950   44.7240 O.co2 442  GLU442     -0.2457
    110  OE2       36.7980   18.1830   43.8760 O.co2 442  GLU442     -0.2457
    111  N         35.4660   19.9230   47.9890 N.am  443  PRO443     -0.2729
    112  CA        34.4710   20.4660   48.9100 C.3   443  PRO443      0.1401
    113  C         34.0120   19.3890   49.8740 C.2   443  PRO443      0.2269
    114  O         33.8030   18.2450   49.4760 O.2   443  PRO443     -0.2865
    115  CB        33.3530   20.9180   47.9850 C.3   443  PRO443      0.0296
    116  CG        34.0760   21.2970   46.7240 C.3   443  PRO443      0.0237
    117  CD        35.1840   20.2880   46.5920 C.3   443  PRO443      0.0939
    118  N         31.5840   17.7920   52.9840 N.3   445  ASP445     -0.1239
    119  CA        30.2390   17.8140   53.5390 C.3   445  ASP445      0.1674
    120  C         30.1810   17.1200   54.8990 C.2   445  ASP445      0.2266
    121  O         31.2110   16.7910   55.4880 O.2   445  ASP445     -0.2867
    122  CB        29.2510   17.1600   52.5700 C.3   445  ASP445      0.1410
    123  CG        29.7150   15.7940   52.0960 C.2   445  ASP445      0.3668
    124  OD1       30.1550   14.9770   52.9330 O.co2 445  ASP445     -0.2456
    125  OD2       29.6460   15.5360   50.8770 O.co2 445  ASP445     -0.2456
    126  N         29.6070   14.2380   55.6180 N.3   447  THR447     -0.1218
    127  CA        30.1830   12.8920   55.6040 C.3   447  THR447      0.1862
    128  C         31.3260   12.8220   54.5990 C.2   447  THR447      0.2287
    129  O         31.9140   11.7620   54.3800 O.2   447  THR447     -0.2866
    130  CB        29.1440   11.8040   55.2500 C.3   447  THR447      0.1770
    131  OG1       28.3640   12.2270   54.1230 O.3   447  THR447     -0.2211
    132  CG2       28.2230   11.5210   56.4220 C.3   447  THR447      0.0375
@<TRIPOS>BOND
     1    11    10    2
     2    10     9    1
     3    16    14   ar
     4    16    18   ar
     5     9     8    1
     6     9    12    1
     7    14    13   ar
     8    18    17   ar
     9    13    12    1
    10    13    15   ar
    11    17    15   ar
    12    74    73   ar
    13    74    72   ar
    14    73    71   ar
    15    72    70   ar
    16     4     3    2
    17    67    66    2
    18    71    69   ar
    19    70    69   ar
    20     3     2    1
    21    69    68    1
    22    66    65    1
    23    65    68    1
    24    65    64    1
    25     2     1    1
    26     2     5    1
    27     6     5    1
    28     5     7    1
    29    60    59    2
    30    52    51    2
    31    59    58    1
    32    58    57    1
    33    58    61    1
    34    51    57   am
    35    51    50    1
    36    62    61    1
    37    61    63    1
    38    50    53    1
    39    50    49    1
    40    53    54    1
    41    54    55    1
    42    55    56    1
    43    92    91    1
    44    45    44    2
    45    41    40    2
    46    93    91    1
    47    91    90    1
    48    44    43    1
    49    85    84   ar
    50    85    83   ar
    51    40    42   am
    52    40    39    1
    53    33    32    2
    54    90    87    1
    55    84    82   ar
    56    43    42    1
    57    43    46    1
    58    83    81   ar
    59    42    48    1
    60    39    38    1
    61    36    35    1
    62    89    88    2
    63    32    38   am
    64    32    31    1
    65    35    37    1
    66    35    34    1
    67    87    88    1
    68    87    86    1
    69    46    47    1
    70    82    80   ar
    71    81    80   ar
    72    48    47    1
    73    80    79    1
    74    31    34    1
    75    31    30    1
    76    86    77   am
    77    78    77    2
    78    22    21    2
    79    77    76    1
    80    30    21   am
    81    21    20    1
    82    79    76    1
    83    76    75    1
    84    19    20    1
    85    20    23    1
    86    23    24    1
    87    29    27    1
    88   110   108   ar
    89    27    26    2
    90    27    28    1
    91    26    25    1
    92    24    25    1
    93   108   109   ar
    94   108   107    1
    95   107   106    1
    96    94    95    1
    97   117   116    1
    98   117   111    1
    99   116   115    1
   100   106   103    1
   101   103   102    1
   102   103   104    1
   103    95    96    1
   104    95    98    1
   105   115   112    1
   106   111   104   am
   107   111   112    1
   108   101    99    1
   109    96    97    2
   110   104   105    2
   111    99    98    1
   112    99   100    1
   113   112   113    1
   114   114   113    2
   115   125   123   ar
   116   123   122    1
   117   123   124   ar
   118   122   119    1
   119   118   119    1
   120   119   120    1
   121   131   130    1
   122   129   128    2
   123   128   127    1
   124   120   121    2
   125   130   127    1
   126   130   132    1
   127   127   126    1
