@<TRIPOS>MOLECULE
tmp/5ah5A00.pdb
 239 236 0 0 0
SMALL
GASTEIGER

@<TRIPOS>ATOM
      1  N         21.5180   -7.6620    3.6360 N.3    37  MET37      -0.1230
      2  CA        20.3360   -7.0990    4.2970 C.3    37  MET37       0.1702
      3  C         19.1510   -6.9960    3.2970 C.2    37  MET37       0.2592
      4  O         19.2010   -6.3000    2.3010 O.2    37  MET37      -0.2718
      5  CB        20.6700   -5.7890    4.9460 C.3    37  MET37       0.0401
      6  CG        21.5300   -5.9280    6.1650 C.3    37  MET37       0.0596
      7  SD        21.8750   -4.2840    6.8310 S.3    37  MET37      -0.1393
      8  CE        23.2730   -4.7100    7.8140 C.3    37  MET37       0.0692
      9  N         18.1490   -7.8620    3.5000 N.am   38  PHE38      -0.1963
     10  CA        16.9860   -7.9450    2.5900 C.3    38  PHE38       0.1756
     11  C         16.2520   -6.5730    2.6140 C.2    38  PHE38       0.2461
     12  O         16.3000   -5.9170    3.6520 O.2    38  PHE38      -0.2730
     13  CB        16.1010   -9.1960    2.9280 C.3    38  PHE38       0.0574
     14  CG        15.3190   -9.1740    4.2440 C.ar   38  PHE38      -0.0200
     15  CD1       15.6990   -8.4550    5.3540 C.ar   38  PHE38      -0.0042
     16  CD2       14.1750   -9.9830    4.3520 C.ar   38  PHE38      -0.0042
     17  CE1       14.9920   -8.5340    6.5450 C.ar   38  PHE38      -0.0003
     18  CE2       13.4230  -10.0270    5.5010 C.ar   38  PHE38      -0.0003
     19  CZ        13.8190   -9.2950    6.6220 C.ar   38  PHE38      -0.0000
     20  N         15.7250   -6.1280    1.4880 N.am   39  PRO39      -0.2716
     21  CA        15.1450   -4.8550    1.2840 C.3    39  PRO39       0.1536
     22  C         13.6680   -4.6840    1.8410 C.2    39  PRO39       0.2598
     23  O         12.8830   -5.6460    1.9050 O.2    39  PRO39      -0.2715
     24  CB        15.1450   -4.7410   -0.2470 C.3    39  PRO39       0.0310
     25  CG        14.8570   -6.1070   -0.7310 C.3    39  PRO39       0.0237
     26  CD        15.5940   -6.9600    0.2710 C.3    39  PRO39       0.0939
     27  N         13.3610   -3.4920    2.3120 N.am   40  TYR40      -0.1974
     28  CA        11.9890   -3.0810    2.6250 C.3    40  TYR40       0.1639
     29  C         11.2040   -3.0390    1.3290 C.2    40  TYR40       0.2290
     30  O         11.6730   -2.5620    0.2570 O.2    40  TYR40      -0.2864
     31  CB        11.9330   -1.6780    3.2640 C.3    40  TYR40       0.0560
     32  CG        12.4530   -1.6560    4.6540 C.ar   40  TYR40      -0.0198
     33  CD1       11.9080   -2.4970    5.6080 C.ar   40  TYR40      -0.0009
     34  CD2       13.5250   -0.8140    5.0340 C.ar   40  TYR40      -0.0009
     35  CE1       12.3710   -2.5110    6.8960 C.ar   40  TYR40       0.0417
     36  CE2       13.9770   -0.8180    6.3510 C.ar   40  TYR40       0.0417
     37  CZ        13.4070   -1.6630    7.2740 C.ar   40  TYR40       0.1957
     38  OH        13.8320   -1.7330    8.5920 O.3    40  TYR40      -0.2866
     39  N          9.1620   -1.1390   -0.0610 N.3    42  SER42      -0.1217
     40  CA         8.6700    0.2190   -0.0220 C.3    42  SER42       0.1889
     41  C          8.7120    0.8050   -1.4190 C.2    42  SER42       0.2288
     42  O          8.3910    1.9340   -1.6000 O.2    42  SER42      -0.2866
     43  CB         9.4860    1.0420    0.9960 C.3    42  SER42       0.2089
     44  OG        10.8960    0.9950    0.6640 O.3    42  SER42      -0.2183
     45  N         16.4930   -0.1400   -6.2370 N.3    46  HIS46      -0.1226
     46  CA        17.2910    1.0290   -6.6040 C.3    46  HIS46       0.1752
     47  C         18.7850    0.6860   -6.6940 C.2    46  HIS46       0.2596
     48  O         19.1930   -0.4260   -6.3860 O.2    46  HIS46      -0.2718
     49  CB        16.8910    2.2720   -5.7960 C.3    46  HIS46       0.0759
     50  CG        17.2680    2.2700   -4.3520 C.ar   46  HIS46       0.0818
     51  ND1       16.4200    2.7730   -3.3850 N.ar   46  HIS46      -0.2268
     52  CD2       18.4180    1.9570   -3.7190 C.ar   46  HIS46       0.1154
     53  CE1       17.0140    2.7140   -2.2080 C.ar   46  HIS46       0.1986
     54  NE2       18.2290    2.2240   -2.3830 N.ar   46  HIS46      -0.2212
     55  N         19.5620    1.6170   -7.2510 N.am   47  ILE47      -0.1966
     56  CA        20.9590    1.3900   -7.6420 C.3    47  ILE47       0.1727
     57  C         21.8390    1.0040   -6.4480 C.2    47  ILE47       0.2617
     58  O         22.7370    0.2030   -6.5590 O.2    47  ILE47      -0.2715
     59  CB        21.4880    2.6170   -8.4240 C.3    47  ILE47       0.0290
     60  CG1       22.6360    2.2200   -9.3200 C.3    47  ILE47       0.0022
     61  CG2       21.7830    3.7900   -7.4710 C.3    47  ILE47       0.0023
     62  CD1       22.3100    1.2510  -10.4180 C.3    47  ILE47       0.0001
     63  N         21.5390    1.5590   -5.3080 N.am   48  GLY48      -0.1940
     64  CA        22.0930    1.1660   -4.0400 C.3    48  GLY48       0.2014
     65  C         21.9660   -0.3000   -3.7400 C.2    48  GLY48       0.2638
     66  O         22.9570   -0.9670   -3.4070 O.2    48  GLY48      -0.2714
     67  N         20.7350   -0.8300   -3.8590 N.am   49  HIS49      -0.1973
     68  CA        20.5370   -2.2320   -3.6480 C.3    49  HIS49       0.1656
     69  C         21.4050   -3.0460   -4.5950 C.2    49  HIS49       0.2291
     70  O         21.8970   -4.0760   -4.2280 O.2    49  HIS49      -0.2864
     71  CB        19.0790   -2.6610   -3.9450 C.3    49  HIS49       0.0771
     72  CG        18.0590   -2.0820   -3.0290 C.ar   49  HIS49       0.0820
     73  ND1       16.9360   -1.4480   -3.4950 N.ar   49  HIS49      -0.2267
     74  CD2       17.9450   -2.0980   -1.6860 C.ar   49  HIS49       0.1154
     75  CE1       16.1900   -1.0660   -2.4830 C.ar   49  HIS49       0.1986
     76  NE2       16.7640   -1.4620   -1.3660 N.ar   49  HIS49      -0.2212
     77  N         24.2120   -2.4140   -5.8580 N.3    51  ARG51      -0.1231
     78  CA        25.5810   -2.4920   -5.3720 C.3    51  ARG51       0.1694
     79  C         25.7510   -3.4860   -4.2380 C.2    51  ARG51       0.2592
     80  O         26.7230   -4.2970   -4.2250 O.2    51  ARG51      -0.2718
     81  CB        26.0950   -1.1380   -4.8800 C.3    51  ARG51       0.0321
     82  CG        27.6160   -1.1400   -4.6950 C.3    51  ARG51       0.0489
     83  CD        28.1060    0.0720   -3.9090 C.3    51  ARG51       0.2205
     84  NE        29.5780    0.1370   -3.8420 N.pl3  51  ARG51      -0.0865
     85  CZ        30.2570    1.1100   -3.2550 C.cat  51  ARG51       0.5346
     86  NH1       29.6060    2.0970   -2.6060 N.pl3  51  ARG51       0.1354
     87  NH2       31.6010    1.0730   -3.2650 N.pl3  51  ARG51       0.1354
     88  N         24.8890   -3.3630   -3.2570 N.am   52  ASN52      -0.1960
     89  CA        24.8560   -4.2720   -2.1350 C.3    52  ASN52       0.1819
     90  C         24.7640   -5.7420   -2.5810 C.2    52  ASN52       0.2621
     91  O         25.4840   -6.5980   -2.0950 O.2    52  ASN52      -0.2715
     92  CB        23.6750   -3.9250   -1.2510 C.3    52  ASN52       0.1195
     93  CG        23.7410   -4.5440    0.0890 C.2    52  ASN52       0.2630
     94  OD1       24.4140   -5.5800    0.3670 O.2    52  ASN52      -0.2716
     95  ND2       23.0710   -3.8930    0.9710 N.am   52  ASN52      -0.0877
     96  N         23.9700   -5.9950   -3.5940 N.am   53  TYR53      -0.1974
     97  CA        23.6050   -7.3480   -3.9240 C.3    53  TYR53       0.1639
     98  C         24.5330   -7.9110   -4.9790 C.2    53  TYR53       0.2290
     99  O         24.7110   -9.1140   -5.0110 O.2    53  TYR53      -0.2864
    100  CB        22.0890   -7.4660   -4.3030 C.3    53  TYR53       0.0560
    101  CG        21.1220   -6.9930   -3.2280 C.ar   53  TYR53      -0.0198
    102  CD1       21.4550   -7.0030   -1.8980 C.ar   53  TYR53      -0.0009
    103  CD2       19.8450   -6.4880   -3.5630 C.ar   53  TYR53      -0.0009
    104  CE1       20.6040   -6.5150   -0.9280 C.ar   53  TYR53       0.0417
    105  CE2       18.9690   -6.0200   -2.5870 C.ar   53  TYR53       0.0417
    106  CZ        19.3070   -6.0670   -1.2940 C.ar   53  TYR53       0.1957
    107  OH        18.4410   -5.6140   -0.3150 O.3    53  TYR53      -0.2866
    108  N         11.4640   -7.8200    3.3720 N.3    77  ASP77      -0.1239
    109  CA        11.2080   -7.2230    4.7080 C.3    77  ASP77       0.1674
    110  C          9.9270   -6.3590    4.5220 C.2    77  ASP77       0.2266
    111  O          9.9710   -5.1970    4.1380 O.2    77  ASP77      -0.2867
    112  CB        12.4230   -6.3670    5.1760 C.3    77  ASP77       0.1410
    113  CG        12.4660   -6.1490    6.6540 C.2    77  ASP77       0.3668
    114  OD1       11.5920   -6.5530    7.4260 O.co2  77  ASP77      -0.2456
    115  OD2       13.4460   -5.5130    7.0780 O.co2  77  ASP77      -0.2456
    116  N         11.2840   -4.4980   13.2030 N.3   462  PHE462     -0.1241
    117  CA        12.6050   -4.9830   13.6350 C.3   462  PHE462      0.1605
    118  C         12.5080   -6.2950   14.3710 C.2   462  PHE462      0.2264
    119  O         13.5350   -7.0110   14.4940 O.2   462  PHE462     -0.2867
    120  CB        13.4310   -3.9020   14.3910 C.3   462  PHE462      0.0534
    121  CG        13.9810   -2.8450   13.4590 C.ar  462  PHE462     -0.0203
    122  CD1       15.0790   -3.1320   12.6720 C.ar  462  PHE462     -0.0042
    123  CD2       13.4000   -1.5780   13.3690 C.ar  462  PHE462     -0.0042
    124  CE1       15.6140   -2.1920   11.8260 C.ar  462  PHE462     -0.0003
    125  CE2       13.8760   -0.6450   12.4610 C.ar  462  PHE462     -0.0003
    126  CZ        15.0050   -0.9570   11.6830 C.ar  462  PHE462     -0.0000
    127  N         12.8880   -8.6960   11.3150 N.3   465  SER465     -0.1217
    128  CA        14.2130   -8.7350   10.7930 C.3   465  SER465      0.1889
    129  C         15.2680   -9.1820   11.7980 C.2   465  SER465      0.2288
    130  O         16.3850   -9.3620   11.4220 O.2   465  SER465     -0.2866
    131  CB        14.5610   -7.4160   10.1360 C.3   465  SER465      0.2089
    132  OG        14.4260   -6.3670   11.0570 O.3   465  SER465     -0.2183
    133  N         15.1860  -13.3440   10.7300 N.3   468  TYR468     -0.1241
    134  CA        14.8500  -13.8610    9.4080 C.3   468  TYR468      0.1605
    135  C         15.8700  -14.7630    8.7360 C.2   468  TYR468      0.2264
    136  O         15.5310  -15.6470    7.8930 O.2   468  TYR468     -0.2867
    137  CB        14.5470  -12.7460    8.4140 C.3   468  TYR468      0.0534
    138  CG        15.7170  -11.9770    7.8510 C.ar  468  TYR468     -0.0201
    139  CD1       16.4680  -11.1060    8.6530 C.ar  468  TYR468     -0.0009
    140  CD2       16.0470  -12.0670    6.5220 C.ar  468  TYR468     -0.0009
    141  CE1       17.5380  -10.4060    8.1310 C.ar  468  TYR468      0.0417
    142  CE2       17.0800  -11.3290    5.9910 C.ar  468  TYR468      0.0417
    143  CZ        17.8070  -10.4960    6.7950 C.ar  468  TYR468      0.1957
    144  OH        18.8010   -9.7390    6.2410 O.3   468  TYR468     -0.2866
    145  N         27.8170  -11.3370    5.9020 N.3   495  TYR495     -0.1241
    146  CA        26.6450  -10.4590    5.8870 C.3   495  TYR495      0.1605
    147  C         27.0510   -9.0900    5.3490 C.2   495  TYR495      0.2264
    148  O         28.0000   -8.4980    5.8590 O.2   495  TYR495     -0.2867
    149  CB        26.1020  -10.3160    7.2990 C.3   495  TYR495      0.0534
    150  CG        24.6490   -9.7960    7.4160 C.ar  495  TYR495     -0.0201
    151  CD1       23.6660  -10.1470    6.4760 C.ar  495  TYR495     -0.0009
    152  CD2       24.2530   -9.0580    8.4940 C.ar  495  TYR495     -0.0009
    153  CE1       22.3290   -9.7270    6.6060 C.ar  495  TYR495      0.0417
    154  CE2       22.9090   -8.6620    8.6500 C.ar  495  TYR495      0.0417
    155  CZ        21.9640   -9.0110    7.6850 C.ar  495  TYR495      0.1957
    156  OH        20.6370   -8.6450    7.7980 O.3   495  TYR495     -0.2866
    157  N         25.6460   -5.3730    4.4520 N.3   497  GLY497     -0.1210
    158  CA        24.6710   -4.3020    4.4340 C.3   497  GLY497      0.1956
    159  C         25.1620   -3.0450    5.1360 C.2   497  GLY497      0.2612
    160  O         26.3060   -3.0060    5.6400 O.2   497  GLY497     -0.2717
    161  N         24.2840   -2.0400    5.1830 N.am  498  GLY498     -0.1956
    162  CA        24.6340   -0.6860    5.5300 C.3   498  GLY498      0.1869
    163  C         24.8940   -0.4880    6.9890 C.2   498  GLY498      0.2309
    164  O         24.3390   -1.1550    7.8530 O.2   498  GLY498     -0.2863
    165  N         24.1180    2.1910    8.5630 N.3   500  GLU500     -0.1231
    166  CA        22.8590    2.7210    9.1930 C.3   500  GLU500      0.1699
    167  C         22.1830    1.7580   10.1610 C.2   500  GLU500      0.2592
    168  O         21.4660    2.2070   11.0540 O.2   500  GLU500     -0.2718
    169  CB        21.8340    3.2330    8.1650 C.3   500  GLU500      0.0402
    170  CG        21.1490    2.1640    7.2840 C.3   500  GLU500      0.1161
    171  CD        22.0090    1.6300    6.1200 C.2   500  GLU500      0.3649
    172  OE1       23.2360    1.9940    5.9950 O.co2 500  GLU500     -0.2457
    173  OE2       21.4480    0.8300    5.3320 O.co2 500  GLU500     -0.2457
    174  N         22.4460    0.4470   10.0390 N.am  501  HIS501     -0.1976
    175  CA        21.8160   -0.5510   10.9240 C.3   501  HIS501      0.1656
    176  C         22.5400   -0.8520   12.1630 C.2   501  HIS501      0.2291
    177  O         22.0720   -1.6520   12.9700 O.2   501  HIS501     -0.2864
    178  CB        21.4290   -1.8240   10.1390 C.3   501  HIS501      0.0771
    179  CG        20.1790   -1.6320    9.3530 C.ar  501  HIS501      0.0820
    180  ND1       18.9480   -1.4610    9.9630 N.ar  501  HIS501     -0.2267
    181  CD2       19.9720   -1.4880    8.0240 C.ar  501  HIS501      0.1154
    182  CE1       18.0320   -1.2650    9.0380 C.ar  501  HIS501      0.1986
    183  NE2       18.6250   -1.2750    7.8560 N.ar  501  HIS501     -0.2212
    184  N         19.1240   -2.9700   13.3410 N.3   505  HIS505     -0.1241
    185  CA        19.0180   -4.3950   13.0240 C.3   505  HIS505      0.1621
    186  C         20.2280   -5.1450   13.5570 C.2   505  HIS505      0.2264
    187  O         20.0690   -6.2130   14.1340 O.2   505  HIS505     -0.2867
    188  CB        18.9040   -4.5740   11.5210 C.3   505  HIS505      0.0745
    189  CG        19.2160   -5.9530   11.0520 C.ar  505  HIS505      0.0817
    190  ND1       18.5280   -7.0530   11.4930 N.ar  505  HIS505     -0.2268
    191  CD2       20.1250   -6.4160   10.1690 C.ar  505  HIS505      0.1154
    192  CE1       19.0130   -8.1350   10.9310 C.ar  505  HIS505      0.1986
    193  NE2       19.9960   -7.7840   10.1400 N.ar  505  HIS505     -0.2212
    194  N         28.8470   -2.0650    2.6410 N.3   534  GLN534     -0.1231
    195  CA        28.9670   -1.3970    1.3830 C.3   534  GLN534      0.1698
    196  C         28.7450    0.1040    1.5240 C.2   534  GLN534      0.2593
    197  O         28.1080    0.6030    2.4790 O.2   534  GLN534     -0.2718
    198  CB        28.1180   -1.9860    0.2730 C.3   534  GLN534      0.0381
    199  CG        26.6320   -1.5170    0.1910 C.3   534  GLN534      0.0905
    200  CD        25.8840   -1.7960    1.4690 C.2   534  GLN534      0.2608
    201  OE1       26.2420   -2.7220    2.2060 O.2   534  GLN534     -0.2717
    202  NE2       24.8130   -1.0310    1.7310 N.am  534  GLN534     -0.0878
    203  N         29.3540    0.8200    0.6040 N.am  535  GLY535     -0.1942
    204  CA        29.3300    2.2440    0.6290 C.3   535  GLY535      0.2014
    205  C         28.0470    2.7160   -0.0100 C.2   535  GLY535      0.2639
    206  O         27.4930    2.0290   -0.8790 O.2   535  GLY535     -0.2714
    207  N         27.6290    3.9050    0.4070 N.am  536  MET536     -0.1963
    208  CA        26.4780    4.6240   -0.1260 C.3   536  MET536      0.1736
    209  C         26.6190    4.9320   -1.5710 C.2   536  MET536      0.2616
    210  O         27.6980    5.3600   -1.9910 O.2   536  MET536     -0.2715
    211  CB        26.3610    5.9310    0.6780 C.3   536  MET536      0.0427
    212  CG        25.3120    6.9300    0.2010 C.3   536  MET536      0.0599
    213  SD        23.5980    6.5300    0.6490 S.3   536  MET536     -0.1393
    214  CE        23.6050    6.6430    2.4480 C.3   536  MET536      0.0692
    215  N         25.6100    4.6360   -2.3850 N.am  537  VAL537     -0.1977
    216  CA        25.5470    5.1750   -3.7250 C.3   537  VAL537      0.1596
    217  C         24.6890    6.4610   -3.7460 C.2   537  VAL537      0.2287
    218  O         23.5030    6.4390   -3.3760 O.2   537  VAL537     -0.2864
    219  CB        25.0120    4.1980   -4.7090 C.3   537  VAL537      0.0276
    220  CG1       25.0610    4.7570   -6.1500 C.3   537  VAL537      0.0022
    221  CG2       25.7640    2.8850   -4.6160 C.3   537  VAL537      0.0022
    222  N         22.6600   12.1600   -1.4250 N.3   544  LYS544     -0.1231
    223  CA        21.7490   11.0200   -1.2000 C.3   544  LYS544      0.1693
    224  C         20.5910   11.0180   -2.2160 C.2   544  LYS544      0.2591
    225  O         20.0160   12.0690   -2.5130 O.2   544  LYS544     -0.2718
    226  CB        21.2000   11.0550    0.2270 C.3   544  LYS544      0.0285
    227  CG        20.5030    9.7660    0.6100 C.3   544  LYS544      0.0035
    228  CD        19.6640    9.8670    1.8700 C.3   544  LYS544      0.0206
    229  CE        18.6890    8.6880    1.9210 C.3   544  LYS544      0.1093
    230  NZ        18.2770    8.3500    3.3100 N.3   544  LYS544     -0.1314
    231  N         20.3130    9.8610   -2.8190 N.am  545  GLN545     -0.1979
    232  CA        19.2120    9.7350   -3.7690 C.3   545  GLN545      0.1601
    233  C         17.8710    9.7170   -2.9910 C.2   545  GLN545      0.2287
    234  O         17.7450    9.0810   -1.9430 O.2   545  GLN545     -0.2864
    235  CB        19.3470    8.4980   -4.6540 C.3   545  GLN545      0.0394
    236  CG        20.5870    8.5120   -5.5310 C.3   545  GLN545      0.0908
    237  CD        20.5530    7.5310   -6.6770 C.2   545  GLN545      0.2608
    238  OE1       19.5650    6.8240   -6.8940 O.2   545  GLN545     -0.2717
    239  NE2       21.6190    7.5260   -7.4650 N.am  545  GLN545     -0.0878
@<TRIPOS>BOND
     1    62    60    1
     2    60    59    1
     3    59    56    1
     4    59    61    1
     5    56    55    1
     6    56    57    1
     7   239   237   am
     8    55    47   am
     9   238   237    2
    10    47    46    1
    11    47    48    2
    12   237   236    1
    13    46    45    1
    14    46    49    1
    15    58    57    2
    16    57    63   am
    17   220   219    1
    18    77    78    1
    19    49    50    1
    20   236   235    1
    21    78    81    1
    22    78    79    1
    23    63    64    1
    24    99    98    2
    25    98    97    1
    26    81    82    1
    27   219   221    1
    28   219   216    1
    29    82    83    1
    30   235   232    1
    31    69    70    2
    32    69    68    1
    33    50    52   ar
    34    50    51   ar
    35   100    97    1
    36   100   101    1
    37    79    80    2
    38    79    88   am
    39    64    65    1
    40    71    68    1
    41    71    72    1
    42    97    96    1
    43    83    84    1
    44    67    65   am
    45    67    68    1
    46    84    85    2
    47   232   233    1
    48   232   231    1
    49   217   216    1
    50   217   218    2
    51    65    66    2
    52   216   215    1
    53    52    54   ar
    54    96    90   am
    55   103   101   ar
    56   103   105   ar
    57    73    72   ar
    58    73    75   ar
    59    51    53   ar
    60    87    85    1
    61    88    89    1
    62    85    86    1
    63   101   102   ar
    64    72    74   ar
    65   233   234    2
    66   231   224   am
    67   105   106   ar
    68    90    89    1
    69    90    91    2
    70   225   224    2
    71    75    76   ar
    72   215   209   am
    73    54    53   ar
    74   224   223    1
    75    89    92    1
    76   210   209    2
    77   102   104   ar
    78    74    76   ar
    79    42    41    2
    80   209   208    1
    81   222   223    1
    82    41    40    1
    83   106   104   ar
    84   106   107    1
    85    92    93    1
    86   223   226    1
    87   206   205    2
    88    25    24    1
    89    25    26    1
    90    24    21    1
    91   208   207    1
    92   208   211    1
    93    39    40    1
    94    40    43    1
    95   205   207   am
    96   205   204    1
    97    93    94    2
    98    93    95   am
    99   199   198    1
   100   199   200    1
   101   212   213    1
   102   212   211    1
   103   226   227    1
   104    30    29    2
   105    26    20    1
   106   198   195    1
   107   203   204    1
   108   203   196   am
   109   227   228    1
   110   213   214    1
   111    44    43    1
   112    21    20    1
   113    21    22    1
   114    29    28    1
   115   195   196    1
   116   195   194    1
   117   200   202   am
   118   200   201    2
   119    20    11   am
   120   196   197    2
   121    22    23    2
   122    22    27   am
   123   228   229    1
   124   229   230    1
   125     4     3    2
   126    27    28    1
   127    10    11    1
   128    10    13    1
   129    10     9    1
   130    11    12    2
   131    28    31    1
   132    13    14    1
   133    31    32    1
   134     3     9   am
   135     3     2    1
   136   108   109    1
   137     1     2    1
   138   111   110    2
   139    14    16   ar
   140    14    15   ar
   141     2     5    1
   142    16    18   ar
   143   158   157    1
   144   158   159    1
   145   110   109    1
   146    32    34   ar
   147    32    33   ar
   148   109   112    1
   149     5     6    1
   150    34    36   ar
   151   159   161   am
   152   159   160    2
   153   112   113    1
   154   161   162    1
   155   173   171   ar
   156   147   148    2
   157   147   146    1
   158    15    17   ar
   159    18    19   ar
   160   162   163    1
   161    33    35   ar
   162   146   145    1
   163   146   149    1
   164   142   140   ar
   165   142   143   ar
   166   172   171   ar
   167   171   170    1
   168     6     7    1
   169   144   143    1
   170    36    37   ar
   171   151   153   ar
   172   151   150   ar
   173   140   138   ar
   174    17    19   ar
   175   153   155   ar
   176   113   115   ar
   177   113   114   ar
   178   143   141   ar
   179     7     8    1
   180    35    37   ar
   181   163   164    2
   182    37    38    1
   183   170   169    1
   184   149   150    1
   185   150   152   ar
   186   155   156    1
   187   155   154   ar
   188   138   137    1
   189   138   139   ar
   190   183   181   ar
   191   183   182   ar
   192   136   135    2
   193   181   179   ar
   194   141   139   ar
   195   169   166    1
   196   137   134    1
   197   152   154   ar
   198   165   166    1
   199   135   134    1
   200   182   180   ar
   201   166   167    1
   202   179   180   ar
   203   179   178    1
   204   134   133    1
   205   174   167   am
   206   174   175    1
   207   131   128    1
   208   131   132    1
   209   178   175    1
   210   193   191   ar
   211   193   192   ar
   212   167   168    2
   213   191   189   ar
   214   128   127    1
   215   128   129    1
   216   175   176    1
   217   192   190   ar
   218   189   190   ar
   219   189   188    1
   220   130   129    2
   221   188   185    1
   222   126   124   ar
   223   126   125   ar
   224   124   122   ar
   225   176   177    2
   226   125   123   ar
   227   122   121   ar
   228   185   184    1
   229   185   186    1
   230   116   117    1
   231   123   121   ar
   232   121   120    1
   233   186   187    2
   234   117   118    1
   235   117   120    1
   236   118   119    2
