@<TRIPOS>MOLECULE
tmp/5ah6B00.pdb
 136 128 0 0 0
SMALL
GASTEIGER

@<TRIPOS>ATOM
      1  N          8.8910   34.2540   -1.2100 N.3     8  ARG8       -0.1245
      2  CA         9.6470   33.0180   -1.4170 C.3     8  ARG8        0.1563
      3  C         10.5390   33.1120   -2.6540 C.2     8  ARG8        0.2260
      4  O         10.0900   33.5530   -3.7010 O.2     8  ARG8       -0.2867
      5  CB         8.6930   31.8380   -1.5770 C.3     8  ARG8        0.0307
      6  CG         8.0280   31.4040   -0.2880 C.3     8  ARG8        0.0489
      7  CD         7.1140   30.2160   -0.5370 C.3     8  ARG8        0.2205
      8  NE         6.4400   29.8130    0.6930 N.pl3   8  ARG8       -0.0865
      9  CZ         5.1600   29.4600    0.7680 C.cat   8  ARG8        0.5346
     10  NH1        4.4580   29.2530   -0.3390 N.pl3   8  ARG8        0.1354
     11  NH2        4.6140   29.2120    1.9510 N.pl3   8  ARG8        0.1354
     12  N         12.0920   26.1290   -5.0040 N.3    23  LEU23      -0.1245
     13  CA        12.4470   27.1060   -3.9920 C.3    23  LEU23       0.1561
     14  C         13.9500   27.0130   -3.7350 C.2    23  LEU23       0.2260
     15  O         14.4760   25.9230   -3.4660 O.2    23  LEU23      -0.2867
     16  CB        11.6830   26.7530   -2.7190 C.3    23  LEU23       0.0270
     17  CG        11.8720   27.5420   -1.4350 C.3    23  LEU23       0.0019
     18  CD1       11.3310   28.9550   -1.6360 C.3    23  LEU23       0.0001
     19  CD2       11.1060   26.8160   -0.3360 C.3    23  LEU23       0.0001
     20  N         16.8450   27.1010   -1.5180 N.3    25  ASP25      -0.1239
     21  CA        16.6800   26.7700   -0.1130 C.3    25  ASP25       0.1674
     22  C         18.0160   26.4900    0.5660 C.2    25  ASP25       0.2266
     23  O         18.5660   25.3710    0.4850 O.2    25  ASP25      -0.2867
     24  CB        15.7600   25.5600    0.0290 C.3    25  ASP25       0.1410
     25  CG        15.4140   25.2540    1.4680 C.2    25  ASP25       0.3668
     26  OD1       15.9340   25.9410    2.3740 O.co2  25  ASP25      -0.2456
     27  OD2       14.5700   24.3670    1.6870 O.co2  25  ASP25      -0.2456
     28  N         18.6810   26.2030    3.5460 N.3    27  GLY27      -0.1210
     29  CA        18.5480   25.3110    4.7010 C.3    27  GLY27       0.1956
     30  C         18.4390   23.8400    4.3320 C.2    27  GLY27       0.2612
     31  O         18.2700   22.9850    5.2180 O.2    27  GLY27      -0.2717
     32  N         18.4720   23.5530    3.0300 N.am   28  ALA28      -0.1965
     33  CA        18.4190   22.1800    2.5170 C.3    28  ALA28       0.1728
     34  C         19.8000   21.7330    2.0540 C.2    28  ALA28       0.2616
     35  O         20.4050   22.3800    1.1980 O.2    28  ALA28      -0.2715
     36  CB        17.4230   22.0960    1.3610 C.3    28  ALA28       0.0334
     37  N         20.3190   20.6470    2.6270 N.am   29  ASP29      -0.1957
     38  CA        21.5850   20.0890    2.1260 C.3    29  ASP29       0.1840
     39  C         21.4080   19.6330    0.6840 C.2    29  ASP29       0.2622
     40  O         22.3260   19.7390   -0.1280 O.2    29  ASP29      -0.2715
     41  CB        22.0410   18.8840    2.9620 C.3    29  ASP29       0.1450
     42  CG        22.2760   19.2240    4.4270 C.2    29  ASP29       0.3671
     43  OD1       22.5560   20.3910    4.7580 O.co2  29  ASP29      -0.2456
     44  OD2       22.2870   18.2740    5.2470 O.co2  29  ASP29      -0.2456
     45  N         20.2680   19.0050    0.4220 N.am   30  ASP30      -0.1971
     46  CA        20.0370   18.2840   -0.8090 C.3    30  ASP30       0.1709
     47  C         18.8230   18.8510   -1.5440 C.2    30  ASP30       0.2293
     48  O         18.0300   19.6110   -0.9790 O.2    30  ASP30      -0.2864
     49  CB        19.8500   16.7890   -0.5140 C.3    30  ASP30       0.1436
     50  CG        21.0630   16.1730    0.1890 C.2    30  ASP30       0.3671
     51  OD1       22.2030   16.4470   -0.2410 O.co2  30  ASP30      -0.2456
     52  OD2       20.8770   15.5210    1.2320 O.co2  30  ASP30      -0.2456
     53  N         15.3550   18.2230   -3.4590 N.3    32  VAL32      -0.1245
     54  CA        14.2680   17.2580   -3.4060 C.3    32  VAL32       0.1561
     55  C         13.1290   17.7700   -4.2480 C.2    32  VAL32       0.2260
     56  O         12.6350   18.8840   -4.0270 O.2    32  VAL32      -0.2867
     57  CB        13.7760   16.9970   -1.9720 C.3    32  VAL32       0.0252
     58  CG1       13.1450   18.2350   -1.3950 C.3    32  VAL32       0.0019
     59  CG2       12.7730   15.8370   -1.9660 C.3    32  VAL32       0.0019
     60  N         17.2490    6.8380    0.1230 N.3    45  LYS45      -0.1231
     61  CA        17.7100    7.8350    1.0860 C.3    45  LYS45       0.1693
     62  C         16.5610    8.2640    1.9810 C.2    45  LYS45       0.2592
     63  O         15.4060    8.3070    1.5480 O.2    45  LYS45      -0.2718
     64  CB        18.3040    9.0560    0.3760 C.3    45  LYS45       0.0285
     65  CG        19.1540    9.9390    1.2990 C.3    45  LYS45       0.0035
     66  CD        19.7630   11.1170    0.5600 C.3    45  LYS45       0.0206
     67  CE        20.5110   12.0440    1.5130 C.3    45  LYS45       0.1093
     68  NZ        21.7370   11.4000    2.0510 N.3    45  LYS45      -0.1314
     69  N         16.8630    8.4310    3.2630 N.am   46  MET46      -0.1965
     70  CA        15.9370    9.0700    4.1880 C.3    46  MET46       0.1736
     71  C         16.4110   10.4870    4.4330 C.2    46  MET46       0.2616
     72  O         17.5950   10.7100    4.6650 O.2    46  MET46      -0.2715
     73  CB        15.9070    8.3100    5.5150 C.3    46  MET46       0.0427
     74  CG        15.4070    6.8810    5.3940 C.3    46  MET46       0.0599
     75  SD        13.6140    6.7840    5.2820 S.3    46  MET46      -0.1393
     76  CE        13.1440    7.1910    6.9640 C.3    46  MET46       0.0692
     77  N         15.5220   11.4540    4.2490 N.am   47  ILE47      -0.1963
     78  CA        15.8680   12.8370    4.5560 C.3    47  ILE47       0.1727
     79  C         14.9350   13.4390    5.5900 C.2    47  ILE47       0.2617
     80  O         13.7370   13.1410    5.6150 O.2    47  ILE47      -0.2715
     81  CB        15.9020   13.7340    3.3110 C.3    47  ILE47       0.0290
     82  CG1       14.5580   13.7120    2.5850 C.3    47  ILE47       0.0022
     83  CG2       17.0440   13.3320    2.3890 C.3    47  ILE47       0.0023
     84  CD1       14.3760   14.8760    1.6270 C.3    47  ILE47       0.0001
     85  N         15.4960   14.2980    6.4310 N.am   48  GLY48      -0.1940
     86  CA        14.8370   14.7380    7.6440 C.3    48  GLY48       0.2014
     87  C         14.5120   16.2170    7.6290 C.2    48  GLY48       0.2639
     88  O         15.3990   17.0690    7.4620 O.2    48  GLY48      -0.2714
     89  N         13.3120   16.5220    8.0920 N.am   49  GLY49      -0.1939
     90  CA        12.7810   17.8610    7.9850 C.3    49  GLY49       0.2014
     91  C         12.1080   18.2390    9.2800 C.2    49  GLY49       0.2638
     92  O         12.1610   17.4910   10.2670 O.2    49  GLY49      -0.2714
     93  N         11.3380   19.3180    9.2360 N.am   50  ILE50      -0.1977
     94  CA        10.6560   19.7880   10.4290 C.3    50  ILE50       0.1596
     95  C          9.7150   18.7640   11.0350 C.2    50  ILE50       0.2287
     96  O          9.7750   18.5130   12.2370 O.2    50  ILE50      -0.2864
     97  CB         9.9480   21.1410   10.2260 C.3    50  ILE50       0.0276
     98  CG1       10.5820   22.1790   11.1520 C.3    50  ILE50       0.0022
     99  CG2        8.4570   21.0300   10.5480 C.3    50  ILE50       0.0022
    100  CD1       11.5850   21.5920   12.1100 C.3    50  ILE50       0.0001
    101  N         16.8570   14.1630   -5.4860 N.3    76  LEU76      -0.1245
    102  CA        16.0350   13.2560   -4.6780 C.3    76  LEU76       0.1561
    103  C         14.5750   13.4760   -5.0430 C.2    76  LEU76       0.2260
    104  O         14.1890   14.6010   -5.3780 O.2    76  LEU76      -0.2867
    105  CB        16.2420   13.5290   -3.1870 C.3    76  LEU76       0.0270
    106  CG        17.6880   13.6160   -2.6990 C.3    76  LEU76       0.0019
    107  CD1       17.7290   13.8310   -1.1910 C.3    76  LEU76       0.0001
    108  CD2       18.4070   12.3310   -3.0460 C.3    76  LEU76       0.0001
    109  N          7.7200   15.4370   -1.0960 N.3    80  THR80      -0.1204
    110  CA         8.0100   16.7190   -0.4830 C.3    80  THR80       0.1979
    111  C          6.8450   17.6760   -0.6950 C.2    80  THR80       0.2460
    112  O          6.1870   17.6400   -1.7370 O.2    80  THR80      -0.2732
    113  CB         9.2940   17.3450   -1.0760 C.3    80  THR80       0.1783
    114  OG1        9.5180   18.6190   -0.4750 O.3    80  THR80      -0.2211
    115  CG2        9.1810   17.5070   -2.6030 C.3    80  THR80       0.0376
    116  N          6.6300   18.5910    0.2560 N.am   81  PRO81      -0.2717
    117  CA         5.5430   19.5600    0.0900 C.3    81  PRO81       0.1535
    118  C          5.8070   20.5230   -1.0540 C.2    81  PRO81       0.2599
    119  O          4.8780   21.1410   -1.5660 O.2    81  PRO81      -0.2715
    120  CB         5.5370   20.3240    1.4160 C.3    81  PRO81       0.0310
    121  CG         6.1840   19.4140    2.3800 C.3    81  PRO81       0.0237
    122  CD         7.1840   18.6000    1.6200 C.3    81  PRO81       0.0939
    123  N          7.0820   20.7700   -1.3390 N.am   82  THR82      -0.1951
    124  CA         7.4510   21.7260   -2.3740 C.3    82  THR82       0.1897
    125  C          8.8120   21.3490   -2.9350 C.2    82  THR82       0.2313
    126  O          9.6050   20.6930   -2.2620 O.2    82  THR82      -0.2863
    127  CB         7.5040   23.1760   -1.8380 C.3    82  THR82       0.1794
    128  OG1        8.7210   23.3730   -1.1130 O.3    82  THR82      -0.2208
    129  CG2        6.3280   23.4640   -0.9110 C.3    82  THR82       0.0378
    130  N         12.4390   21.7820   -3.7490 N.3    84  VAL84      -0.1245
    131  CA        13.4930   22.5900   -3.1280 C.3    84  VAL84       0.1561
    132  C         14.8410   22.3250   -3.7780 C.2    84  VAL84       0.2260
    133  O         15.2060   21.1720   -4.0360 O.2    84  VAL84      -0.2867
    134  CB        13.6160   22.3830   -1.5970 C.3    84  VAL84       0.0252
    135  CG1       12.3480   22.8210   -0.8840 C.3    84  VAL84       0.0019
    136  CG2       13.9730   20.9630   -1.2610 C.3    84  VAL84       0.0019
@<TRIPOS>BOND
     1   101   102    1
     2   104   103    2
     3   103   102    1
     4    12    13    1
     5   102   105    1
     6    55    56    2
     7    55    54    1
     8   133   132    2
     9    13    14    1
    10    13    16    1
    11   132   131    1
    12   130   131    1
    13    14    15    2
    14     4     3    2
    15    53    54    1
    16    54    57    1
    17   105   106    1
    18   131   134    1
    19   108   106    1
    20   125   124    1
    21   125   126    2
    22    16    17    1
    23   106   107    1
    24     3     2    1
    25   115   113    1
    26   124   127    1
    27   124   123    1
    28    57    59    1
    29    57    58    1
    30   127   128    1
    31   127   129    1
    32   112   111    2
    33    18    17    1
    34   134   136    1
    35   134   135    1
    36     5     2    1
    37     5     6    1
    38   119   118    2
    39    47    48    2
    40    47    46    1
    41    20    21    1
    42    17    19    1
    43     2     1    1
    44   123   118   am
    45   109   110    1
    46   113   110    1
    47   113   114    1
    48   118   117    1
    49    46    49    1
    50    46    45    1
    51   111   110    1
    52   111   116   am
    53     7     6    1
    54     7     8    1
    55    49    50    1
    56    10     9    1
    57    51    50   ar
    58    40    39    2
    59    21    24    1
    60    21    22    1
    61    24    25    1
    62   117   116    1
    63   117   120    1
    64    60    61    1
    65    50    52   ar
    66   116   122    1
    67    64    61    1
    68    64    65    1
    69    45    39   am
    70    23    22    2
    71    66    65    1
    72    66    67    1
    73    39    38    1
    74     8     9    2
    75     9    11    1
    76    61    62    1
    77    35    34    2
    78    36    33    1
    79   120   121    1
    80    25    27   ar
    81    25    26   ar
    82    67    68    1
    83    63    62    2
    84   122   121    1
    85    84    82    1
    86    62    69   am
    87    34    33    1
    88    34    37   am
    89    38    37    1
    90    38    41    1
    91    83    81    1
    92    33    32    1
    93    82    81    1
    94    41    42    1
    95    32    30   am
    96    69    70    1
    97    81    78    1
    98    28    29    1
    99    70    71    1
   100    70    73    1
   101    77    71   am
   102    77    78    1
   103    30    29    1
   104    30    31    2
   105    42    43   ar
   106    42    44   ar
   107    71    72    2
   108    78    79    1
   109    75    74    1
   110    75    76    1
   111    74    73    1
   112    79    80    2
   113    79    85   am
   114    85    86    1
   115    88    87    2
   116    87    86    1
   117    87    89   am
   118    90    89    1
   119    90    91    1
   120    93    91   am
   121    93    94    1
   122    91    92    2
   123    97    94    1
   124    97    99    1
   125    97    98    1
   126    94    95    1
   127    95    96    2
   128    98   100    1
