@<TRIPOS>MOLECULE
tmp/5ah8B00.pdb
 136 128 0 0 0
SMALL
GASTEIGER

@<TRIPOS>ATOM
      1  N          8.9830   34.2730   -1.3100 N.3     8  ARG8       -0.1245
      2  CA         9.7380   33.0370   -1.4970 C.3     8  ARG8        0.1563
      3  C         10.6380   33.1370   -2.7290 C.2     8  ARG8        0.2260
      4  O         10.2000   33.5900   -3.7760 O.2     8  ARG8       -0.2867
      5  CB         8.7730   31.8660   -1.6810 C.3     8  ARG8        0.0307
      6  CG         8.0570   31.4660   -0.4140 C.3     8  ARG8        0.0489
      7  CD         7.0890   30.3230   -0.6500 C.3     8  ARG8        0.2205
      8  NE         6.3490   30.0320    0.5740 N.pl3   8  ARG8       -0.0865
      9  CZ         5.1100   29.5530    0.6040 C.cat   8  ARG8        0.5346
     10  NH1        4.4930   29.2300   -0.5270 N.pl3   8  ARG8        0.1354
     11  NH2        4.5160   29.3230    1.7680 N.pl3   8  ARG8        0.1354
     12  N         12.1240   26.1300   -5.0510 N.3    23  LEU23      -0.1245
     13  CA        12.5270   27.0980   -4.0490 C.3    23  LEU23       0.1561
     14  C         14.0330   26.9920   -3.8310 C.2    23  LEU23       0.2260
     15  O         14.5380   25.9110   -3.5080 O.2    23  LEU23      -0.2867
     16  CB        11.7820   26.7400   -2.7700 C.3    23  LEU23       0.0270
     17  CG        11.9410   27.5310   -1.4870 C.3    23  LEU23       0.0019
     18  CD1       11.4160   28.9430   -1.7010 C.3    23  LEU23       0.0001
     19  CD2       11.1430   26.8220   -0.4060 C.3    23  LEU23       0.0001
     20  N         16.8880   27.0490   -1.5520 N.3    25  ASP25      -0.1239
     21  CA        16.7200   26.7050   -0.1550 C.3    25  ASP25       0.1674
     22  C         18.0680   26.4420    0.5070 C.2    25  ASP25       0.2266
     23  O         18.6110   25.3150    0.4730 O.2    25  ASP25      -0.2867
     24  CB        15.8200   25.4830   -0.0220 C.3    25  ASP25       0.1410
     25  CG        15.4470   25.1980    1.4040 C.2    25  ASP25       0.3668
     26  OD1       15.9610   25.9000    2.2980 O.co2  25  ASP25      -0.2456
     27  OD2       14.5650   24.3710    1.6200 O.co2  25  ASP25      -0.2456
     28  N         18.6850   26.1980    3.5180 N.3    27  GLY27      -0.1210
     29  CA        18.5110   25.2940    4.6460 C.3    27  GLY27       0.1956
     30  C         18.4190   23.8180    4.2850 C.2    27  GLY27       0.2612
     31  O         18.2940   22.9750    5.1770 O.2    27  GLY27      -0.2717
     32  N         18.5130   23.5150    2.9950 N.am   28  ALA28      -0.1965
     33  CA        18.4110   22.1380    2.5000 C.3    28  ALA28       0.1728
     34  C         19.7890   21.6970    2.0270 C.2    28  ALA28       0.2616
     35  O         20.3950   22.3560    1.1850 O.2    28  ALA28      -0.2715
     36  CB        17.4450   22.0870    1.3380 C.3    28  ALA28       0.0334
     37  N         20.3050   20.6020    2.5860 N.am   29  ASP29      -0.1957
     38  CA        21.5900   20.0560    2.1020 C.3    29  ASP29       0.1840
     39  C         21.4460   19.5890    0.6570 C.2    29  ASP29       0.2622
     40  O         22.3510   19.7490   -0.1690 O.2    29  ASP29      -0.2715
     41  CB        22.0820   18.8660    2.9440 C.3    29  ASP29       0.1450
     42  CG        22.2890   19.1980    4.4110 C.2    29  ASP29       0.3671
     43  OD1       22.5590   20.3620    4.7780 O.co2  29  ASP29      -0.2456
     44  OD2       22.3290   18.2250    5.2090 O.co2  29  ASP29      -0.2456
     45  N         20.3040   18.9690    0.3870 N.am   30  ASP30      -0.1971
     46  CA        20.0610   18.2740   -0.8630 C.3    30  ASP30       0.1709
     47  C         18.8430   18.8480   -1.5930 C.2    30  ASP30       0.2293
     48  O         18.0620   19.6210   -1.0350 O.2    30  ASP30      -0.2864
     49  CB        19.9150   16.7630   -0.6050 C.3    30  ASP30       0.1436
     50  CG        21.1580   16.1600    0.0830 C.2    30  ASP30       0.3671
     51  OD1       22.2840   16.4730   -0.3590 O.co2  30  ASP30      -0.2456
     52  OD2       21.0040   15.5390    1.1460 O.co2  30  ASP30      -0.2456
     53  N         15.3550   18.2160   -3.5230 N.3    32  VAL32      -0.1245
     54  CA        14.2660   17.2600   -3.4490 C.3    32  VAL32       0.1561
     55  C         13.1250   17.7860   -4.2860 C.2    32  VAL32       0.2260
     56  O         12.6380   18.8950   -4.0560 O.2    32  VAL32      -0.2867
     57  CB        13.7970   17.0240   -2.0000 C.3    32  VAL32       0.0252
     58  CG1       13.1800   18.2640   -1.4350 C.3    32  VAL32       0.0019
     59  CG2       12.8120   15.8520   -1.9450 C.3    32  VAL32       0.0019
     60  N         17.2010    6.8430    0.1180 N.3    45  LYS45      -0.1231
     61  CA        17.6780    7.8240    1.0900 C.3    45  LYS45       0.1693
     62  C         16.5260    8.2410    1.9800 C.2    45  LYS45       0.2592
     63  O         15.3860    8.3310    1.5320 O.2    45  LYS45      -0.2718
     64  CB        18.2960    9.0360    0.3870 C.3    45  LYS45       0.0285
     65  CG        19.1720    9.9000    1.3000 C.3    45  LYS45       0.0035
     66  CD        19.7450   11.1020    0.5620 C.3    45  LYS45       0.0206
     67  CE        20.4470   12.0610    1.5050 C.3    45  LYS45       0.1093
     68  NZ        21.7080   11.4820    2.0170 N.3    45  LYS45      -0.1314
     69  N         16.8420    8.5210    3.2370 N.am   46  MET46      -0.1965
     70  CA        15.8880    9.1360    4.1540 C.3    46  MET46       0.1736
     71  C         16.3200   10.5610    4.4440 C.2    46  MET46       0.2616
     72  O         17.5010   10.8100    4.6780 O.2    46  MET46      -0.2715
     73  CB        15.8350    8.3390    5.4560 C.3    46  MET46       0.0427
     74  CG        15.0470    7.0500    5.3450 C.3    46  MET46       0.0599
     75  SD        13.3130    7.2730    5.7850 S.3    46  MET46      -0.1393
     76  CE        13.4130    7.2340    7.5740 C.3    46  MET46       0.0692
     77  N         15.4140   11.5170    4.2720 N.am   47  ILE47      -0.1963
     78  CA        15.7450   12.8910    4.5950 C.3    47  ILE47       0.1727
     79  C         14.7820   13.4720    5.6070 C.2    47  ILE47       0.2617
     80  O         13.5850   13.1500    5.6120 O.2    47  ILE47      -0.2715
     81  CB        15.8240   13.8110    3.3620 C.3    47  ILE47       0.0290
     82  CG1       14.4920   13.8280    2.6100 C.3    47  ILE47       0.0022
     83  CG2       16.9740   13.3910    2.4470 C.3    47  ILE47       0.0023
     84  CD1       14.4140   14.9120    1.5540 C.3    47  ILE47       0.0001
     85  N         15.3340   14.2620    6.5130 N.am   48  GLY48      -0.1940
     86  CA        14.5920   14.7490    7.6580 C.3    48  GLY48       0.2014
     87  C         14.3360   16.2290    7.5420 C.2    48  GLY48       0.2639
     88  O         15.2480   17.0290    7.2780 O.2    48  GLY48      -0.2714
     89  N         13.1740   16.6160    8.0340 N.am   49  GLY49      -0.1939
     90  CA        12.7900   17.9970    8.0270 C.3    49  GLY49       0.2014
     91  C         12.0540   18.3290    9.2990 C.2    49  GLY49       0.2638
     92  O         12.0270   17.5400   10.2560 O.2    49  GLY49      -0.2714
     93  N         11.2660   19.3860    9.2290 N.am   50  ILE50      -0.1977
     94  CA        10.5710   19.8680   10.4000 C.3    50  ILE50       0.1596
     95  C          9.6260   18.8580   11.0340 C.2    50  ILE50       0.2287
     96  O          9.6620   18.6640   12.2460 O.2    50  ILE50      -0.2864
     97  CB         9.9060   21.2280   10.1700 C.3    50  ILE50       0.0276
     98  CG1       10.6370   22.2910   10.9910 C.3    50  ILE50       0.0022
     99  CG2        8.4240   21.1890   10.5670 C.3    50  ILE50       0.0022
    100  CD1       10.8210   21.9240   12.4340 C.3    50  ILE50       0.0001
    101  N         16.8680   14.1720   -5.5130 N.3    76  LEU76      -0.1245
    102  CA        16.0350   13.2640   -4.7280 C.3    76  LEU76       0.1561
    103  C         14.5840   13.4810   -5.1090 C.2    76  LEU76       0.2260
    104  O         14.1840   14.6170   -5.3990 O.2    76  LEU76      -0.2867
    105  CB        16.2090   13.5430   -3.2410 C.3    76  LEU76       0.0270
    106  CG        17.6530   13.6170   -2.7570 C.3    76  LEU76       0.0019
    107  CD1       17.6870   13.9130   -1.2690 C.3    76  LEU76       0.0001
    108  CD2       18.3990   12.3230   -3.0660 C.3    76  LEU76       0.0001
    109  N          7.7970   15.4170   -1.0860 N.3    80  THR80      -0.1204
    110  CA         8.0650   16.7100   -0.4820 C.3    80  THR80       0.1979
    111  C          6.8850   17.6430   -0.7390 C.2    80  THR80       0.2460
    112  O          6.2650   17.5940   -1.8000 O.2    80  THR80      -0.2732
    113  CB         9.3540   17.3510   -1.0700 C.3    80  THR80       0.1783
    114  OG1        9.5190   18.6540   -0.5140 O.3    80  THR80      -0.2211
    115  CG2        9.2710   17.4490   -2.5990 C.3    80  THR80       0.0376
    116  N          6.6120   18.5560    0.2000 N.am   81  PRO81      -0.2717
    117  CA         5.5240   19.5130   -0.0270 C.3    81  PRO81       0.1535
    118  C          5.8140   20.5010   -1.1490 C.2    81  PRO81       0.2599
    119  O          4.8880   21.0700   -1.7210 O.2    81  PRO81      -0.2715
    120  CB         5.4110   20.2480    1.3120 C.3    81  PRO81       0.0310
    121  CG         5.9710   19.2890    2.3050 C.3    81  PRO81       0.0237
    122  CD         7.1040   18.6010    1.5870 C.3    81  PRO81       0.0939
    123  N          7.0910   20.7700   -1.4160 N.am   82  THR82      -0.1951
    124  CA         7.4740   21.7260   -2.4500 C.3    82  THR82       0.1897
    125  C          8.8050   21.2970   -3.0470 C.2    82  THR82       0.2313
    126  O          9.6430   20.7140   -2.3590 O.2    82  THR82      -0.2863
    127  CB         7.6150   23.1550   -1.8940 C.3    82  THR82       0.1794
    128  OG1        8.8360   23.2690   -1.1630 O.3    82  THR82      -0.2208
    129  CG2        6.4590   23.5220   -0.9800 C.3    82  THR82       0.0378
    130  N         12.4780   21.7510   -3.8150 N.3    84  VAL84      -0.1245
    131  CA        13.5230   22.5550   -3.2080 C.3    84  VAL84       0.1561
    132  C         14.8610   22.2950   -3.8610 C.2    84  VAL84       0.2260
    133  O         15.2530   21.1390   -4.0760 O.2    84  VAL84      -0.2867
    134  CB        13.6290   22.3750   -1.6780 C.3    84  VAL84       0.0252
    135  CG1       12.3410   22.8020   -1.0020 C.3    84  VAL84       0.0019
    136  CG2       13.9830   20.9650   -1.3080 C.3    84  VAL84       0.0019
@<TRIPOS>BOND
     1   101   102    1
     2   104   103    2
     3   103   102    1
     4    12    13    1
     5   102   105    1
     6    55    56    2
     7    55    54    1
     8   133   132    2
     9    13    14    1
    10    13    16    1
    11   132   131    1
    12    14    15    2
    13   130   131    1
    14     4     3    2
    15    53    54    1
    16    54    57    1
    17   105   106    1
    18   131   134    1
    19   108   106    1
    20   125   124    1
    21   125   126    2
    22    16    17    1
    23   106   107    1
    24     3     2    1
    25   115   113    1
    26   124   127    1
    27   124   123    1
    28    57    59    1
    29    57    58    1
    30   127   128    1
    31   127   129    1
    32   112   111    2
    33   119   118    2
    34    18    17    1
    35     5     2    1
    36     5     6    1
    37   134   136    1
    38   134   135    1
    39    47    48    2
    40    47    46    1
    41    20    21    1
    42     2     1    1
    43    17    19    1
    44   123   118   am
    45   118   117    1
    46   109   110    1
    47   113   114    1
    48   113   110    1
    49    46    49    1
    50    46    45    1
    51   111   110    1
    52   111   116   am
    53     7     6    1
    54     7     8    1
    55    49    50    1
    56    10     9    1
    57    51    50   ar
    58    40    39    2
    59    21    24    1
    60    21    22    1
    61   117   116    1
    62   117   120    1
    63    24    25    1
    64    50    52   ar
    65    60    61    1
    66   116   122    1
    67    64    61    1
    68    64    65    1
    69    45    39   am
    70    23    22    2
    71    66    65    1
    72    66    67    1
    73     8     9    2
    74     9    11    1
    75    39    38    1
    76    61    62    1
    77    35    34    2
    78   120   121    1
    79    36    33    1
    80    25    27   ar
    81    25    26   ar
    82    67    68    1
    83    63    62    2
    84    84    82    1
    85   122   121    1
    86    62    69   am
    87    34    33    1
    88    34    37   am
    89    38    37    1
    90    38    41    1
    91    83    81    1
    92    33    32    1
    93    82    81    1
    94    41    42    1
    95    32    30   am
    96    69    70    1
    97    81    78    1
    98    28    29    1
    99    70    71    1
   100    70    73    1
   101    77    71   am
   102    77    78    1
   103    30    29    1
   104    30    31    2
   105    42    43   ar
   106    42    44   ar
   107    71    72    2
   108    78    79    1
   109    74    73    1
   110    74    75    1
   111    79    80    2
   112    79    85   am
   113    75    76    1
   114    85    86    1
   115    88    87    2
   116    87    86    1
   117    87    89   am
   118    90    89    1
   119    90    91    1
   120    93    91   am
   121    93    94    1
   122    91    92    2
   123    97    94    1
   124    97    99    1
   125    97    98    1
   126    94    95    1
   127    98   100    1
   128    95    96    2
