@<TRIPOS>MOLECULE
tmp/5ah9A00.pdb
 112 105 0 0 0
SMALL
GASTEIGER

@<TRIPOS>ATOM
      1  N         20.4450   28.1430   11.6590 N.3    23  LEU23      -0.1245
      2  CA        20.6610   27.9800   10.2300 C.3    23  LEU23       0.1561
      3  C         19.9830   29.1190    9.4790 C.2    23  LEU23       0.2260
      4  O         18.7780   29.3060    9.6040 O.2    23  LEU23      -0.2867
      5  CB        20.0910   26.6260    9.8010 C.3    23  LEU23       0.0270
      6  CG        20.1480   26.1620    8.3540 C.3    23  LEU23       0.0019
      7  CD1       21.6030   25.8990    7.9860 C.3    23  LEU23       0.0001
      8  CD2       19.3300   24.8720    8.2640 C.3    23  LEU23       0.0001
      9  N         18.0430   30.1390    6.5130 N.3    25  ASP25      -0.1239
     10  CA        17.2300   29.2250    5.7280 C.3    25  ASP25       0.1674
     11  C         16.2720   29.9620    4.7980 C.2    25  ASP25       0.2266
     12  O         15.1810   30.3900    5.2030 O.2    25  ASP25      -0.2867
     13  CB        16.4340   28.3260    6.6580 C.3    25  ASP25       0.1410
     14  CG        15.7390   27.2180    5.9250 C.2    25  ASP25       0.3668
     15  OD1       15.8090   27.2010    4.6780 O.co2  25  ASP25      -0.2456
     16  OD2       15.2680   26.2790    6.5990 O.co2  25  ASP25      -0.2456
     17  N         14.5400   28.8010    2.4760 N.3    27  GLY27      -0.1210
     18  CA        13.3400   28.0130    2.2260 C.3    27  GLY27       0.1956
     19  C         12.3310   28.0080    3.3590 C.2    27  GLY27       0.2612
     20  O         11.2490   27.4210    3.2200 O.2    27  GLY27      -0.2717
     21  N         12.6350   28.7140    4.4480 N.am   28  ALA28      -0.1965
     22  CA        11.6940   28.8400    5.5710 C.3    28  ALA28       0.1728
     23  C         11.0090   30.2060    5.5290 C.2    28  ALA28       0.2616
     24  O         11.6890   31.2350    5.5260 O.2    28  ALA28      -0.2715
     25  CB        12.4380   28.6740    6.8850 C.3    28  ALA28       0.0334
     26  N          9.6770   30.2310    5.4540 N.am   29  ASP29      -0.1957
     27  CA         8.9570   31.5140    5.5100 C.3    29  ASP29       0.1840
     28  C          9.2250   32.1690    6.8600 C.2    29  ASP29       0.2622
     29  O          9.3370   33.3960    6.9610 O.2    29  ASP29      -0.2715
     30  CB         7.4400   31.3040    5.3910 C.3    29  ASP29       0.1450
     31  CG         7.0100   30.6970    4.0590 C.2    29  ASP29       0.3671
     32  OD1        7.7260   30.8200    3.0450 O.co2  29  ASP29      -0.2456
     33  OD2        5.8440   30.2470    3.9980 O.co2  29  ASP29      -0.2456
     34  N          9.2490   31.3300    7.8980 N.am   30  ASP30      -0.1971
     35  CA         9.1450   31.7470    9.2880 C.3    30  ASP30       0.1709
     36  C         10.3760   31.2570   10.0530 C.2    30  ASP30       0.2293
     37  O         10.9600   30.2340    9.7040 O.2    30  ASP30      -0.2864
     38  CB         7.9060   31.0910    9.9220 C.3    30  ASP30       0.1436
     39  CG         6.6370   31.3040    9.1060 C.2    30  ASP30       0.3671
     40  OD1        6.2700   32.4800    8.8860 O.co2  30  ASP30      -0.2456
     41  OD2        5.9130   30.3110    8.8510 O.co2  30  ASP30      -0.2456
     42  N         11.9370   29.5250   13.2160 N.3    32  VAL32      -0.1245
     43  CA        11.4820   28.5060   14.1590 C.3    32  VAL32       0.1561
     44  C         12.6470   28.0550   15.0100 C.2    32  VAL32       0.2260
     45  O         13.6840   27.6460   14.4830 O.2    32  VAL32      -0.2867
     46  CB        10.8850   27.2750   13.4470 C.3    32  VAL32       0.0252
     47  CG1       11.9520   26.5000   12.7220 C.3    32  VAL32       0.0019
     48  CG2       10.1620   26.3880   14.4650 C.3    32  VAL32       0.0019
     49  N          3.0660   24.5540   11.7660 N.3    47  ILE47      -0.1231
     50  CA         3.9050   24.7800   10.6020 C.3    47  ILE47       0.1692
     51  C          4.3370   23.4710    9.9910 C.2    47  ILE47       0.2593
     52  O          4.5440   22.4890   10.7030 O.2    47  ILE47      -0.2718
     53  CB         5.1570   25.6150   10.9230 C.3    47  ILE47       0.0266
     54  CG1        5.9920   24.9290   12.0000 C.3    47  ILE47       0.0019
     55  CG2        4.7760   27.0450   11.2800 C.3    47  ILE47       0.0020
     56  CD1        5.9730   25.6440   13.3330 C.3    47  ILE47       0.0001
     57  N          4.4580   23.4720    8.6720 N.am   48  GLY48      -0.1942
     58  CA         4.6690   22.2640    7.9080 C.3    48  GLY48       0.2014
     59  C          5.9020   22.2580    7.0180 C.2    48  GLY48       0.2639
     60  O          6.1830   23.2160    6.2910 O.2    48  GLY48      -0.2714
     61  N          6.5470   21.1060    6.9540 N.am   49  GLY49      -0.1939
     62  CA         7.8190   20.9910    6.2660 C.3    49  GLY49       0.2014
     63  C          7.8570   19.6290    5.6140 C.2    49  GLY49       0.2638
     64  O          6.8340   18.9460    5.5340 O.2    49  GLY49      -0.2714
     65  N          9.0560   19.1670    5.2830 N.am   50  ILE50      -0.1977
     66  CA         9.2520   17.7900    4.8900 C.3    50  ILE50       0.1596
     67  C          8.9840   16.9200    6.1170 C.2    50  ILE50       0.2287
     68  O          9.5080   17.1880    7.2020 O.2    50  ILE50      -0.2864
     69  CB        10.6940   17.5570    4.3910 C.3    50  ILE50       0.0276
     70  CG1       10.7640   17.7240    2.8700 C.3    50  ILE50       0.0022
     71  CG2       11.1680   16.1610    4.7620 C.3    50  ILE50       0.0022
     72  CD1        9.8240   16.8200    2.1260 C.3    50  ILE50       0.0001
     73  N          3.6810   18.2850    9.8090 N.3    53  PHE53      -0.1241
     74  CA         3.5480   19.5000   10.6160 C.3    53  PHE53       0.1605
     75  C          3.9870   19.2950   12.0670 C.2    53  PHE53       0.2264
     76  O          3.9130   18.1800   12.6100 O.2    53  PHE53      -0.2867
     77  CB         2.0920   19.9820   10.6010 C.3    53  PHE53       0.0534
     78  CG         1.6290   20.5050    9.2630 C.ar   53  PHE53      -0.0203
     79  CD1        1.3050   19.6300    8.2290 C.ar   53  PHE53      -0.0042
     80  CD2        1.4270   21.8630    9.0700 C.ar   53  PHE53      -0.0042
     81  CE1        0.9470   20.1120    6.9900 C.ar   53  PHE53      -0.0003
     82  CE2        1.0480   22.3520    7.8330 C.ar   53  PHE53      -0.0003
     83  CZ         0.7820   21.4710    6.7990 C.ar   53  PHE53      -0.0000
     84  N          8.6880   31.5020   16.0310 N.3    76  LEU76      -0.1245
     85  CA         7.9290   30.3050   16.3740 C.3    76  LEU76       0.1561
     86  C          8.7960   29.3890   17.2190 C.2    76  LEU76       0.2260
     87  O          9.9910   29.2610   16.9710 O.2    76  LEU76      -0.2867
     88  CB         7.4810   29.5670   15.1130 C.3    76  LEU76       0.0270
     89  CG         6.7970   30.4680   14.0790 C.3    76  LEU76       0.0019
     90  CD1        6.4690   29.6900   12.8140 C.3    76  LEU76       0.0001
     91  CD2        5.5520   31.1350   14.6470 C.3    76  LEU76       0.0001
     92  N         13.7870   20.2230   14.6520 N.3    81  PRO81      -0.2102
     93  CA        15.0270   19.5020   14.9190 C.3    81  PRO81       0.1504
     94  C         16.2320   20.4290   14.9540 C.2    81  PRO81       0.2576
     95  O         17.2960   20.0450   15.4260 O.2    81  PRO81      -0.2718
     96  CB        15.1380   18.5230   13.7410 C.3    81  PRO81       0.0282
     97  CG        14.1270   18.9770   12.7340 C.3    81  PRO81       0.0208
     98  CD        13.0580   19.6890   13.4930 C.3    81  PRO81       0.0893
     99  N         16.0840   21.6350   14.4180 N.am   82  THR82      -0.1953
    100  CA        17.1700   22.5970   14.4690 C.3    82  THR82       0.1897
    101  C         16.6550   24.0200   14.3310 C.2    82  THR82       0.2313
    102  O         15.5310   24.2380   13.8620 O.2    82  THR82      -0.2863
    103  CB        18.2440   22.3150   13.4090 C.3    82  THR82       0.1794
    104  OG1       19.4880   22.9060   13.8120 O.3    82  THR82      -0.2208
    105  CG2       17.8300   22.8800   12.0620 C.3    82  THR82       0.0378
    106  N         16.1250   27.5030   12.9530 N.3    84  VAL84      -0.1245
    107  CA        16.1710   28.0560   11.6070 C.3    84  VAL84       0.1561
    108  C         15.7750   29.5250   11.6410 C.2    84  VAL84       0.2260
    109  O         14.7670   29.8940   12.2510 O.2    84  VAL84      -0.2867
    110  CB        15.2410   27.2910   10.6480 C.3    84  VAL84       0.0252
    111  CG1       15.1400   28.0060    9.3200 C.3    84  VAL84       0.0019
    112  CG2       15.7310   25.8470   10.4640 C.3    84  VAL84       0.0019
@<TRIPOS>BOND
     1    72    70    1
     2    18    17    1
     3    18    19    1
     4    70    69    1
     5    32    31   ar
     6    20    19    2
     7    19    21   am
     8    33    31   ar
     9    31    30    1
    10    69    71    1
    11    69    66    1
    12    21    22    1
    13    15    14   ar
    14    11    12    2
    15    11    10    1
    16    66    65    1
    17    66    67    1
    18    65    63   am
    19    30    27    1
    20    26    27    1
    21    26    23   am
    22    27    28    1
    23    24    23    2
    24    23    22    1
    25    64    63    2
    26    22    25    1
    27    63    62    1
    28    10     9    1
    29    10    13    1
    30    14    16   ar
    31    14    13    1
    32    67    68    2
    33    62    61    1
    34    60    59    2
    35    83    81   ar
    36    83    82   ar
    37    28    29    2
    38    28    34   am
    39    61    59   am
    40    81    79   ar
    41    59    58    1
    42    82    80   ar
    43    34    35    1
    44    58    57    1
    45     7     6    1
    46    79    78   ar
    47     8     6    1
    48     6     5    1
    49    57    51   am
    50    41    39   ar
    51    40    39   ar
    52    80    78   ar
    53    39    38    1
    54    78    77    1
    55    35    38    1
    56    35    36    1
    57   111   110    1
    58     3     4    2
    59     3     2    1
    60    37    36    2
    61     5     2    1
    62    73    74    1
    63    51    50    1
    64    51    52    2
    65     2     1    1
    66   112   110    1
    67    77    74    1
    68    50    53    1
    69    50    49    1
    70    74    75    1
    71   110   107    1
    72    53    55    1
    73    53    54    1
    74   107   108    1
    75   107   106    1
    76   108   109    2
    77    54    56    1
    78   105   103    1
    79    75    76    2
    80    47    46    1
    81    97    98    1
    82    97    96    1
    83    90    89    1
    84    42    43    1
    85   103   104    1
    86   103   100    1
    87    46    43    1
    88    46    48    1
    89    98    92    1
    90    96    93    1
    91   102   101    2
    92    89    91    1
    93    89    88    1
    94    43    44    1
    95   101   100    1
    96    99   100    1
    97    99    94   am
    98    45    44    2
    99    92    93    1
   100    93    94    1
   101    94    95    2
   102    88    85    1
   103    84    85    1
   104    85    86    1
   105    87    86    2
