@<TRIPOS>MOLECULE
tmp/5ahbA00.pdb
 122 115 0 0 0
SMALL
GASTEIGER

@<TRIPOS>ATOM
      1  N         26.8090   24.1020    5.7310 N.3     8  ARG8       -0.1245
      2  CA        25.5840   24.7080    6.2460 C.3     8  ARG8        0.1563
      3  C         25.9030   26.0960    6.7640 C.2     8  ARG8        0.2260
      4  O         26.8920   26.2780    7.4810 O.2     8  ARG8       -0.2867
      5  CB        24.9950   23.8610    7.3710 C.3     8  ARG8        0.0307
      6  CG        24.5620   22.4880    6.9310 C.3     8  ARG8        0.0489
      7  CD        24.0490   21.6790    8.1120 C.3     8  ARG8        0.2205
      8  NE        23.4330   20.4340    7.6730 N.pl3   8  ARG8       -0.0865
      9  CZ        23.1460   19.4200    8.4820 C.cat   8  ARG8        0.5346
     10  NH1       23.5370   19.4560    9.7490 N.pl3   8  ARG8        0.1354
     11  NH2       22.5780   18.3250    7.9940 N.pl3   8  ARG8        0.1354
     12  N         20.4800   28.1690   11.6200 N.3    23  LEU23      -0.1245
     13  CA        20.7750   27.9960   10.1990 C.3    23  LEU23       0.1561
     14  C         20.1040   29.1190    9.4030 C.2    23  LEU23       0.2260
     15  O         18.9040   29.3300    9.5280 O.2    23  LEU23      -0.2867
     16  CB        20.2270   26.6340    9.7530 C.3    23  LEU23       0.0270
     17  CG        20.3570   26.1530    8.3070 C.3    23  LEU23       0.0019
     18  CD1       21.8240   25.8670    7.9740 C.3    23  LEU23       0.0001
     19  CD2       19.5080   24.8850    8.1630 C.3    23  LEU23       0.0001
     20  N         18.2200   30.2080    6.5770 N.3    25  ASP25      -0.1239
     21  CA        17.4010   29.2750    5.8230 C.3    25  ASP25       0.1674
     22  C         16.4140   29.9770    4.9000 C.2    25  ASP25       0.2266
     23  O         15.3110   30.3600    5.3180 O.2    25  ASP25      -0.2867
     24  CB        16.6550   28.3350    6.7650 C.3    25  ASP25       0.1410
     25  CG        15.9190   27.2440    6.0230 C.2    25  ASP25       0.3668
     26  OD1       15.9360   27.2710    4.7730 O.co2  25  ASP25      -0.2456
     27  OD2       15.3770   26.3470    6.6910 O.co2  25  ASP25      -0.2456
     28  N         14.6760   28.7800    2.5990 N.3    27  GLY27      -0.1210
     29  CA        13.4780   27.9840    2.3550 C.3    27  GLY27       0.1956
     30  C         12.4620   28.0340    3.4840 C.2    27  GLY27       0.2612
     31  O         11.3720   27.4710    3.3660 O.2    27  GLY27      -0.2717
     32  N         12.8080   28.7160    4.5730 N.am   28  ALA28      -0.1965
     33  CA        11.8910   28.8560    5.7010 C.3    28  ALA28       0.1728
     34  C         11.2160   30.2170    5.6670 C.2    28  ALA28       0.2616
     35  O         11.8940   31.2480    5.6740 O.2    28  ALA28      -0.2715
     36  CB        12.6390   28.6830    7.0060 C.3    28  ALA28       0.0334
     37  N          9.8850   30.2270    5.6900 N.am   29  ASP29      -0.1957
     38  CA         9.1460   31.4960    5.7320 C.3    29  ASP29       0.1840
     39  C          9.4140   32.1680    7.0700 C.2    29  ASP29       0.2622
     40  O          9.5490   33.3960    7.1530 O.2    29  ASP29      -0.2715
     41  CB         7.6360   31.2550    5.6160 C.3    29  ASP29       0.1450
     42  CG         7.2170   30.6890    4.2670 C.2    29  ASP29       0.3671
     43  OD1        7.9690   30.8220    3.2820 O.co2  29  ASP29      -0.2456
     44  OD2        6.0950   30.1490    4.1880 O.co2  29  ASP29      -0.2456
     45  N          9.4320   31.3490    8.1190 N.am   30  ASP30      -0.1971
     46  CA         9.4070   31.8140    9.4990 C.3    30  ASP30       0.1709
     47  C         10.6650   31.3250   10.2230 C.2    30  ASP30       0.2293
     48  O         11.2840   30.3380    9.8240 O.2    30  ASP30      -0.2864
     49  CB         8.1620   31.2630   10.2080 C.3    30  ASP30       0.1436
     50  CG         6.8980   31.3890    9.3640 C.2    30  ASP30       0.3671
     51  OD1        6.5000   32.5290    9.0670 O.co2  30  ASP30      -0.2456
     52  OD2        6.2740   30.3540    9.0380 O.co2  30  ASP30      -0.2456
     53  N         12.2180   29.4860   13.3270 N.3    32  VAL32      -0.1245
     54  CA        11.7260   28.4260   14.2120 C.3    32  VAL32       0.1561
     55  C         12.8590   27.9510   15.1010 C.2    32  VAL32       0.2260
     56  O         13.9020   27.5200   14.6060 O.2    32  VAL32      -0.2867
     57  CB        11.1760   27.2150   13.4250 C.3    32  VAL32       0.0252
     58  CG1       10.3890   26.2890   14.3520 C.3    32  VAL32       0.0019
     59  CG2       10.2840   27.6870   12.2840 C.3    32  VAL32       0.0019
     60  N          3.0480   24.5950   11.7700 N.3    47  ILE47      -0.1231
     61  CA         3.8630   24.7710   10.5810 C.3    47  ILE47       0.1692
     62  C          4.3220   23.4500   10.0120 C.2    47  ILE47       0.2593
     63  O          4.5720   22.4920   10.7460 O.2    47  ILE47      -0.2718
     64  CB         5.1000   25.6710   10.8140 C.3    47  ILE47       0.0266
     65  CG1        5.9840   25.1020   11.9290 C.3    47  ILE47       0.0019
     66  CG2        4.6770   27.1230   11.0620 C.3    47  ILE47       0.0020
     67  CD1        5.3250   25.0930   13.2840 C.3    47  ILE47       0.0001
     68  N          4.4170   23.4110    8.6920 N.am   48  GLY48      -0.1942
     69  CA         4.6730   22.1800    7.9680 C.3    48  GLY48       0.2014
     70  C          5.9530   22.2920    7.1710 C.2    48  GLY48       0.2639
     71  O          6.4180   23.3990    6.8860 O.2    48  GLY48      -0.2714
     72  N          6.6770   21.1820    7.1300 N.am   49  GLY49      -0.1939
     73  CA         7.8470   21.0530    6.2790 C.3    49  GLY49       0.2014
     74  C          7.9220   19.6390    5.7570 C.2    49  GLY49       0.2638
     75  O          6.8990   18.9700    5.6140 O.2    49  GLY49      -0.2714
     76  N          9.1190   19.2100    5.3770 N.am   50  ILE50      -0.1977
     77  CA         9.3120   17.8540    4.9090 C.3    50  ILE50       0.1596
     78  C          9.0170   16.9440    6.0940 C.2    50  ILE50       0.2287
     79  O          9.4340   17.2400    7.2170 O.2    50  ILE50      -0.2864
     80  CB        10.7620   17.6350    4.4320 C.3    50  ILE50       0.0276
     81  CG1       10.8710   17.8800    2.9270 C.3    50  ILE50       0.0022
     82  CG2       11.2230   16.2080    4.7380 C.3    50  ILE50       0.0022
     83  CD1       10.0690   16.9160    2.0980 C.3    50  ILE50       0.0001
     84  N          3.7220   18.3130    9.8820 N.3    53  PHE53      -0.1241
     85  CA         3.5350   19.5180   10.6880 C.3    53  PHE53       0.1605
     86  C          3.9770   19.3320   12.1360 C.2    53  PHE53       0.2264
     87  O          3.9980   18.2130   12.6620 O.2    53  PHE53      -0.2867
     88  CB         2.0780   19.9810   10.6460 C.3    53  PHE53       0.0534
     89  CG         1.6520   20.5470    9.3180 C.ar   53  PHE53      -0.0203
     90  CD1        1.3730   19.6970    8.2530 C.ar   53  PHE53      -0.0042
     91  CD2        1.4570   21.9130    9.1510 C.ar   53  PHE53      -0.0042
     92  CE1        0.9740   20.2050    7.0310 C.ar   53  PHE53      -0.0003
     93  CE2        1.0790   22.4270    7.9200 C.ar   53  PHE53      -0.0003
     94  CZ         0.7850   21.5640    6.8760 C.ar   53  PHE53      -0.0000
     95  N         11.2380   21.7200   16.6730 N.3    80  THR80      -0.1204
     96  CA        12.0370   21.6410   15.4620 C.3    80  THR80       0.1979
     97  C         13.3480   20.9120   15.7170 C.2    80  THR80       0.2460
     98  O         13.9420   21.0500   16.7870 O.2    80  THR80      -0.2732
     99  CB        12.3180   23.0460   14.8680 C.3    80  THR80       0.1783
    100  OG1       13.1350   22.9100   13.7040 O.3    80  THR80      -0.2211
    101  CG2       13.0290   23.9560   15.8860 C.3    80  THR80       0.0376
    102  N         13.7770   20.0780   14.7590 N.am   81  PRO81      -0.2717
    103  CA        15.0270   19.3520   14.9670 C.3    81  PRO81       0.1535
    104  C         16.2470   20.2640   14.8950 C.2    81  PRO81       0.2599
    105  O         17.3290   19.8930   15.3520 O.2    81  PRO81      -0.2715
    106  CB        15.0500   18.3270   13.8220 C.3    81  PRO81       0.0310
    107  CG        13.9700   18.7360   12.8860 C.3    81  PRO81       0.0237
    108  CD        12.9680   19.5130   13.6700 C.3    81  PRO81       0.0939
    109  N         16.0950   21.4240   14.2680 N.am   82  THR82      -0.1951
    110  CA        17.1720   22.4040   14.2760 C.3    82  THR82       0.1897
    111  C         16.6820   23.8360   14.1670 C.2    82  THR82       0.2313
    112  O         15.5770   24.0950   13.6820 O.2    82  THR82      -0.2863
    113  CB        18.2600   22.1100   13.2250 C.3    82  THR82       0.1794
    114  OG1       19.5440   22.4770   13.7510 O.3    82  THR82      -0.2208
    115  CG2       18.0130   22.8900   11.9470 C.3    82  THR82       0.0378
    116  N         16.2050   27.3620   12.8880 N.3    84  VAL84      -0.1245
    117  CA        16.3270   28.0340   11.6030 C.3    84  VAL84       0.1561
    118  C         15.9470   29.5020   11.6780 C.2    84  VAL84       0.2260
    119  O         14.9890   29.8750   12.3670 O.2    84  VAL84      -0.2867
    120  CB        15.5300   27.3290   10.4850 C.3    84  VAL84       0.0252
    121  CG1       15.9810   25.8680   10.3410 C.3    84  VAL84       0.0019
    122  CG2       14.0350   27.4030   10.7460 C.3    84  VAL84       0.0019
@<TRIPOS>BOND
     1    83    81    1
     2    29    28    1
     3    29    30    1
     4    81    80    1
     5    43    42   ar
     6    31    30    2
     7    30    32   am
     8    44    42   ar
     9    42    41    1
    10    80    82    1
    11    80    77    1
    12    32    33    1
    13    26    25   ar
    14    22    23    2
    15    22    21    1
    16    77    76    1
    17    77    78    1
    18    76    74   am
    19    75    74    2
    20    41    38    1
    21    34    35    2
    22    34    37   am
    23    34    33    1
    24    37    38    1
    25    33    36    1
    26     1     2    1
    27    38    39    1
    28    74    73    1
    29    21    20    1
    30    21    24    1
    31    25    27   ar
    32    25    24    1
    33    78    79    2
    34     2     3    1
    35     2     5    1
    36    73    72    1
    37     3     4    2
    38    94    92   ar
    39    94    93   ar
    40    71    70    2
    41     6     5    1
    42     6     7    1
    43    92    90   ar
    44    39    40    2
    45    39    45   am
    46    72    70   am
    47    70    69    1
    48     8     7    1
    49     8     9    2
    50    93    91   ar
    51    69    68    1
    52    18    17    1
    53    11     9    1
    54    45    46    1
    55    19    17    1
    56    90    89   ar
    57    17    16    1
    58     9    10    1
    59    68    62   am
    60    52    50   ar
    61    51    50   ar
    62    91    89   ar
    63    89    88    1
    64    50    49    1
    65    14    15    2
    66    14    13    1
    67    46    49    1
    68    46    47    1
    69    16    13    1
    70    48    47    2
    71    84    85    1
    72    62    61    1
    73    62    63    2
    74    13    12    1
    75   121   120    1
    76   120   122    1
    77   120   117    1
    78    61    64    1
    79    61    60    1
    80    88    85    1
    81    85    86    1
    82    64    66    1
    83    64    65    1
    84   117   118    1
    85   117   116    1
    86   118   119    2
    87    65    67    1
    88   115   113    1
    89    86    87    2
    90    59    57    1
    91   107   108    1
    92   107   106    1
    93   113   114    1
    94   113   110    1
    95    53    54    1
    96    57    54    1
    97    57    58    1
    98   108   102    1
    99   112   111    2
   100   100    99    1
   101   106   103    1
   102   111   110    1
   103    54    55    1
   104   109   110    1
   105   109   104   am
   106    56    55    2
   107   102   103    1
   108   102    97   am
   109    99    96    1
   110    99   101    1
   111   104   103    1
   112   104   105    2
   113    96    97    1
   114    96    95    1
   115    97    98    2
