@<TRIPOS>MOLECULE
tmp/5ahcB00.pdb
 120 112 0 0 0
SMALL
GASTEIGER

@<TRIPOS>ATOM
      1  N          9.0180   34.3950   -1.2140 N.3     8  ARG8       -0.1245
      2  CA         9.7400   33.1470   -1.4360 C.3     8  ARG8        0.1563
      3  C         10.6390   33.2200   -2.6690 C.2     8  ARG8        0.2260
      4  O         10.2010   33.6730   -3.7220 O.2     8  ARG8       -0.2867
      5  CB         8.7610   31.9860   -1.6030 C.3     8  ARG8        0.0307
      6  CG         8.0110   31.6320   -0.3350 C.3     8  ARG8        0.0489
      7  CD         6.9380   30.5870   -0.5970 C.3     8  ARG8        0.2205
      8  NE         6.3110   30.1640    0.6490 N.pl3   8  ARG8       -0.0865
      9  CZ         5.1890   29.4610    0.7250 C.cat   8  ARG8        0.5346
     10  NH1        4.5600   29.0920   -0.3860 N.pl3   8  ARG8        0.1354
     11  NH2        4.6960   29.1270    1.9120 N.pl3   8  ARG8        0.1354
     12  N         12.1240   26.2180   -4.9970 N.3    23  LEU23      -0.1245
     13  CA        12.5270   27.1740   -3.9890 C.3    23  LEU23       0.1561
     14  C         14.0370   27.0770   -3.8070 C.2    23  LEU23       0.2260
     15  O         14.5550   25.9870   -3.5270 O.2    23  LEU23      -0.2867
     16  CB        11.8050   26.7990   -2.6970 C.3    23  LEU23       0.0270
     17  CG        11.9110   27.6470   -1.4450 C.3    23  LEU23       0.0019
     18  CD1       11.2100   28.9860   -1.6840 C.3    23  LEU23       0.0001
     19  CD2       11.2450   26.8850   -0.3030 C.3    23  LEU23       0.0001
     20  N         16.8750   27.1520   -1.5090 N.3    25  ASP25      -0.1239
     21  CA        16.7510   26.8290   -0.0960 C.3    25  ASP25       0.1674
     22  C         18.1170   26.5620    0.5390 C.2    25  ASP25       0.2266
     23  O         18.6110   25.4240    0.5460 O.2    25  ASP25      -0.2867
     24  CB        15.8380   25.6170    0.0730 C.3    25  ASP25       0.1410
     25  CG        15.5080   25.3370    1.5160 C.2    25  ASP25       0.3668
     26  OD1       16.0250   26.0670    2.3920 O.co2  25  ASP25      -0.2456
     27  OD2       14.5960   24.5230    1.7530 O.co2  25  ASP25      -0.2456
     28  N         18.7790   26.2420    3.5460 N.3    27  GLY27      -0.1210
     29  CA        18.6360   25.3760    4.7140 C.3    27  GLY27       0.1956
     30  C         18.5480   23.9020    4.3540 C.2    27  GLY27       0.2612
     31  O         18.4080   23.0490    5.2340 O.2    27  GLY27      -0.2717
     32  N         18.5650   23.6090    3.0560 N.am   28  ALA28      -0.1965
     33  CA        18.4790   22.2360    2.5720 C.3    28  ALA28       0.1728
     34  C         19.8460   21.7730    2.0860 C.2    28  ALA28       0.2616
     35  O         20.4640   22.4220    1.2340 O.2    28  ALA28      -0.2715
     36  CB        17.4610   22.1480    1.4390 C.3    28  ALA28       0.0334
     37  N         20.3410   20.6640    2.6280 N.am   29  ASP29      -0.1957
     38  CA        21.6440   20.1640    2.1620 C.3    29  ASP29       0.1840
     39  C         21.4790   19.6870    0.7190 C.2    29  ASP29       0.2622
     40  O         22.4190   19.7490   -0.0890 O.2    29  ASP29      -0.2715
     41  CB        22.1520   18.9790    3.0060 C.3    29  ASP29       0.1450
     42  CG        22.3780   19.3220    4.4710 C.2    29  ASP29       0.3671
     43  OD1       22.6430   20.4930    4.8220 O.co2  29  ASP29      -0.2456
     44  OD2       22.4010   18.3570    5.2750 O.co2  29  ASP29      -0.2456
     45  N         20.3450   19.0300    0.4790 N.am   30  ASP30      -0.1971
     46  CA        20.0840   18.3160   -0.7540 C.3    30  ASP30       0.1709
     47  C         18.8910   18.9120   -1.5010 C.2    30  ASP30       0.2293
     48  O         18.1130   19.6960   -0.9470 O.2    30  ASP30      -0.2864
     49  CB        19.8220   16.8360   -0.4490 C.3    30  ASP30       0.1436
     50  CG        20.9370   16.1940    0.3780 C.2    30  ASP30       0.3671
     51  OD1       22.1260   16.4290    0.0750 O.co2  30  ASP30      -0.2456
     52  OD2       20.6180   15.4110    1.2960 O.co2  30  ASP30      -0.2456
     53  N         15.4060   18.2820   -3.4270 N.3    32  VAL32      -0.1245
     54  CA        14.3020   17.3410   -3.3440 C.3    32  VAL32       0.1561
     55  C         13.1260   17.8290   -4.1750 C.2    32  VAL32       0.2260
     56  O         12.6930   18.9640   -4.0270 O.2    32  VAL32      -0.2867
     57  CB        13.8370   17.1350   -1.8870 C.3    32  VAL32       0.0252
     58  CG1       13.2050   18.3930   -1.3470 C.3    32  VAL32       0.0019
     59  CG2       12.8560   15.9550   -1.8050 C.3    32  VAL32       0.0019
     60  N         17.2520    6.8450    0.1440 N.3    45  LYS45      -0.1245
     61  CA        17.7150    7.8260    1.1070 C.3    45  LYS45       0.1561
     62  C         16.5480    8.2290    1.9960 C.2    45  LYS45       0.2260
     63  O         15.3950    8.2610    1.5510 O.2    45  LYS45      -0.2867
     64  CB        18.2990    9.0610    0.4160 C.3    45  LYS45       0.0271
     65  CG        19.2470    9.8440    1.3200 C.3    45  LYS45       0.0035
     66  CD        19.8000   11.0680    0.6210 C.3    45  LYS45       0.0206
     67  CE        20.4500   12.0170    1.6080 C.3    45  LYS45       0.1093
     68  NZ        21.7430   11.4770    2.0950 N.3    45  LYS45      -0.1314
     69  N         15.4330   11.4000    4.3000 N.3    47  ILE47      -0.1231
     70  CA        15.7530   12.7740    4.6380 C.3    47  ILE47       0.1692
     71  C         14.7770   13.3190    5.6580 C.2    47  ILE47       0.2593
     72  O         13.5960   12.9550    5.6670 O.2    47  ILE47      -0.2718
     73  CB        15.8170   13.6980    3.4080 C.3    47  ILE47       0.0266
     74  CG1       14.5030   13.6740    2.6320 C.3    47  ILE47       0.0019
     75  CG2       16.9810   13.3110    2.5000 C.3    47  ILE47       0.0020
     76  CD1       14.3710   14.8090    1.6220 C.3    47  ILE47       0.0001
     77  N         15.2990   14.1430    6.5520 N.am   48  GLY48      -0.1942
     78  CA        14.5110   14.6630    7.6580 C.3    48  GLY48       0.2014
     79  C         14.3110   16.1530    7.5250 C.2    48  GLY48       0.2639
     80  O         15.2560   16.9100    7.2990 O.2    48  GLY48      -0.2714
     81  N         13.1300   16.5930    7.9270 N.am   49  GLY49      -0.1939
     82  CA        12.8360   18.0030    7.9520 C.3    49  GLY49       0.2014
     83  C         12.1530   18.3800    9.2430 C.2    49  GLY49       0.2638
     84  O         12.1620   17.6120   10.2160 O.2    49  GLY49      -0.2714
     85  N         11.3410   19.4230    9.1610 N.am   50  ILE50      -0.1977
     86  CA        10.6580   19.9320   10.3390 C.3    50  ILE50       0.1596
     87  C          9.7190   18.9140   10.9800 C.2    50  ILE50       0.2287
     88  O          9.8020   18.6720   12.1820 O.2    50  ILE50      -0.2864
     89  CB         9.9390   21.2670   10.0510 C.3    50  ILE50       0.0276
     90  CG1       10.4620   22.3500   10.9960 C.3    50  ILE50       0.0022
     91  CG2        8.4310   21.1120   10.2050 C.3    50  ILE50       0.0022
     92  CD1       11.1930   21.7990   12.1840 C.3    50  ILE50       0.0001
     93  N          7.8370   15.4960   -1.0060 N.3    80  THR80      -0.1204
     94  CA         8.0790   16.8110   -0.4260 C.3    80  THR80       0.1979
     95  C          6.8980   17.7370   -0.6960 C.2    80  THR80       0.2460
     96  O          6.2850   17.6760   -1.7650 O.2    80  THR80      -0.2732
     97  CB         9.3620   17.4420   -1.0030 C.3    80  THR80       0.1783
     98  OG1        9.5390   18.7440   -0.4450 O.3    80  THR80      -0.2211
     99  CG2        9.2700   17.5520   -2.5230 C.3    80  THR80       0.0376
    100  N          6.6570   18.6930    0.2100 N.am   81  PRO81      -0.2717
    101  CA         5.5700   19.6530   -0.0160 C.3    81  PRO81       0.1535
    102  C          5.8380   20.6030   -1.1790 C.2    81  PRO81       0.2599
    103  O          4.9140   21.2280   -1.6930 O.2    81  PRO81      -0.2715
    104  CB         5.5090   20.4430    1.2960 C.3    81  PRO81       0.0310
    105  CG         6.1040   19.5310    2.3030 C.3    81  PRO81       0.0237
    106  CD         7.1440   18.7160    1.5990 C.3    81  PRO81       0.0939
    107  N          7.1120   20.8780   -1.4320 N.am   82  THR82      -0.1951
    108  CA         7.4970   21.8020   -2.4940 C.3    82  THR82       0.1897
    109  C          8.8590   21.3890   -3.0320 C.2    82  THR82       0.2313
    110  O          9.6470   20.7740   -2.3270 O.2    82  THR82      -0.2863
    111  CB         7.5930   23.2580   -1.9900 C.3    82  THR82       0.1794
    112  OG1        8.7410   23.4000   -1.1540 O.3    82  THR82      -0.2208
    113  CG2        6.3550   23.6500   -1.1950 C.3    82  THR82       0.0378
    114  N         12.5130   21.8300   -3.7770 N.3    84  VAL84      -0.1245
    115  CA        13.5530   22.6260   -3.1350 C.3    84  VAL84       0.1561
    116  C         14.9180   22.3650   -3.7530 C.2    84  VAL84       0.2260
    117  O         15.2840   21.2140   -4.0130 O.2    84  VAL84      -0.2867
    118  CB        13.6410   22.4060   -1.6070 C.3    84  VAL84       0.0252
    119  CG1       12.3490   22.8200   -0.9270 C.3    84  VAL84       0.0019
    120  CG2       13.9710   20.9880   -1.2880 C.3    84  VAL84       0.0019
@<TRIPOS>BOND
     1    12    13    1
     2    55    56    2
     3    55    54    1
     4   117   116    2
     5    13    14    1
     6    13    16    1
     7    14    15    2
     8   114   115    1
     9   116   115    1
    10     4     3    2
    11    53    54    1
    12    54    57    1
    13   115   118    1
    14   109   108    1
    15   109   110    2
    16    16    17    1
    17     3     2    1
    18    99    97    1
    19   108   111    1
    20   108   107    1
    21   111   113    1
    22   111   112    1
    23    57    59    1
    24    57    58    1
    25    96    95    2
    26   103   102    2
    27    18    17    1
    28   118   120    1
    29   118   119    1
    30     5     2    1
    31     5     6    1
    32    20    21    1
    33    47    48    2
    34    47    46    1
    35    17    19    1
    36     2     1    1
    37   107   102   am
    38   102   101    1
    39    93    94    1
    40    97    98    1
    41    97    94    1
    42    46    49    1
    43    46    45    1
    44    95    94    1
    45    95   100   am
    46     7     6    1
    47     7     8    1
    48    49    50    1
    49    10     9    1
    50    21    24    1
    51    21    22    1
    52    40    39    2
    53   101   100    1
    54   101   104    1
    55    24    25    1
    56    51    50   ar
    57    60    61    1
    58   100   106    1
    59    50    52   ar
    60    64    61    1
    61    64    65    1
    62    45    39   am
    63    22    23    2
    64    66    65    1
    65    66    67    1
    66     8     9    2
    67    39    38    1
    68     9    11    1
    69    61    62    1
    70    35    34    2
    71   104   105    1
    72    36    33    1
    73    25    27   ar
    74    25    26   ar
    75    63    62    2
    76   106   105    1
    77    67    68    1
    78    76    74    1
    79    34    33    1
    80    34    37   am
    81    38    37    1
    82    38    41    1
    83    75    73    1
    84    33    32    1
    85    74    73    1
    86    41    42    1
    87    32    30   am
    88    73    70    1
    89    28    29    1
    90    69    70    1
    91    30    29    1
    92    30    31    2
    93    42    43   ar
    94    42    44   ar
    95    70    71    1
    96    71    72    2
    97    71    77   am
    98    77    78    1
    99    80    79    2
   100    79    78    1
   101    79    81   am
   102    81    82    1
   103    82    83    1
   104    85    83   am
   105    85    86    1
   106    83    84    2
   107    89    91    1
   108    89    86    1
   109    89    90    1
   110    86    87    1
   111    87    88    2
   112    90    92    1
