@<TRIPOS>MOLECULE
tmp/5ahgA01.pdb
 129 131 0 0 0
SMALL
GASTEIGER

@<TRIPOS>ATOM
      1  N        152.6260   -9.5720   86.0520 N.3    50  TRP50      -0.1241
      2  CA       151.7190   -9.8700   84.9420 C.3    50  TRP50       0.1605
      3  C        152.2960   -9.3850   83.6300 C.2    50  TRP50       0.2264
      4  O        151.5690   -9.2410   82.6480 O.2    50  TRP50      -0.2867
      5  CB       150.3760   -9.1840   85.1790 C.3    50  TRP50       0.0550
      6  CG       149.5720   -9.7630   86.2900 C.ar   50  TRP50       0.0003
      7  CD1      149.9380  -10.7540   87.1550 C.ar   50  TRP50       0.0946
      8  CD2      148.2400   -9.3910   86.6470 C.ar   50  TRP50       0.0152
      9  NE1      148.9130  -11.0160   88.0370 N.ar   50  TRP50      -0.2442
     10  CE2      147.8590  -10.1910   87.7400 C.ar   50  TRP50       0.0810
     11  CE3      147.3340   -8.4510   86.1490 C.ar   50  TRP50       0.0012
     12  CZ2      146.6150  -10.0740   88.3470 C.ar   50  TRP50       0.0191
     13  CZ3      146.0980   -8.3410   86.7480 C.ar   50  TRP50       0.0001
     14  CH2      145.7500   -9.1450   87.8340 C.ar   50  TRP50       0.0015
     15  N        131.2620   -2.3430   95.8520 N.3   192  ASP192     -0.1225
     16  CA       132.7210   -2.3930   95.7490 C.3   192  ASP192      0.1805
     17  C        133.1390   -2.0400   94.3480 C.2   192  ASP192      0.2598
     18  O        132.3220   -2.0460   93.4260 O.2   192  ASP192     -0.2718
     19  CB       133.1920   -3.8170   96.0740 C.3   192  ASP192      0.1424
     20  CG       134.6820   -3.9310   96.3960 C.2   192  ASP192      0.3668
     21  OD1      135.3840   -2.9010   96.5490 O.co2 192  ASP192     -0.2456
     22  OD2      135.1490   -5.0990   96.4970 O.co2 192  ASP192     -0.2456
     23  N        134.4040   -1.6990   94.1920 N.am  193  ALA193     -0.1966
     24  CA       135.0480   -1.6860   92.9100 C.3   193  ALA193      0.1728
     25  C        135.2210   -3.1040   92.4350 C.2   193  ALA193      0.2616
     26  O        135.1610   -4.0660   93.2220 O.2   193  ALA193     -0.2715
     27  CB       136.3810   -0.9750   92.9890 C.3   193  ALA193      0.0334
     28  N        135.4730   -3.2390   91.1440 N.am  194  CYS194     -0.1954
     29  CA       135.7720   -4.5490   90.5970 C.3   194  CYS194      0.1843
     30  C        136.6520   -4.4090   89.3740 C.2   194  CYS194      0.2625
     31  O        137.1090   -3.3180   89.0660 O.2   194  CYS194     -0.2714
     32  CB       134.4770   -5.3030   90.3320 C.3   194  CYS194      0.0997
     33  SG       134.6380   -7.1480   90.2150 S.3   194  CYS194     -0.0797
     34  N        136.9130   -5.4990   88.6660 N.am  195  GLU195     -0.1963
     35  CA       137.9120   -5.5080   87.6000 C.3   195  GLU195      0.1733
     36  C        137.6150   -4.4730   86.5260 C.2   195  GLU195      0.2616
     37  O        136.5540   -4.4990   85.9120 O.2   195  GLU195     -0.2715
     38  CB       137.9710   -6.8870   86.9500 C.3   195  GLU195      0.0429
     39  CG       139.1060   -7.0350   85.9600 C.3   195  GLU195      0.1163
     40  CD       139.1480   -8.4000   85.3120 C.2   195  GLU195      0.3649
     41  OE1      139.0910   -9.4110   86.0400 O.co2 195  GLU195     -0.2457
     42  OE2      139.2320   -8.4530   84.0700 O.co2 195  GLU195     -0.2457
     43  N        138.5720   -3.5800   86.2970 N.am  196  GLY196     -0.1955
     44  CA       138.4370   -2.4770   85.3660 C.3   196  GLY196      0.1869
     45  C        138.2040   -1.1180   86.0240 C.2   196  GLY196      0.2309
     46  O        138.3430   -0.0810   85.3700 O.2   196  GLY196     -0.2863
     47  N        140.0000   -0.1610   88.7790 N.3   198  SER198     -0.1217
     48  CA       141.1990    0.2860   89.4550 C.3   198  SER198      0.1889
     49  C        141.8160    1.4640   88.7010 C.2   198  SER198      0.2288
     50  O        141.6360    1.6180   87.4850 O.2   198  SER198     -0.2866
     51  CB       142.1600   -0.8630   89.7450 C.3   198  SER198      0.2089
     52  OG       142.7890   -1.2650   88.5840 O.3   198  SER198     -0.2183
     53  N        141.3900    3.8780   93.4110 N.3   218  VAL218     -0.1231
     54  CA       141.0380    2.4570   93.5020 C.3   218  VAL218      0.1692
     55  C        142.3120    1.6580   93.2660 C.2   218  VAL218      0.2593
     56  O        142.8870    1.7210   92.2030 O.2   218  VAL218     -0.2718
     57  CB       139.9690    2.0900   92.4650 C.3   218  VAL218      0.0266
     58  CG1      139.6650    0.5970   92.5710 C.3   218  VAL218      0.0020
     59  CG2      138.7040    2.8970   92.6220 C.3   218  VAL218      0.0020
     60  N        142.7690    0.9370   94.2780 N.am  219  SER219     -0.1938
     61  CA       144.0580    0.2670   94.2330 C.3   219  SER219      0.2055
     62  C        143.9410   -1.2440   94.1640 C.2   219  SER219      0.2643
     63  O        144.3740   -1.8240   93.1800 O.2   219  SER219     -0.2714
     64  CB       144.9340    0.7180   95.4020 C.3   219  SER219      0.2130
     65  OG       146.1890    0.0770   95.3750 O.3   219  SER219     -0.2179
     66  N        143.3680   -1.8890   95.1710 N.am  220  TRP220     -0.1959
     67  CA       143.3030   -3.3450   95.1340 C.3   220  TRP220      0.1771
     68  C        142.2350   -3.8600   96.0490 C.2   220  TRP220      0.2620
     69  O        141.7800   -3.1830   96.9670 O.2   220  TRP220     -0.2715
     70  CB       144.6600   -3.9810   95.4570 C.3   220  TRP220      0.0590
     71  CG       145.1610   -3.6910   96.8610 C.ar  220  TRP220      0.0006
     72  CD1      145.8750   -2.6070   97.2550 C.ar  220  TRP220      0.0946
     73  CD2      144.9650   -4.4970   98.0310 C.ar  220  TRP220      0.0152
     74  NE1      146.1690   -2.7010   98.5940 N.ar  220  TRP220     -0.2442
     75  CE2      145.6220   -3.8570   99.0940 C.ar  220  TRP220      0.0810
     76  CE3      144.3330   -5.7240   98.2690 C.ar  220  TRP220      0.0012
     77  CZ2      145.6350   -4.3830  100.3870 C.ar  220  TRP220      0.0191
     78  CZ3      144.3700   -6.2480   99.5340 C.ar  220  TRP220      0.0001
     79  CH2      145.0050   -5.5740  100.5780 C.ar  220  TRP220      0.0015
     80  N        141.8600   -5.1050   95.7980 N.am  221  GLY221     -0.1940
     81  CA       140.9220   -5.7900   96.6360 C.3   221  GLY221      0.2014
     82  C        141.1590   -7.2800   96.4900 C.2   221  GLY221      0.2639
     83  O        141.9680   -7.7110   95.6790 O.2   221  GLY221     -0.2714
     84  N        140.3940   -8.0610   97.2280 N.am  222  GLU222     -0.1963
     85  CA       140.4260   -9.4970   97.1330 C.3   222  GLU222      0.1733
     86  C        139.0330   -9.9520   96.7010 C.2   222  GLU222      0.2617
     87  O        138.0760   -9.9190   97.4810 O.2   222  GLU222     -0.2715
     88  CB       140.8900  -10.1100   98.4350 C.3   222  GLU222      0.0429
     89  CG       142.3630   -9.8630   98.6610 C.3   222  GLU222      0.1163
     90  CD       142.8010  -10.3400  100.0160 C.2   222  GLU222      0.3649
     91  OE1      142.6160   -9.5920  100.9640 O.co2 222  GLU222     -0.2457
     92  OE2      143.2810  -11.4880  100.1530 O.co2 222  GLU222     -0.2457
     93  N        138.9110  -10.3010   95.4300 N.am  223  GLY223     -0.1940
     94  CA       137.6090  -10.4760   94.8150 C.3   223  GLY223      0.2014
     95  C        136.8910   -9.1440   94.6870 C.2   223  GLY223      0.2639
     96  O        137.5070   -8.0810   94.7040 O.2   223  GLY223     -0.2714
     97  N        135.5780   -9.1920   94.5860 N.am  224  CYS224     -0.1967
     98  CA       134.7760   -7.9770   94.5580 C.3   224  CYS224      0.1712
     99  C        133.5480   -8.1760   95.4080 C.2   224  CYS224      0.2296
    100  O        132.8480   -9.1740   95.2380 O.2   224  CYS224     -0.2864
    101  CB       134.3180   -7.6250   93.1320 C.3   224  CYS224      0.0983
    102  SG       135.6150   -7.6950   91.9250 S.3   224  CYS224     -0.0798
    103  N        137.5850   -2.7760   99.8790 N.3   231  GLY231     -0.1210
    104  CA       138.4610   -2.2620   98.8560 C.3   231  GLY231      0.1956
    105  C        139.5200   -1.3710   99.4630 C.2   231  GLY231      0.2612
    106  O        139.2720   -0.6790  100.4530 O.2   231  GLY231     -0.2717
    107  N        140.7110   -1.4300   98.8830 N.am  232  PHE232     -0.1962
    108  CA       141.8400   -0.6220   99.3180 C.3   232  PHE232      0.1771
    109  C        142.1550    0.4360   98.2900 C.2   232  PHE232      0.2619
    110  O        142.1340    0.1990   97.0850 O.2   232  PHE232     -0.2715
    111  CB       143.0510   -1.5170   99.6310 C.3   232  PHE232      0.0574
    112  CG       142.8790   -2.2820  100.9050 C.ar  232  PHE232     -0.0200
    113  CD1      142.0740   -3.4080  100.9650 C.ar  232  PHE232     -0.0042
    114  CD2      143.4330   -1.7980  102.0850 C.ar  232  PHE232     -0.0042
    115  CE1      141.8670   -4.0570  102.1800 C.ar  232  PHE232     -0.0003
    116  CE2      143.2410   -2.4470  103.2910 C.ar  232  PHE232     -0.0003
    117  CZ       142.4640   -3.5740  103.3370 C.ar  232  PHE232     -0.0000
    118  N        142.4560    1.6150   98.8110 N.am  233  TYR233     -0.1974
    119  CA       142.5920    2.8320   98.0490 C.3   233  TYR233      0.1639
    120  C        143.8970    3.5210   98.4020 C.2   233  TYR233      0.2290
    121  O        144.2890    3.6040   99.5530 O.2   233  TYR233     -0.2864
    122  CB       141.4110    3.7830   98.3580 C.3   233  TYR233      0.0560
    123  CG       140.0840    3.1800   97.9750 C.ar  233  TYR233     -0.0198
    124  CD1      139.4240    2.2930   98.8140 C.ar  233  TYR233     -0.0009
    125  CD2      139.5050    3.4530   96.7510 C.ar  233  TYR233     -0.0009
    126  CE1      138.2520    1.6940   98.4520 C.ar  233  TYR233      0.0417
    127  CE2      138.3260    2.8600   96.3850 C.ar  233  TYR233      0.0417
    128  CZ       137.6980    1.9850   97.2180 C.ar  233  TYR233      0.1957
    129  OH       136.5290    1.4050   96.8140 O.3   233  TYR233     -0.2866
@<TRIPOS>BOND
     1     4     3    2
     2     3     2    1
     3    42    40   ar
     4     2     5    1
     5     2     1    1
     6     5     6    1
     7    40    39    1
     8    40    41   ar
     9    44    45    1
    10    44    43    1
    11    46    45    2
    12    37    36    2
    13    39    38    1
    14    11     8   ar
    15    11    13   ar
    16     6     8   ar
    17     6     7   ar
    18    43    36   am
    19    36    35    1
    20     8    10   ar
    21    13    14   ar
    22    38    35    1
    23     7     9   ar
    24    50    49    2
    25    35    34    1
    26    10     9   ar
    27    10    12   ar
    28    14    12   ar
    29    52    51    1
    30    34    30   am
    31    49    48    1
    32    47    48    1
    33    31    30    2
    34    30    29    1
    35    48    51    1
    36    33    32    1
    37    33   102    1
    38    32    29    1
    39    29    28    1
    40    28    25   am
    41   102   101    1
    42    56    55    2
    43    25    24    1
    44    25    26    2
    45    57    58    1
    46    57    59    1
    47    57    54    1
    48    24    27    1
    49    24    23    1
    50   101    98    1
    51    63    62    2
    52    55    54    1
    53    55    60   am
    54    53    54    1
    55    18    17    2
    56    62    61    1
    57    62    66   am
    58    23    17   am
    59    61    60    1
    60    61    64    1
    61    17    16    1
    62    98    97    1
    63    98    99    1
    64    97    95   am
    65    95    96    2
    66    95    94    1
    67    94    93    1
    68    67    66    1
    69    67    70    1
    70    67    68    1
    71   100    99    2
    72    65    64    1
    73    93    86   am
    74    70    71    1
    75    83    82    2
    76    16    15    1
    77    16    19    1
    78    80    68   am
    79    80    81    1
    80    68    69    2
    81    19    20    1
    82   127   125   ar
    83   127   128   ar
    84    20    22   ar
    85    20    21   ar
    86    82    81    1
    87    82    84   am
    88    86    85    1
    89    86    87    2
    90   125   123   ar
    91   129   128    1
    92    71    72   ar
    93    71    73   ar
    94   110   109    2
    95    85    84    1
    96    85    88    1
    97   128   126   ar
    98    72    74   ar
    99   123   122    1
   100   123   124   ar
   101    73    76   ar
   102    73    75   ar
   103   119   122    1
   104   119   120    1
   105   119   118    1
   106    76    78   ar
   107   109   118   am
   108   109   108    1
   109   120   121    2
   110    88    89    1
   111   126   124   ar
   112    74    75   ar
   113    89    90    1
   114   104   105    1
   115   104   103    1
   116   107   108    1
   117   107   105   am
   118    75    77   ar
   119   108   111    1
   120   105   106    2
   121    78    79   ar
   122   111   112    1
   123    90    92   ar
   124    90    91   ar
   125    77    79   ar
   126   112   113   ar
   127   112   114   ar
   128   113   115   ar
   129   114   116   ar
   130   115   117   ar
   131   116   117   ar
