@<TRIPOS>MOLECULE
tmp/5ahiA00.pdb
 104 94 0 0 0
SMALL
GASTEIGER

@<TRIPOS>ATOM
      1  N          9.9280   25.8390   -7.3540 N.3    39  HIS39      -0.1241
      2  CA         8.6680   25.7810   -6.6310 C.3    39  HIS39       0.1621
      3  C          7.6970   26.8410   -7.1490 C.2    39  HIS39       0.2264
      4  O          8.0540   28.0230   -7.2590 O.2    39  HIS39      -0.2867
      5  CB         8.9390   25.9670   -5.1450 C.3    39  HIS39       0.0745
      6  CG         7.7160   25.9420   -4.2810 C.ar   39  HIS39       0.0817
      7  ND1        7.2600   24.7920   -3.6770 N.ar   39  HIS39      -0.2268
      8  CD2        6.8950   26.9390   -3.8690 C.ar   39  HIS39       0.1154
      9  CE1        6.1920   25.0770   -2.9470 C.ar   39  HIS39       0.1986
     10  NE2        5.9500   26.3670   -3.0450 N.ar   39  HIS39      -0.2212
     11  N          3.6560   28.3980   -6.7550 N.3    41  VAL41      -0.1245
     12  CA         2.3130   28.4400   -6.1560 C.3    41  VAL41       0.1561
     13  C          1.3170   28.9480   -7.1800 C.2    41  VAL41       0.2260
     14  O          1.4400   30.0790   -7.6760 O.2    41  VAL41      -0.2867
     15  CB         2.2370   29.3410   -4.9050 C.3    41  VAL41       0.0252
     16  CG1        0.8020   29.3670   -4.3630 C.3    41  VAL41       0.0019
     17  CG2        3.2010   28.8640   -3.8290 C.3    41  VAL41       0.0019
     18  N         -5.5120   28.0650   -6.5480 N.3    46  ALA46      -0.1245
     19  CA        -5.7610   28.0260   -5.1110 C.3    46  ALA46       0.1562
     20  C         -7.0910   28.6960   -4.8090 C.2    46  ALA46       0.2260
     21  O         -7.8140   28.2790   -3.9070 O.2    46  ALA46      -0.2867
     22  CB        -4.6310   28.7020   -4.3410 C.3    46  ALA46       0.0290
     23  N          1.9820   23.6280   -6.0860 N.3    71  GLY71      -0.1210
     24  CA         0.8320   23.5640   -5.2070 C.3    71  GLY71       0.1956
     25  C         -0.0980   24.7390   -5.4810 C.2    71  GLY71       0.2612
     26  O          0.1640   25.5580   -6.3720 O.2    71  GLY71      -0.2717
     27  N         -1.1830   24.8170   -4.7170 N.am   72  GLY72      -0.1942
     28  CA        -2.1950   25.8420   -4.9090 C.3    72  GLY72       0.2014
     29  C         -3.5880   25.2430   -5.0390 C.2    72  GLY72       0.2639
     30  O         -4.0370   24.9030   -6.1390 O.2    72  GLY72      -0.2714
     31  N         -4.2650   25.0940   -3.9060 N.am   73  GLY73      -0.1939
     32  CA        -5.6250   24.5940   -3.8820 C.3    73  GLY73       0.2014
     33  C         -5.8010   23.1980   -4.4570 C.2    73  GLY73       0.2639
     34  O         -6.7800   22.9250   -5.1400 O.2    73  GLY73      -0.2714
     35  N         -4.8480   22.3110   -4.2010 N.am   74  VAL74      -0.1963
     36  CA        -5.0200   20.9190   -4.5860 C.3    74  VAL74       0.1727
     37  C         -5.9690   20.2250   -3.6080 C.2    74  VAL74       0.2616
     38  O         -5.6710   20.1160   -2.4130 O.2    74  VAL74      -0.2715
     39  CB        -3.6800   20.1610   -4.6170 C.3    74  VAL74       0.0290
     40  CG1       -3.9300   18.6830   -4.8550 C.3    74  VAL74       0.0023
     41  CG2       -2.7410   20.7600   -5.6700 C.3    74  VAL74       0.0023
     42  N         -7.1020   19.7450   -4.1120 N.am   75  ARG75      -0.1977
     43  CA        -8.1390   19.2040   -3.2420 C.3    75  ARG75       0.1597
     44  C         -8.4460   17.7590   -3.5540 C.2    75  ARG75       0.2287
     45  O         -8.8480   17.0040   -2.6730 O.2    75  ARG75      -0.2864
     46  CB        -9.4280   20.0240   -3.3580 C.3    75  ARG75       0.0334
     47  CG        -9.2190   21.5320   -3.3230 C.3    75  ARG75       0.0492
     48  CD        -9.6930   22.1750   -2.0180 C.3    75  ARG75       0.2205
     49  NE        -9.4600   23.6250   -2.0230 N.pl3  75  ARG75      -0.0865
     50  CZ        -8.3330   24.2140   -1.6200 C.cat  75  ARG75       0.5346
     51  NH1       -7.3240   23.4830   -1.1660 N.pl3  75  ARG75       0.1354
     52  NH2       -8.2100   25.5400   -1.6660 N.pl3  75  ARG75       0.1354
     53  N          2.3490   19.7930   -4.3220 N.3    92  VAL92      -0.1245
     54  CA         2.3880   20.3120   -2.9760 C.3    92  VAL92       0.1561
     55  C          0.9670   20.4270   -2.4420 C.2    92  VAL92       0.2260
     56  O          0.1110   21.0850   -3.0300 O.2    92  VAL92      -0.2867
     57  CB         3.1090   21.6750   -2.9220 C.3    92  VAL92       0.0252
     58  CG1        3.1010   22.2140   -1.5170 C.3    92  VAL92       0.0019
     59  CG2        4.5670   21.5160   -3.4200 C.3    92  VAL92       0.0019
     60  N         -1.4360   21.3800    0.8290 N.3    94  GLY94      -0.1210
     61  CA        -1.5080   22.1360    2.0660 C.3    94  GLY94       0.1956
     62  C         -2.7620   21.8160    2.8600 C.2    94  GLY94       0.2612
     63  O         -2.7740   20.8900    3.6560 O.2    94  GLY94      -0.2717
     64  N         -3.8330   22.5680    2.6390 N.am   95  SER95      -0.1952
     65  CA        -4.9860   22.4500    3.5150 C.3    95  SER95       0.1924
     66  C         -5.5880   21.0360    3.4960 C.2    95  SER95       0.2314
     67  O         -6.0390   20.5500    4.5230 O.2    95  SER95      -0.2863
     68  CB        -6.0560   23.4890    3.1460 C.3    95  SER95       0.2116
     69  OG        -6.6510   23.2280    1.8930 O.3    95  SER95      -0.2180
     70  N          2.7000   20.6130    2.7850 N.3   119  ALA119     -0.1245
     71  CA         3.0630   21.9680    3.1710 C.3   119  ALA119      0.1562
     72  C          2.2850   22.3550    4.4040 C.2   119  ALA119      0.2260
     73  O          1.0610   22.4370    4.3800 O.2   119  ALA119     -0.2867
     74  CB         2.7920   22.9270    2.0570 C.3   119  ALA119      0.0290
     75  N          1.7020   25.1060    7.3960 N.3   121  ASP121     -0.1239
     76  CA         1.8510   26.3880    8.0670 C.3   121  ASP121      0.1674
     77  C          1.8290   26.1590    9.5640 C.2   121  ASP121      0.2266
     78  O          0.9270   25.4950   10.0820 O.2   121  ASP121     -0.2867
     79  CB         0.7310   27.3580    7.6810 C.3   121  ASP121      0.1410
     80  CG         0.8250   27.8280    6.2540 C.2   121  ASP121      0.3668
     81  OD1        1.8420   27.5570    5.5820 O.co2 121  ASP121     -0.2456
     82  OD2       -0.1220   28.4970    5.8110 O.co2 121  ASP121     -0.2456
     83  N         -4.2100   25.9680    8.4140 N.3   134  VAL134     -0.1245
     84  CA        -4.3300   25.7040    6.9810 C.3   134  VAL134      0.1561
     85  C         -3.9590   26.9420    6.1640 C.2   134  VAL134      0.2260
     86  O         -3.7740   26.8590    4.9460 O.2   134  VAL134     -0.2867
     87  CB        -5.7360   25.2560    6.5950 C.3   134  VAL134      0.0252
     88  CG1       -6.0910   23.9610    7.3090 C.3   134  VAL134      0.0019
     89  CG2       -6.7500   26.3560    6.9260 C.3   134  VAL134      0.0019
     90  N          7.0950   20.5910    3.7250 N.3   161  LEU161     -0.1245
     91  CA         7.4150   22.0100    3.6320 C.3   161  LEU161      0.1561
     92  C          6.8180   22.6950    4.8520 C.2   161  LEU161      0.2260
     93  O          5.6130   22.6200    5.0920 O.2   161  LEU161     -0.2867
     94  CB         6.8770   22.5920    2.3260 C.3   161  LEU161      0.0270
     95  CG         7.1510   24.0290    1.8550 C.3   161  LEU161      0.0019
     96  CD1        6.5350   24.2110    0.4730 C.3   161  LEU161      0.0001
     97  CD2        6.5950   25.0890    2.7880 C.3   161  LEU161      0.0001
     98  N          6.2580   26.2330    6.9060 N.3   163  THR163     -0.1218
     99  CA         6.2680   27.6870    6.9000 C.3   163  THR163      0.1862
    100  C          5.9070   28.1800    8.2910 C.2   163  THR163      0.2287
    101  O          4.8360   27.8530    8.8030 O.2   163  THR163     -0.2866
    102  CB         5.2600   28.2810    5.8810 C.3   163  THR163      0.1770
    103  OG1        5.3940   27.6230    4.6160 O.3   163  THR163     -0.2211
    104  CG2        5.4870   29.7640    5.7140 C.3   163  THR163      0.0375
@<TRIPOS>BOND
     1    14    13    2
     2     1     2    1
     3     4     3    2
     4    13    12    1
     5     3     2    1
     6    11    12    1
     7     2     5    1
     8    18    19    1
     9    26    25    2
    10    12    15    1
    11    30    29    2
    12    23    24    1
    13    41    39    1
    14    25    24    1
    15    25    27   am
    16     5     6    1
    17    34    33    2
    18    19    20    1
    19    19    22    1
    20    29    28    1
    21    29    31   am
    22    28    27    1
    23    15    16    1
    24    15    17    1
    25    40    39    1
    26    20    21    2
    27    39    36    1
    28    36    35    1
    29    36    37    1
    30    33    35   am
    31    33    32    1
    32    53    54    1
    33     6     8   ar
    34     6     7   ar
    35    42    37   am
    36    42    43    1
    37    31    32    1
    38     8    10   ar
    39     7     9   ar
    40    37    38    2
    41    44    43    1
    42    44    45    2
    43    59    57    1
    44    46    47    1
    45    46    43    1
    46    47    48    1
    47    10     9   ar
    48    56    55    2
    49    54    57    1
    50    54    55    1
    51    57    58    1
    52    49    48    1
    53    49    50    2
    54    52    50    1
    55    50    51    1
    56    96    95    1
    57    60    61    1
    58    95    94    1
    59    95    97    1
    60    69    68    1
    61    74    71    1
    62    61    62    1
    63    94    91    1
    64    64    62   am
    65    64    65    1
    66    70    71    1
    67    62    63    2
    68    68    65    1
    69    71    72    1
    70    66    65    1
    71    66    67    2
    72    91    90    1
    73    91    92    1
    74    73    72    2
    75   103   102    1
    76    92    93    2
    77    86    85    2
    78    81    80   ar
    79   104   102    1
    80    82    80   ar
    81   102    99    1
    82    85    84    1
    83    80    79    1
    84    87    89    1
    85    87    84    1
    86    87    88    1
    87    99    98    1
    88    99   100    1
    89    84    83    1
    90    75    76    1
    91    79    76    1
    92    76    77    1
    93   100   101    2
    94    77    78    2
