@<TRIPOS>MOLECULE
tmp/5ahjY01.pdb
 114 106 0 0 0
SMALL
GASTEIGER

@<TRIPOS>ATOM
      1  N         56.7280 -153.1530    7.9280 N.3     1  THR1       -0.1218
      2  CA        56.9370 -153.9120    6.6820 C.3     1  THR1        0.1862
      3  C         56.3330 -153.1820    5.5180 C.2     1  THR1        0.2287
      4  O         55.2780 -152.6050    5.5860 O.2     1  THR1       -0.2866
      5  CB        56.2460 -155.2160    6.7370 C.3     1  THR1        0.1770
      6  OG1       56.8640 -155.8730    7.7540 O.3     1  THR1       -0.2211
      7  CG2       56.5010 -156.0290    5.5130 C.3     1  THR1        0.0375
      8  N         63.0110 -154.1780    7.6220 N.3    19  ARG19      -0.1231
      9  CA        62.8830 -153.5300    8.9270 C.3    19  ARG19       0.1694
     10  C         61.9360 -154.2830    9.8630 C.2    19  ARG19       0.2592
     11  O         60.9120 -154.8160    9.4330 O.2    19  ARG19      -0.2718
     12  CB        62.4070 -152.0820    8.7780 C.3    19  ARG19       0.0321
     13  CG        62.3260 -151.3460   10.1090 C.3    19  ARG19       0.0489
     14  CD        62.1430 -149.8490    9.9450 C.3    19  ARG19       0.2205
     15  NE        63.3470 -149.1990    9.4370 N.pl3  19  ARG19      -0.0865
     16  CZ        63.5470 -147.8820    9.4120 C.cat  19  ARG19       0.5346
     17  NH1       62.6250 -147.0420    9.8740 N.pl3  19  ARG19       0.1354
     18  NH2       64.6840 -147.4010    8.9220 N.pl3  19  ARG19       0.1354
     19  N         62.2930 -154.3130   11.1430 N.am   20  ALA20      -0.1966
     20  CA        61.4270 -154.8540   12.1870 C.3    20  ALA20       0.1728
     21  C         61.3300 -153.8400   13.3170 C.2    20  ALA20       0.2617
     22  O         62.3460 -153.3180   13.7760 O.2    20  ALA20      -0.2715
     23  CB        61.9730 -156.1730   12.7010 C.3    20  ALA20       0.0334
     24  N         60.1080 -153.5660   13.7630 N.am   21  THR21      -0.1937
     25  CA        59.8720 -152.5230   14.7570 C.3    21  THR21       0.2028
     26  C         59.0930 -153.0370   15.9580 C.2    21  THR21       0.2642
     27  O         58.2530 -153.9240   15.8330 O.2    21  THR21      -0.2714
     28  CB        59.0990 -151.3340   14.1510 C.3    21  THR21       0.1808
     29  OG1       57.8110 -151.7690   13.6980 O.3    21  THR21      -0.2208
     30  CG2       59.8720 -150.7270   12.9830 C.3    21  THR21       0.0379
     31  N         59.3950 -152.4730   17.1230 N.am   22  ALA22      -0.1963
     32  CA        58.6200 -152.6970   18.3380 C.3    22  ALA22       0.1728
     33  C         58.1710 -151.3280   18.8360 C.2    22  ALA22       0.2616
     34  O         58.8650 -150.6840   19.6200 O.2    22  ALA22      -0.2715
     35  CB        59.4630 -153.4060   19.3850 C.3    22  ALA22       0.0334
     36  N         57.0140 -150.8820   18.3570 N.am   23  GLY23      -0.1955
     37  CA        56.5650 -149.5110   18.5780 C.3    23  GLY23       0.1869
     38  C         57.3440 -148.5890   17.6600 C.2    23  GLY23       0.2309
     39  O         57.4000 -148.8240   16.4530 O.2    23  GLY23      -0.2863
     40  N         63.8850 -152.2990   15.7820 N.3    27  ALA27      -0.1245
     41  CA        64.4570 -153.4900   16.4090 C.3    27  ALA27       0.1562
     42  C         65.4760 -154.2060   15.5320 C.2    27  ALA27       0.2260
     43  O         66.4120 -154.8120   16.0510 O.2    27  ALA27      -0.2867
     44  CB        63.3520 -154.4500   16.8090 C.3    27  ALA27       0.0290
     45  N         66.1340 -158.1680    8.5890 N.3    31  VAL31      -0.1245
     46  CA        65.2150 -159.3000    8.7100 C.3    31  VAL31       0.1561
     47  C         64.9030 -159.8970    7.3430 C.2    31  VAL31       0.2260
     48  O         64.6060 -159.1710    6.3950 O.2    31  VAL31      -0.2867
     49  CB        63.9000 -158.8790    9.4000 C.3    31  VAL31       0.0252
     50  CG1       62.8560 -159.9870    9.3300 C.3    31  VAL31       0.0019
     51  CG2       64.1710 -158.5050   10.8470 C.3    31  VAL31       0.0019
     52  N         62.3900 -161.3840    5.1500 N.3    33  LYS33      -0.1245
     53  CA        60.9330 -161.4490    5.0520 C.3    33  LYS33       0.1561
     54  C         60.4610 -162.3260    3.8950 C.2    33  LYS33       0.2260
     55  O         59.2550 -162.4750    3.6810 O.2    33  LYS33      -0.2867
     56  CB        60.3530 -160.0400    4.9340 C.3    33  LYS33       0.0271
     57  CG        60.6840 -159.1720    6.1330 C.3    33  LYS33       0.0035
     58  CD        59.9650 -157.8410    6.0820 C.3    33  LYS33       0.0206
     59  CE        60.5610 -156.8780    7.0890 C.3    33  LYS33       0.1093
     60  NZ        59.7200 -155.6690    7.2270 N.3    33  LYS33      -0.1314
     61  N         56.5320 -162.1830    4.2500 N.3    45  MET45      -0.1230
     62  CA        56.1630 -162.0280    5.6590 C.3    45  MET45       0.1702
     63  C         55.8720 -160.5740    6.0230 C.2    45  MET45       0.2592
     64  O         56.7120 -159.6960    5.8180 O.2    45  MET45      -0.2718
     65  CB        57.2910 -162.5520    6.5480 C.3    45  MET45       0.0401
     66  CG        57.5180 -164.0490    6.4370 C.3    45  MET45       0.0596
     67  SD        59.0670 -164.6050    7.1740 S.3    45  MET45      -0.1393
     68  CE        59.1220 -163.6960    8.7130 C.3    45  MET45       0.0692
     69  N         54.6770 -160.3340    6.5610 N.am   46  ALA46      -0.1966
     70  CA        54.3130 -159.0310    7.1250 C.3    46  ALA46       0.1728
     71  C         53.3740 -159.2250    8.3080 C.2    46  ALA46       0.2617
     72  O         52.5550 -160.1430    8.3080 O.2    46  ALA46      -0.2715
     73  CB        53.6600 -158.1530    6.0720 C.3    46  ALA46       0.0334
     74  N         53.4930 -158.3530    9.3070 N.am   47  GLY47      -0.1940
     75  CA        52.7020 -158.4520   10.5420 C.3    47  GLY47       0.2014
     76  C         53.5710 -158.9110   11.7000 C.2    47  GLY47       0.2639
     77  O         54.7440 -158.5330   11.7880 O.2    47  GLY47      -0.2714
     78  N         53.0040 -159.7290   12.5840 N.am   48  GLY48      -0.1939
     79  CA        53.7570 -160.3120   13.6920 C.3    48  GLY48       0.2014
     80  C         54.9360 -161.1280   13.1920 C.2    48  GLY48       0.2638
     81  O         54.7650 -162.0310   12.3690 O.2    48  GLY48      -0.2714
     82  N         56.1330 -160.8060   13.6810 N.am   49  ALA49      -0.1977
     83  CA        57.3580 -161.4580   13.2230 C.3    49  ALA49       0.1597
     84  C         57.3450 -162.9480   13.5270 C.2    49  ALA49       0.2287
     85  O         57.5270 -163.7710   12.6310 O.2    49  ALA49      -0.2864
     86  CB        58.5760 -160.8080   13.8580 C.3    49  ALA49       0.0319
     87  N         54.5150 -164.9280   11.5830 N.3    52  CYS52      -0.1235
     88  CA        54.9280 -165.1690   10.2050 C.3    52  CYS52       0.1677
     89  C         56.0260 -166.2230   10.1470 C.2    52  CYS52       0.2270
     90  O         55.8840 -167.2450    9.4760 O.2    52  CYS52      -0.2867
     91  CB        55.4160 -163.8700    9.5620 C.3    52  CYS52       0.0956
     92  SG        54.0920 -162.6790    9.2660 S.3    52  CYS52      -0.0801
     93  N         51.5650 -154.6890    4.1510 N.3   130  GLY130     -0.1210
     94  CA        52.3280 -154.1360    5.2680 C.3   130  GLY130      0.1956
     95  C         51.9440 -152.7070    5.6060 C.2   130  GLY130      0.2612
     96  O         51.0380 -152.1330    4.9950 O.2   130  GLY130     -0.2717
     97  N         52.6530 -152.1350    6.5780 N.am  131  SER131     -0.1952
     98  CA        52.4350 -150.7520    7.0060 C.3   131  SER131      0.1924
     99  C         52.7040 -149.7400    5.8910 C.2   131  SER131      0.2314
    100  O         52.0290 -148.7140    5.8140 O.2   131  SER131     -0.2863
    101  CB        53.3110 -150.4230    8.2180 C.3   131  SER131      0.2116
    102  OG        54.6810 -150.6680    7.9440 O.3   131  SER131     -0.2180
    103  N         57.9110 -147.0580    9.5360 N.3   170  TYR170     -0.1241
    104  CA        58.0740 -148.4370   10.0080 C.3   170  TYR170      0.1605
    105  C         58.5750 -149.3970    8.9190 C.2   170  TYR170      0.2264
    106  O         58.5430 -150.6170    9.0980 O.2   170  TYR170     -0.2867
    107  CB        56.7540 -148.9380   10.6000 C.3   170  TYR170      0.0534
    108  CG        56.2440 -148.0730   11.7320 C.ar  170  TYR170     -0.0201
    109  CD1       57.0240 -147.8430   12.8620 C.ar  170  TYR170     -0.0009
    110  CD2       54.9830 -147.4890   11.6800 C.ar  170  TYR170     -0.0009
    111  CE1       56.5660 -147.0540   13.9030 C.ar  170  TYR170      0.0417
    112  CE2       54.5160 -146.6990   12.7190 C.ar  170  TYR170      0.0417
    113  CZ        55.3130 -146.4860   13.8270 C.ar  170  TYR170      0.1957
    114  OH        54.8560 -145.7010   14.8600 O.3   170  TYR170     -0.2866
@<TRIPOS>BOND
     1    55    54    2
     2    54    53    1
     3    93    94    1
     4    61    62    1
     5    56    53    1
     6    56    57    1
     7    96    95    2
     8    53    52    1
     9    94    95    1
    10     7     5    1
    11     3     4    2
    12     3     2    1
    13    95    97   am
    14    62    63    1
    15    62    65    1
    16   100    99    2
    17    64    63    2
    18    99    98    1
    19    63    69   am
    20    73    70    1
    21    58    57    1
    22    58    59    1
    23    48    47    2
    24    66    65    1
    25    66    67    1
    26    69    70    1
    27    97    98    1
    28     2     5    1
    29     2     1    1
    30     5     6    1
    31    98   101    1
    32    59    60    1
    33    70    71    1
    34    67    68    1
    35    47    46    1
    36     8     9    1
    37   102   101    1
    38    71    72    2
    39    71    74   am
    40    45    46    1
    41    46    49    1
    42    12     9    1
    43    12    13    1
    44   105   106    2
    45   105   104    1
    46    18    16    1
    47     9    10    1
    48    92    91    1
    49    74    75    1
    50    50    49    1
    51    49    51    1
    52    16    15    2
    53    16    17    1
    54    11    10    2
    55    15    14    1
    56    90    89    2
    57   103   104    1
    58    91    88    1
    59    10    19   am
    60    14    13    1
    61   104   107    1
    62    89    88    1
    63    88    87    1
    64    75    76    1
    65   107   108    1
    66    19    20    1
    67   110   108   ar
    68   110   112   ar
    69    76    77    2
    70    76    78   am
    71   108   109   ar
    72    20    23    1
    73    20    21    1
    74    81    80    2
    75    78    79    1
    76    85    84    2
    77   112   113   ar
    78   109   111   ar
    79    30    28    1
    80    80    82   am
    81    80    79    1
    82    83    84    1
    83    83    82    1
    84    83    86    1
    85    21    24   am
    86    21    22    2
    87    29    28    1
    88    24    25    1
    89   113   111   ar
    90   113   114    1
    91    28    25    1
    92    25    26    1
    93    42    43    2
    94    42    41    1
    95    40    41    1
    96    27    26    2
    97    26    31   am
    98    41    44    1
    99    39    38    2
   100    31    32    1
   101    38    37    1
   102    32    33    1
   103    32    35    1
   104    36    37    1
   105    36    33   am
   106    33    34    2
