@<TRIPOS>MOLECULE
tmp/5ahjV00.pdb
 140 132 0 0 0
SMALL
GASTEIGER

@<TRIPOS>ATOM
      1  N          4.7360 -160.5110   43.5660 N.3     1  THR1       -0.1218
      2  CA         4.0090 -161.4790   44.4040 C.3     1  THR1        0.1862
      3  C          3.8740 -160.9840   45.8500 C.2     1  THR1        0.2287
      4  O          4.6970 -160.2610   46.3410 O.2     1  THR1       -0.2866
      5  CB         4.8000 -162.7330   44.4350 C.3     1  THR1        0.1770
      6  OG1        4.9140 -163.1770   43.0950 O.3     1  THR1       -0.2211
      7  CG2        4.0750 -163.7740   45.2140 C.3     1  THR1        0.0375
      8  N         -1.4360 -162.0760   40.8910 N.3    19  ARG19      -0.1231
      9  CA        -0.9390 -161.1750   39.8420 C.3    19  ARG19       0.1694
     10  C          0.4250 -161.6100   39.3030 C.2    19  ARG19       0.2593
     11  O          1.3540 -161.8720   40.0690 O.2    19  ARG19      -0.2718
     12  CB        -0.8360 -159.7310   40.3500 C.3    19  ARG19       0.0321
     13  CG        -0.2330 -158.7650   39.3250 C.3    19  ARG19       0.0489
     14  CD        -0.2880 -157.3120   39.7770 C.3    19  ARG19       0.2205
     15  NE        -1.6560 -156.7940   39.8320 N.pl3  19  ARG19      -0.0865
     16  CZ        -1.9890 -155.5510   40.1840 C.cat  19  ARG19       0.5346
     17  NH1       -1.0510 -154.6640   40.5140 N.pl3  19  ARG19       0.1354
     18  NH2       -3.2690 -155.1900   40.2030 N.pl3  19  ARG19       0.1354
     19  N          0.5400 -161.6570   37.9790 N.am   20  SER20      -0.1938
     20  CA         1.8100 -161.9270   37.3080 C.3    20  SER20       0.2055
     21  C          2.1800 -160.7220   36.4570 C.2    20  SER20       0.2644
     22  O          1.4300 -160.3500   35.5560 O.2    20  SER20      -0.2714
     23  CB         1.6840 -163.1620   36.4200 C.3    20  SER20       0.2130
     24  OG         2.8830 -163.4020   35.7110 O.3    20  SER20      -0.2179
     25  N          3.3300 -160.1160   36.7350 N.am   21  THR21      -0.1936
     26  CA         3.7400 -158.8920   36.0430 C.3    21  THR21       0.2028
     27  C          4.8680 -159.1100   35.0410 C.2    21  THR21       0.2642
     28  O          5.6980 -160.0010   35.1980 O.2    21  THR21      -0.2714
     29  CB         4.1980 -157.8000   37.0270 C.3    21  THR21       0.1808
     30  OG1        5.3780 -158.2300   37.7230 O.3    21  THR21      -0.2208
     31  CG2        3.0840 -157.4750   38.0230 C.3    21  THR21       0.0379
     32  N          4.8810 -158.2630   34.0180 N.am   22  GLN22      -0.1963
     33  CA         5.8980 -158.2790   32.9730 C.3    22  GLN22       0.1733
     34  C          6.3400 -156.8270   32.7660 C.2    22  GLN22       0.2616
     35  O          5.8960 -156.1470   31.8390 O.2    22  GLN22      -0.2715
     36  CB         5.3090 -158.8800   31.6910 C.3    22  GLN22       0.0408
     37  CG         6.3250 -159.5190   30.7610 C.3    22  GLN22       0.0908
     38  CD         5.8750 -159.4930   29.3110 C.2    22  GLN22       0.2608
     39  OE1        6.2260 -158.5810   28.5600 O.2    22  GLN22      -0.2717
     40  NE2        5.0790 -160.4830   28.9120 N.am   22  GLN22      -0.0878
     41  N          7.2010 -156.3530   33.6630 N.am   23  GLY23      -0.1955
     42  CA         7.5320 -154.9320   33.7490 C.3    23  GLY23       0.1869
     43  C          6.4840 -154.2220   34.5940 C.2    23  GLY23       0.2309
     44  O          6.2760 -154.5890   35.7500 O.2    23  GLY23      -0.2863
     45  N          0.5510 -159.3370   33.2350 N.3    27  ALA27      -0.1245
     46  CA         0.5060 -160.3970   32.2230 C.3    27  ALA27       0.1562
     47  C         -0.6310 -161.3790   32.4850 C.2    27  ALA27       0.2260
     48  O         -1.4020 -161.6910   31.5770 O.2    27  ALA27      -0.2867
     49  CB         1.8320 -161.1370   32.1690 C.3    27  ALA27       0.0290
     50  N         -3.1890 -165.9860   38.0210 N.3    31  CYS31      -0.1221
     51  CA        -2.2750 -167.1240   37.9200 C.3    31  CYS31       0.1808
     52  C         -2.1300 -167.7960   39.2800 C.2    31  CYS31       0.2601
     53  O         -2.1830 -167.1320   40.3140 O.2    31  CYS31      -0.2717
     54  CB        -0.9050 -166.6940   37.3700 C.3    31  CYS31       0.0970
     55  SG         0.2720 -166.0270   38.5680 S.3    31  CYS31      -0.0800
     56  N         -1.9410 -169.1150   39.2630 N.am   32  ALA32      -0.1965
     57  CA        -1.8770 -169.9210   40.4830 C.3    32  ALA32       0.1728
     58  C         -0.4460 -170.0350   41.0030 C.2    32  ALA32       0.2616
     59  O          0.4040 -170.6550   40.3620 O.2    32  ALA32      -0.2715
     60  CB        -2.4480 -171.3050   40.2200 C.3    32  ALA32       0.0334
     61  N         -0.1920 -169.4470   42.1710 N.am   33  LYS33      -0.1977
     62  CA         1.1410 -169.4520   42.7780 C.3    33  LYS33       0.1596
     63  C          1.3010 -170.5210   43.8630 C.2    33  LYS33       0.2287
     64  O          2.3870 -170.6860   44.4130 O.2    33  LYS33      -0.2864
     65  CB         1.4530 -168.0710   43.3550 C.3    33  LYS33       0.0298
     66  CG         1.2110 -166.9450   42.3640 C.3    33  LYS33       0.0038
     67  CD         1.6860 -165.6030   42.8870 C.3    33  LYS33       0.0206
     68  CE         1.2300 -164.4790   41.9730 C.3    33  LYS33       0.1093
     69  NZ         1.8490 -163.1870   42.3580 N.3    33  LYS33      -0.1314
     70  N          1.5340 -174.3890   44.7490 N.3    35  HIS35      -0.1241
     71  CA         1.9950 -175.5670   44.0140 C.3    35  HIS35       0.1621
     72  C          1.9600 -176.8220   44.8780 C.2    35  HIS35       0.2264
     73  O          2.3900 -176.8000   46.0310 O.2    35  HIS35      -0.2867
     74  CB         3.4170 -175.3390   43.5020 C.3    35  HIS35       0.0745
     75  CG         3.5420 -174.1720   42.5740 C.ar   35  HIS35       0.0817
     76  ND1        3.0160 -174.1800   41.3010 N.ar   35  HIS35      -0.2268
     77  CD2        4.1360 -172.9660   42.7290 C.ar   35  HIS35       0.1154
     78  CE1        3.2780 -173.0270   40.7130 C.ar   35  HIS35       0.1986
     79  NE2        3.9570 -172.2730   41.5580 N.ar   35  HIS35      -0.2212
     80  N          5.0530 -169.7870   45.7110 N.3    45  GLY45      -0.1210
     81  CA         6.2460 -169.4090   44.9360 C.3    45  GLY45       0.1956
     82  C          6.2750 -167.9780   44.4220 C.2    45  GLY45       0.2612
     83  O          5.3250 -167.5150   43.7870 O.2    45  GLY45      -0.2717
     84  N          7.3800 -167.2860   44.6960 N.am   46  ALA46      -0.1965
     85  CA         7.5910 -165.9160   44.2430 C.3    46  ALA46       0.1728
     86  C          8.9300 -165.7800   43.4950 C.2    46  ALA46       0.2617
     87  O          9.8350 -166.6140   43.6300 O.2    46  ALA46      -0.2715
     88  CB         7.5490 -164.9650   45.4260 C.3    46  ALA46       0.0334
     89  N          9.0450 -164.7160   42.7090 N.am   47  GLY47      -0.1940
     90  CA        10.2450 -164.4650   41.9190 C.3    47  GLY47       0.2014
     91  C         10.0030 -164.7610   40.4530 C.2    47  GLY47       0.2640
     92  O          8.9380 -164.4560   39.9300 O.2    47  GLY47      -0.2714
     93  N         10.9890 -165.3580   39.7920 N.am   48  THR48      -0.1936
     94  CA        10.8770 -165.7030   38.3740 C.3    48  THR48       0.2028
     95  C          9.8600 -166.8320   38.1850 C.2    48  THR48       0.2642
     96  O         10.0460 -167.9360   38.6940 O.2    48  THR48      -0.2714
     97  CB        12.2450 -166.1240   37.7980 C.3    48  THR48       0.1808
     98  OG1       13.2060 -165.0910   38.0440 O.3    48  THR48      -0.2208
     99  CG2       12.1580 -166.3780   36.3010 C.3    48  THR48       0.0379
    100  N          8.7950 -166.5420   37.4400 N.am   49  ALA49      -0.1963
    101  CA         7.6260 -167.4280   37.3480 C.3    49  ALA49       0.1728
    102  C          7.9660 -168.8330   36.8590 C.2    49  ALA49       0.2616
    103  O          7.5810 -169.8230   37.4850 O.2    49  ALA49      -0.2715
    104  CB         6.5730 -166.8090   36.4420 C.3    49  ALA49       0.0334
    105  N          8.6820 -168.9110   35.7390 N.am   50  ALA50      -0.1977
    106  CA         9.0670 -170.1970   35.1570 C.3    50  ALA50       0.1597
    107  C          9.9540 -171.0170   36.0930 C.2    50  ALA50       0.2287
    108  O          9.8680 -172.2470   36.1110 O.2    50  ALA50      -0.2864
    109  CB         9.7710 -169.9830   33.8290 C.3    50  ALA50       0.0319
    110  N          9.9240 -170.8960   39.5310 N.3    52  THR52      -0.1218
    111  CA         9.1270 -171.4030   40.6480 C.3    52  THR52       0.1862
    112  C          8.3340 -172.6360   40.2310 C.2    52  THR52       0.2287
    113  O          8.2500 -173.6030   40.9860 O.2    52  THR52      -0.2866
    114  CB         8.1600 -170.3410   41.2120 C.3    52  THR52       0.1770
    115  OG1        7.3200 -169.8430   40.1640 O.3    52  THR52      -0.2211
    116  CG2        8.9370 -169.1850   41.8470 C.3    52  THR52       0.0375
    117  N         20.6880 -168.0170   40.3750 N.3    93  HIS93      -0.1241
    118  CA        20.2680 -167.7900   38.9880 C.3    93  HIS93       0.1621
    119  C         18.8670 -168.3440   38.7070 C.2    93  HIS93       0.2264
    120  O         18.1400 -167.8200   37.8620 O.2    93  HIS93      -0.2867
    121  CB        21.2900 -168.3690   38.0100 C.3    93  HIS93       0.0745
    122  CG        22.6000 -167.6450   38.0210 C.ar   93  HIS93       0.0817
    123  ND1       22.7460 -166.3700   37.5200 N.ar   93  HIS93      -0.2268
    124  CD2       23.8210 -168.0120   38.4790 C.ar   93  HIS93       0.1154
    125  CE1       24.0000 -165.9830   37.6660 C.ar   93  HIS93       0.1986
    126  NE2       24.6730 -166.9600   38.2470 N.ar   93  HIS93      -0.2212
    127  N          8.1310 -162.1900   48.6430 N.3   128  GLY128     -0.1210
    128  CA         7.6920 -161.4580   47.4510 C.3   128  GLY128      0.1956
    129  C          7.7760 -159.9490   47.5990 C.2   128  GLY128      0.2612
    130  O          8.2140 -159.4390   48.6310 O.2   128  GLY128     -0.2717
    131  N          7.3430 -159.2340   46.5660 N.am  129  SER129     -0.1952
    132  CA         7.4000 -157.7700   46.5550 C.3   129  SER129      0.1924
    133  C          6.4590 -157.1310   47.5750 C.2   129  SER129      0.2314
    134  O          6.7110 -156.0180   48.0340 O.2   129  SER129     -0.2863
    135  CB         7.0890 -157.2270   45.1560 C.3   129  SER129      0.2116
    136  OG         5.7830 -157.5950   44.7430 O.3   129  SER129     -0.2180
    137  N          3.0720 -154.6810   42.8070 N.3   168  GLY168     -0.1225
    138  CA         3.4760 -155.9650   42.2370 C.3   168  GLY168      0.1811
    139  C          2.4970 -157.0860   42.5370 C.2   168  GLY168      0.2280
    140  O          2.5920 -158.1690   41.9560 O.2   168  GLY168     -0.2866
@<TRIPOS>BOND
     1    39    38    2
     2    40    38   am
     3    38    37    1
     4    37    36    1
     5    48    47    2
     6    36    33    1
     7    35    34    2
     8    49    46    1
     9    46    47    1
    10    46    45    1
    11    34    33    1
    12    34    41   am
    13    33    32    1
    14    41    42    1
    15    42    43    1
    16   109   106    1
    17    32    27   am
    18    43    44    2
    19    27    28    2
    20    27    26    1
    21   106   105    1
    22   106   107    1
    23    22    21    2
    24    24    23    1
    25   105   102   am
    26    26    25    1
    27    26    29    1
    28   107   108    2
    29    99    97    1
    30    23    20    1
    31   104   101    1
    32    21    25   am
    33    21    20    1
    34   102   101    1
    35   102   103    2
    36    29    30    1
    37    29    31    1
    38    20    19    1
    39   101   100    1
    40    54    51    1
    41    54    55    1
    42   100    95   am
    43   123   125   ar
    44   123   122   ar
    45   125   126   ar
    46    97    98    1
    47    97    94    1
    48   120   119    2
    49    51    50    1
    50    51    52    1
    51    19    10   am
    52   121   122    1
    53   121   118    1
    54   122   124   ar
    55    95    94    1
    56    95    96    2
    57   126   124   ar
    58    94    93    1
    59   119   118    1
    60   118   117    1
    61    56    52   am
    62    56    57    1
    63    52    53    2
    64    10     9    1
    65    10    11    2
    66    13    14    1
    67    13    12    1
    68   110   111    1
    69    14    15    1
    70    93    91   am
    71    15    16    2
    72     9    12    1
    73     9     8    1
    74    92    91    2
    75   115   114    1
    76    16    18    1
    77    16    17    1
    78    60    57    1
    79   112   111    1
    80   112   113    2
    81    59    58    2
    82    91    90    1
    83    57    58    1
    84   111   114    1
    85    78    76   ar
    86    78    79   ar
    87    58    61   am
    88   114   116    1
    89    76    75   ar
    90    79    77   ar
    91    90    89    1
    92   140   139    2
    93    68    69    1
    94    68    67    1
    95    61    62    1
    96   138   139    1
    97   138   137    1
    98    66    67    1
    99    66    65    1
   100    75    77   ar
   101    75    74    1
   102    89    86   am
   103    62    65    1
   104    62    63    1
   105     6     5    1
   106    86    87    2
   107    86    85    1
   108    74    71    1
   109     1     2    1
   110    83    82    2
   111    63    64    2
   112    71    70    1
   113    71    72    1
   114    85    84    1
   115    85    88    1
   116     2     5    1
   117     2     3    1
   118    82    84   am
   119    82    81    1
   120     5     7    1
   121   136   135    1
   122    72    73    2
   123    81    80    1
   124   135   132    1
   125     3     4    2
   126   132   131    1
   127   132   133    1
   128   131   129   am
   129   128   129    1
   130   128   127    1
   131   133   134    2
   132   129   130    2
