@<TRIPOS>MOLECULE
tmp/5ahjN00.pdb
 124 115 0 0 0
SMALL
GASTEIGER

@<TRIPOS>ATOM
      1  N         43.6290 -142.7070   63.3030 N.3     1  THR1       -0.1218
      2  CA        43.3220 -141.9240   64.5010 C.3     1  THR1        0.1862
      3  C         42.4430 -142.6780   65.4130 C.2     1  THR1        0.2287
      4  O         41.4670 -143.2520   65.0190 O.2     1  THR1       -0.2866
      5  CB        42.5780 -140.6920   64.0990 C.3     1  THR1        0.1770
      6  OG1       43.4550 -139.9720   63.2390 O.3     1  THR1       -0.2211
      7  CG2       42.2950 -139.8320   65.2950 C.3     1  THR1        0.0375
      8  N         49.6620 -141.3150   65.8030 N.3    19  ARG19      -0.1231
      9  CA        50.0560 -141.9810   64.5590 C.3    19  ARG19       0.1694
     10  C         49.4530 -141.3130   63.3250 C.2    19  ARG19       0.2593
     11  O         48.2450 -141.0870   63.2560 O.2    19  ARG19      -0.2718
     12  CB        49.6620 -143.4580   64.5870 C.3    19  ARG19       0.0321
     13  CG        50.0430 -144.2100   63.3220 C.3    19  ARG19       0.0489
     14  CD        49.9820 -145.7170   63.5060 C.3    19  ARG19       0.2205
     15  NE        51.0510 -146.2120   64.3690 N.pl3  19  ARG19      -0.0865
     16  CZ        51.2330 -147.4900   64.6910 C.cat  19  ARG19       0.5346
     17  NH1       50.4180 -148.4310   64.2240 N.pl3  19  ARG19       0.1354
     18  NH2       52.2430 -147.8310   65.4810 N.pl3  19  ARG19       0.1354
     19  N         50.3170 -141.0070   62.3580 N.am   20  THR20      -0.1939
     20  CA        49.9110 -140.5110   61.0480 C.3    20  THR20       0.2028
     21  C         50.4390 -141.4890   60.0090 C.2    20  THR20       0.2643
     22  O         51.6390 -141.7690   59.9800 O.2    20  THR20      -0.2714
     23  CB        50.4970 -139.1140   60.7680 C.3    20  THR20       0.1808
     24  OG1       50.0930 -138.2040   61.7980 O.3    20  THR20      -0.2208
     25  CG2       50.0150 -138.5740   59.4430 C.3    20  THR20       0.0379
     26  N         49.5460 -141.9980   59.1590 N.am   21  THR21      -0.1936
     27  CA        49.8960 -143.0400   58.1910 C.3    21  THR21       0.2028
     28  C         49.7140 -142.6130   56.7390 C.2    21  THR21       0.2643
     29  O         48.8700 -141.7750   56.4220 O.2    21  THR21      -0.2714
     30  CB        49.0420 -144.3050   58.3970 C.3    21  THR21       0.1808
     31  OG1       47.6540 -143.9480   58.4510 O.3    21  THR21      -0.2208
     32  CG2       49.4310 -145.0060   59.6800 C.3    21  THR21       0.0379
     33  N         50.5210 -143.2140   55.8680 N.am   22  THR22      -0.1936
     34  CA        50.3530 -143.1220   54.4230 C.3    22  THR22       0.2028
     35  C         50.2770 -144.5550   53.9200 C.2    22  THR22       0.2642
     36  O         51.3030 -145.2080   53.7220 O.2    22  THR22      -0.2714
     37  CB        51.5300 -142.3990   53.7450 C.3    22  THR22       0.1808
     38  OG1       51.9010 -141.2490   54.5120 O.3    22  THR22      -0.2208
     39  CG2       51.1390 -141.9550   52.3570 C.3    22  THR22       0.0379
     40  N         49.0590 -145.0460   53.7280 N.am   23  GLY23      -0.1954
     41  CA        48.8440 -146.4700   53.5340 C.3    23  GLY23       0.1869
     42  C         49.2350 -147.1860   54.8140 C.2    23  GLY23       0.2309
     43  O         48.7080 -146.8780   55.8850 O.2    23  GLY23      -0.2863
     44  N         53.9930 -142.2150   58.5660 N.3    27  ALA27      -0.1245
     45  CA        54.6720 -140.9710   58.2030 C.3    27  ALA27       0.1562
     46  C         55.1420 -140.1880   59.4290 C.2    27  ALA27       0.2260
     47  O         56.2100 -139.5780   59.4060 O.2    27  ALA27      -0.2867
     48  CB        53.7590 -140.1050   57.3490 C.3    27  ALA27       0.0290
     49  N         52.7550 -137.4620   66.2540 N.3    31  THR31      -0.1218
     50  CA        51.8440 -136.3940   65.8480 C.3    31  THR31       0.1862
     51  C         51.0710 -135.8210   67.0380 C.2    31  THR31       0.2287
     52  O         50.7490 -136.5430   67.9860 O.2    31  THR31      -0.2866
     53  CB        50.8180 -136.9190   64.8250 C.3    31  THR31       0.1770
     54  OG1       51.4790 -137.7840   63.8940 O.3    31  THR31      -0.2211
     55  CG2       50.1450 -135.7730   64.0710 C.3    31  THR31       0.0375
     56  N         47.5860 -134.4000   67.5960 N.3    33  LYS33      -0.1245
     57  CA        46.2520 -134.2820   67.0070 C.3    33  LYS33       0.1561
     58  C         45.3230 -133.4270   67.8640 C.2    33  LYS33       0.2260
     59  O         44.1880 -133.1540   67.4700 O.2    33  LYS33      -0.2867
     60  CB        45.6440 -135.6710   66.8110 C.3    33  LYS33       0.0271
     61  CG        46.5290 -136.6070   66.0050 C.3    33  LYS33       0.0035
     62  CD        45.9130 -137.9820   65.8560 C.3    33  LYS33       0.0206
     63  CE        46.8840 -138.9270   65.1670 C.3    33  LYS33       0.1093
     64  NZ        46.2110 -140.1750   64.7180 N.3    33  LYS33      -0.1314
     65  N         41.6300 -133.9600   66.0140 N.3    45  ARG45      -0.1231
     66  CA        41.6010 -134.0340   64.5550 C.3    45  ARG45       0.1694
     67  C         41.7130 -135.4750   64.0550 C.2    45  ARG45       0.2593
     68  O         42.6500 -136.1940   64.4070 O.2    45  ARG45      -0.2718
     69  CB        42.7180 -133.1700   63.9660 C.3    45  ARG45       0.0321
     70  CG        42.5550 -131.6920   64.2840 C.3    45  ARG45       0.0489
     71  CD        43.6360 -130.8290   63.6520 C.3    45  ARG45       0.2205
     72  NE        44.9780 -131.2010   64.0960 N.pl3  45  ARG45      -0.0865
     73  CZ        45.8430 -131.9400   63.3990 C.cat  45  ARG45       0.5346
     74  NH1       45.5360 -132.4200   62.1950 N.pl3  45  ARG45       0.1354
     75  NH2       47.0350 -132.2080   63.9180 N.pl3  45  ARG45       0.1354
     76  N         40.7360 -135.8850   63.2450 N.am   46  SER46      -0.1938
     77  CA        40.7550 -137.1880   62.5780 C.3    46  SER46       0.2055
     78  C         40.4120 -137.0190   61.1020 C.2    46  SER46       0.2644
     79  O         39.6890 -136.0930   60.7280 O.2    46  SER46      -0.2714
     80  CB        39.7780 -138.1700   63.2420 C.3    46  SER46       0.2130
     81  OG        38.4330 -137.9510   62.8360 O.3    46  SER46      -0.2179
     82  N         40.9350 -137.9190   60.2740 N.am   47  GLY47      -0.1939
     83  CA        40.7100 -137.8790   58.8320 C.3    47  GLY47       0.2014
     84  C         41.9310 -137.3830   58.0810 C.2    47  GLY47       0.2640
     85  O         43.0490 -137.8220   58.3420 O.2    47  GLY47      -0.2714
     86  N         41.7150 -136.4780   57.1310 N.am   48  SER48      -0.1935
     87  CA        42.8090 -135.8960   56.3540 C.3    48  SER48       0.2055
     88  C         43.5890 -134.8900   57.1960 C.2    48  SER48       0.2643
     89  O         43.0070 -133.9710   57.7800 O.2    48  SER48      -0.2714
     90  CB        42.2730 -135.2090   55.0960 C.3    48  SER48       0.2130
     91  OG        43.2450 -134.3440   54.5310 O.3    48  SER48      -0.2179
     92  N         44.9070 -135.0680   57.2510 N.am   49  ALA49      -0.1963
     93  CA        45.7770 -134.1650   58.0010 C.3    49  ALA49       0.1728
     94  C         45.7400 -132.7660   57.4040 C.2    49  ALA49       0.2616
     95  O         45.6390 -131.7830   58.1290 O.2    49  ALA49      -0.2715
     96  CB        47.2020 -134.6870   58.0110 C.3    49  ALA49       0.0334
     97  N         45.8120 -132.6840   56.0800 N.am   50  ALA50      -0.1977
     98  CA        45.7580 -131.3980   55.3910 C.3    50  ALA50       0.1597
     99  C         44.4200 -130.6780   55.6300 C.2    50  ALA50       0.2287
    100  O         44.4000 -129.4940   55.9760 O.2    50  ALA50      -0.2864
    101  CB        46.0080 -131.5880   53.9030 C.3    50  ALA50       0.0319
    102  N         42.1000 -131.1650   58.0620 N.3    52  THR52      -0.1218
    103  CA        41.8870 -130.8300   59.4750 C.3    52  THR52       0.1862
    104  C         42.7880 -129.6840   59.9500 C.2    52  THR52       0.2287
    105  O         42.3850 -128.8950   60.8090 O.2    52  THR52      -0.2866
    106  CB        42.0920 -132.0500   60.3950 C.3    52  THR52       0.1770
    107  OG1       43.3640 -132.6550   60.1220 O.3    52  THR52      -0.2211
    108  CG2       40.9800 -133.0670   60.1830 C.3    52  THR52       0.0375
    109  N         37.5760 -141.4180   64.9350 N.3   128  GLY128     -0.1210
    110  CA        38.7590 -141.9710   64.2830 C.3   128  GLY128      0.1956
    111  C         38.5630 -143.4460   63.9880 C.2   128  GLY128      0.2612
    112  O         37.6580 -144.0770   64.5360 O.2   128  GLY128     -0.2717
    113  N         39.4120 -143.9980   63.1210 N.am  129  SER129     -0.1952
    114  CA        39.3120 -145.4070   62.7240 C.3   129  SER129      0.1924
    115  C         39.3520 -146.3710   63.9140 C.2   129  SER129      0.2314
    116  O         38.6620 -147.3880   63.9110 O.2   129  SER129     -0.2863
    117  CB        40.4280 -145.7670   61.7380 C.3   129  SER129      0.2116
    118  OG        41.7090 -145.5760   62.3150 O.3   129  SER129     -0.2180
    119  N         46.0620 -148.4310   62.2660 N.3   168  SER168     -0.1217
    120  CA        46.2050 -147.0350   61.8620 C.3   168  SER168      0.1889
    121  C         46.5050 -146.1150   63.0470 C.2   168  SER168      0.2288
    122  O         46.9290 -144.9770   62.8530 O.2   168  SER168     -0.2866
    123  CB        44.9300 -146.5530   61.1690 C.3   168  SER168      0.2089
    124  OG        44.4500 -147.5030   60.2340 O.3   168  SER168     -0.2183
@<TRIPOS>BOND
     1    39    37    1
     2    41    40    1
     3    41    42    1
     4    36    35    2
     5    40    35   am
     6    37    34    1
     7    37    38    1
     8   101    98    1
     9    35    34    1
    10    34    33    1
    11    91    90    1
    12    42    43    2
    13    90    87    1
    14    98    99    1
    15    98    97    1
    16    99   100    2
    17    33    28   am
    18    97    94   am
    19    87    86    1
    20    87    88    1
    21    29    28    2
    22    28    27    1
    23    86    84   am
    24    88    92   am
    25    88    89    2
    26    92    93    1
    27    48    45    1
    28    94    93    1
    29    94    95    2
    30    93    96    1
    31   102   103    1
    32    84    85    2
    33    84    83    1
    34    27    30    1
    35    27    26    1
    36    45    44    1
    37    45    46    1
    38    30    31    1
    39    30    32    1
    40    83    82    1
    41    26    21   am
    42    47    46    2
    43    25    23    1
    44   103   104    1
    45   103   106    1
    46   104   105    2
    47    22    21    2
    48    21    20    1
    49   107   106    1
    50   108   106    1
    51   124   123    1
    52    82    78   am
    53    79    78    2
    54    23    20    1
    55    23    24    1
    56    20    19    1
    57    78    77    1
    58   123   120    1
    59   117   118    1
    60   117   114    1
    61   120   119    1
    62   120   121    1
    63    74    73    1
    64    19    10   am
    65    77    80    1
    66    77    76    1
    67   114   113    1
    68   114   115    1
    69    81    80    1
    70   122   121    2
    71   113   111   am
    72     6     5    1
    73    76    67   am
    74    11    10    2
    75     1     2    1
    76    13    14    1
    77    13    12    1
    78    10     9    1
    79    73    75    1
    80    73    72    2
    81    14    15    1
    82    71    72    1
    83    71    70    1
    84    54    53    1
    85   116   115    2
    86    69    70    1
    87    69    66    1
    88   111   110    1
    89   111   112    2
    90    67    68    2
    91    67    66    1
    92    55    53    1
    93     5     2    1
    94     5     7    1
    95    17    16    1
    96   110   109    1
    97    15    16    2
    98     2     3    1
    99    66    65    1
   100     9    12    1
   101     9     8    1
   102    16    18    1
   103    64    63    1
   104    53    50    1
   105     4     3    2
   106    63    62    1
   107    50    49    1
   108    50    51    1
   109    62    61    1
   110    61    60    1
   111    60    57    1
   112    57    56    1
   113    57    58    1
   114    51    52    2
   115    59    58    2
