@<TRIPOS>MOLECULE
tmp/5ahkA02.pdb
 79 75 0 0 0
SMALL
GASTEIGER

@<TRIPOS>ATOM
      1  N        -16.0810 -100.5420   13.7310 N.3    22  LEU22      -0.1231
      2  CA       -17.1590  -99.5980   13.5000 C.3    22  LEU22       0.1693
      3  C        -17.3530  -99.6020   11.9890 C.2    22  LEU22       0.2592
      4  O        -16.4000  -99.4680   11.2020 O.2    22  LEU22      -0.2718
      5  CB       -16.8240  -98.1930   14.0090 C.3    22  LEU22       0.0284
      6  CG       -17.8440  -97.1000   13.6560 C.3    22  LEU22       0.0019
      7  CD1      -19.2440  -97.4550   14.1350 C.3    22  LEU22       0.0001
      8  CD2      -17.4000  -95.7640   14.2560 C.3    22  LEU22       0.0001
      9  N        -18.5890  -99.8060   11.5510 N.am   23  ILE23      -0.1966
     10  CA       -18.8370 -100.0230   10.1390 C.3    23  ILE23       0.1727
     11  C        -18.5870  -98.7590    9.3070 C.2    23  ILE23       0.2617
     12  O        -18.6300  -97.6330    9.8190 O.2    23  ILE23      -0.2715
     13  CB       -20.2800 -100.5400    9.9470 C.3    23  ILE23       0.0290
     14  CG1      -20.4950 -101.1960    8.5690 C.3    23  ILE23       0.0022
     15  CG2      -21.2540  -99.4070   10.1670 C.3    23  ILE23       0.0023
     16  CD1      -19.6520 -102.4280    8.4010 C.3    23  ILE23       0.0001
     17  N        -18.3220  -98.9570    8.0220 N.am   24  GLY24      -0.1940
     18  CA       -18.3530  -97.8810    7.0460 C.3    24  GLY24       0.2014
     19  C        -18.5850  -98.4840    5.6660 C.2    24  GLY24       0.2639
     20  O        -18.4840  -99.7180    5.4900 O.2    24  GLY24      -0.2714
     21  N        -18.9470  -97.6510    4.6960 N.am   25  GLY25      -0.1954
     22  CA       -19.3050  -98.1650    3.3610 C.3    25  GLY25       0.1869
     23  C        -18.2050  -99.0150    2.7320 C.2    25  GLY25       0.2309
     24  O        -18.4800 -100.0320    2.0930 O.2    25  GLY25      -0.2863
     25  N        -13.4020  -96.5790   16.4790 N.3    48  GLU48      -0.1245
     26  CA       -12.3660  -97.4680   15.9570 C.3    48  GLU48       0.1567
     27  C        -11.1690  -97.5280   16.8860 C.2    48  GLU48       0.2260
     28  O        -10.4220  -98.5000   16.8600 O.2    48  GLU48      -0.2867
     29  CB       -11.9350  -97.1350   14.5230 C.3    48  GLU48       0.0388
     30  CG       -13.0480  -97.1620   13.4940 C.3    48  GLU48       0.1160
     31  CD       -13.8490  -95.8760   13.3650 C.2    48  GLU48       0.3649
     32  OE1      -13.7770  -94.9650   14.2130 O.co2  48  GLU48      -0.2457
     33  OE2      -14.5680  -95.7680   12.3820 O.co2  48  GLU48      -0.2457
     34  N        -13.1570  -98.2110    8.0210 N.3    73  THR73      -0.1218
     35  CA       -13.2900  -97.5540    6.7330 C.3    73  THR73       0.1862
     36  C        -12.1340  -96.5530    6.5350 C.2    73  THR73       0.2287
     37  O        -11.4230  -96.1560    7.4880 O.2    73  THR73      -0.2866
     38  CB       -14.6830  -96.9130    6.6020 C.3    73  THR73       0.1770
     39  OG1      -15.0820  -96.8530    5.2160 O.3    73  THR73      -0.2211
     40  CG2      -14.7480  -95.5580    7.3100 C.3    73  THR73       0.0375
     41  N        -11.5440  -91.3510    8.3340 N.3    76  PRO76      -0.2102
     42  CA       -11.5650  -91.2610    9.7900 C.3    76  PRO76       0.1504
     43  C        -11.5870  -92.6080   10.5030 C.2    76  PRO76       0.2576
     44  O        -11.1280  -92.7190   11.6610 O.2    76  PRO76      -0.2718
     45  CB       -12.8450  -90.4790   10.0720 C.3    76  PRO76       0.0282
     46  CG       -13.7340  -90.8220    8.9240 C.3    76  PRO76       0.0208
     47  CD       -12.8320  -90.9820    7.7350 C.3    76  PRO76       0.0893
     48  N        -12.1000  -93.6470    9.8570 N.am   77  GLY77      -0.1957
     49  CA       -11.9330  -94.9930   10.4310 C.3    77  GLY77       0.1869
     50  C        -10.4500  -95.3000   10.6410 C.2    77  GLY77       0.2309
     51  O        -10.0170  -95.6650   11.7360 O.2    77  GLY77      -0.2863
     52  N         -8.6640  -93.1880   13.2730 N.3    80  ASN80      -0.1240
     53  CA        -9.0610  -93.6130   14.6150 C.3    80  ASN80       0.1653
     54  C         -8.3990  -94.8770   15.1530 C.2    80  ASN80       0.2266
     55  O         -8.4510  -95.1190   16.3620 O.2    80  ASN80      -0.2867
     56  CB       -10.5770  -93.7180   14.6990 C.3    80  ASN80       0.1155
     57  CG       -11.2330  -92.3590   14.8450 C.2    80  ASN80       0.2627
     58  OD1      -10.5780  -91.3520   15.1370 O.2    80  ASN80      -0.2716
     59  ND2      -12.5310  -92.3240   14.6790 N.am   80  ASN80      -0.0877
     60  N        -14.4870  -89.7120   -2.1400 N.3   118  PHE118     -0.1227
     61  CA       -15.1290  -89.4100   -0.8830 C.3   118  PHE118      0.1736
     62  C        -14.4680  -90.1820    0.2700 C.2   118  PHE118      0.2595
     63  O        -14.3390  -91.4130    0.1990 O.2   118  PHE118     -0.2718
     64  CB       -16.5910  -89.7840   -0.9550 C.3   118  PHE118      0.0547
     65  CG       -17.3090  -89.6290    0.3470 C.ar  118  PHE118     -0.0202
     66  CD1      -17.4460  -88.3790    0.9240 C.ar  118  PHE118     -0.0042
     67  CD2      -17.8070  -90.7350    1.0220 C.ar  118  PHE118     -0.0042
     68  CE1      -18.0960  -88.2230    2.1270 C.ar  118  PHE118     -0.0003
     69  CE2      -18.4560  -90.5850    2.2290 C.ar  118  PHE118     -0.0003
     70  CZ       -18.6070  -89.3260    2.7790 C.ar  118  PHE118     -0.0000
     71  N        -14.0380  -89.4530    1.3050 N.am  119  GLN119     -0.1979
     72  CA       -13.3550  -89.9920    2.5040 C.3   119  GLN119      0.1601
     73  C        -12.0640  -90.7450    2.1820 C.2   119  GLN119      0.2287
     74  O        -11.6380  -91.6000    2.9470 O.2   119  GLN119     -0.2864
     75  CB       -14.2910  -90.8910    3.3340 C.3   119  GLN119      0.0394
     76  CG       -15.5400  -90.2330    3.8940 C.3   119  GLN119      0.0908
     77  CD       -16.1900  -91.0980    4.9620 C.2   119  GLN119      0.2608
     78  OE1      -16.6090  -92.2320    4.6970 O.2   119  GLN119     -0.2717
     79  NE2      -16.2160  -90.6050    6.1940 N.am  119  GLN119     -0.0878
@<TRIPOS>BOND
     1    60    61    1
     2    64    61    1
     3    64    65    1
     4    61    62    1
     5    63    62    2
     6    62    71   am
     7    65    66   ar
     8    65    67   ar
     9    66    68   ar
    10    67    69   ar
    11    71    72    1
    12    24    23    2
    13    68    70   ar
    14    73    72    1
    15    73    74    2
    16    69    70   ar
    17    72    75    1
    18    23    22    1
    19    75    76    1
    20    22    21    1
    21    76    77    1
    22    21    19   am
    23    78    77    2
    24    77    79   am
    25    39    38    1
    26    20    19    2
    27    19    18    1
    28    36    35    1
    29    36    37    2
    30    38    35    1
    31    38    40    1
    32    35    34    1
    33    18    17    1
    34    47    41    1
    35    47    46    1
    36    17    11   am
    37    41    42    1
    38    16    14    1
    39    14    13    1
    40    46    45    1
    41    11    12    2
    42    11    10    1
    43    42    45    1
    44    42    43    1
    45    48    49    1
    46    48    43   am
    47    13    10    1
    48    13    15    1
    49    10     9    1
    50    49    50    1
    51    43    44    2
    52    50    51    2
    53     4     3    2
    54     9     3   am
    55     3     2    1
    56    33    31   ar
    57    52    53    1
    58    31    30    1
    59    31    32   ar
    60    30    29    1
    61     2     1    1
    62     2     5    1
    63     6     5    1
    64     6     7    1
    65     6     8    1
    66    29    26    1
    67    53    56    1
    68    53    54    1
    69    59    57   am
    70    56    57    1
    71    57    58    2
    72    54    55    2
    73    26    25    1
    74    26    27    1
    75    28    27    2
