@<TRIPOS>MOLECULE
tmp/5ahkA00.pdb
 143 136 0 0 0
SMALL
GASTEIGER

@<TRIPOS>ATOM
      1  N         -3.8530  -94.9970   17.5360 N.3    83  THR83      -0.1218
      2  CA        -3.3200  -95.1740   18.8710 C.3    83  THR83       0.1862
      3  C         -3.1510  -96.6410   19.2570 C.2    83  THR83       0.2287
      4  O         -2.1400  -97.0190   19.8710 O.2    83  THR83      -0.2866
      5  CB        -4.1320  -94.3910   19.8640 C.3    83  THR83       0.1770
      6  OG1       -4.0880  -93.0160   19.4360 O.3    83  THR83      -0.2211
      7  CG2       -3.5460  -94.5040   21.2460 C.3    83  THR83       0.0375
      8  N         -3.5420  -95.9910   32.4300 N.3   384  VAL384     -0.1231
      9  CA        -2.2450  -95.3390   32.5850 C.3   384  VAL384      0.1692
     10  C         -2.3130  -94.2180   33.6180 C.2   384  VAL384      0.2593
     11  O         -3.1740  -93.3350   33.5280 O.2   384  VAL384     -0.2718
     12  CB        -1.7290  -94.8360   31.2240 C.3   384  VAL384      0.0266
     13  CG1       -0.4070  -94.1130   31.3560 C.3   384  VAL384      0.0020
     14  CG2       -1.6360  -96.0180   30.2730 C.3   384  VAL384      0.0020
     15  N         -1.4010  -94.2480   34.5840 N.am  385  GLY385     -0.1942
     16  CA        -1.3910  -93.2330   35.6330 C.3   385  GLY385      0.2014
     17  C         -0.8880  -93.8230   36.9250 C.2   385  GLY385      0.2639
     18  O         -0.3320  -94.9070   36.9300 O.2   385  GLY385     -0.2714
     19  N         -1.0170  -93.0910   38.0160 N.am  386  ASN386     -0.1958
     20  CA        -0.6350  -93.6300   39.3140 C.3   386  ASN386      0.1819
     21  C         -1.3630  -94.9260   39.5900 C.2   386  ASN386      0.2621
     22  O         -0.7600  -95.8920   40.0700 O.2   386  ASN386     -0.2715
     23  CB        -0.8810  -92.6050   40.4330 C.3   386  ASN386      0.1195
     24  CG         0.1580  -91.4980   40.4540 C.2   386  ASN386      0.2630
     25  OD1        1.2710  -91.6350   39.9290 O.2   386  ASN386     -0.2716
     26  ND2       -0.2240  -90.3610   41.0120 N.am  386  ASN386     -0.0877
     27  N         -2.6590  -94.9670   39.2450 N.am  387  ASN387     -0.1972
     28  CA        -3.4630  -96.2020   39.4020 C.3   387  ASN387      0.1688
     29  C         -2.8310  -97.4320   38.7440 C.2   387  ASN387      0.2292
     30  O         -2.8230  -98.5420   39.3220 O.2   387  ASN387     -0.2864
     31  CB        -4.9120  -96.0060   38.9350 C.3   387  ASN387      0.1181
     32  CG        -5.0660  -95.8880   37.4240 C.2   387  ASN387      0.2629
     33  OD1       -5.4240  -96.8620   36.7350 O.2   387  ASN387     -0.2716
     34  ND2       -4.8040  -94.7050   36.8890 N.am  387  ASN387     -0.0877
     35  N          0.2050  -98.4420   40.9300 N.3   390  TRP390     -0.1241
     36  CA        -0.2770  -99.1510   42.1350 C.3   390  TRP390      0.1605
     37  C         -0.5030 -100.6510   41.8420 C.2   390  TRP390      0.2264
     38  O         -0.1280 -101.5170   42.6380 O.2   390  TRP390     -0.2867
     39  CB        -1.5760  -98.5600   42.6480 C.3   390  TRP390      0.0550
     40  CG        -1.4850  -97.1380   43.0850 C.ar  390  TRP390      0.0003
     41  CD1       -0.3700  -96.4540   43.5120 C.ar  390  TRP390      0.0946
     42  CD2       -2.5640  -96.1990   43.1290 C.ar  390  TRP390      0.0152
     43  NE1       -0.7010  -95.1660   43.8430 N.ar  390  TRP390     -0.2442
     44  CE2       -2.0380  -94.9770   43.5980 C.ar  390  TRP390      0.0810
     45  CE3       -3.9150  -96.2760   42.8110 C.ar  390  TRP390      0.0012
     46  CZ2       -2.8340  -93.8410   43.7690 C.ar  390  TRP390      0.0191
     47  CZ3       -4.7000  -95.1540   42.9500 C.ar  390  TRP390      0.0001
     48  CH2       -4.1660  -93.9520   43.4300 C.ar  390  TRP390      0.0015
     49  N          2.0860  -96.2420   26.6680 N.3   410  GLY410     -0.1210
     50  CA         1.4080  -95.6980   27.8490 C.3   410  GLY410      0.1956
     51  C          0.1760  -94.8820   27.4850 C.2   410  GLY410      0.2613
     52  O          0.0050  -93.7700   27.9610 O.2   410  GLY410     -0.2717
     53  N         -0.7090  -95.4670   26.6780 N.am  411  SER411     -0.1938
     54  CA        -1.9100  -94.7440   26.2660 C.3   411  SER411      0.2055
     55  C         -3.0770  -94.8640   27.2700 C.2   411  SER411      0.2642
     56  O         -3.6170  -95.9500   27.5250 O.2   411  SER411     -0.2714
     57  CB        -2.2920  -95.0900   24.8300 C.3   411  SER411      0.2130
     58  OG        -2.8050  -96.3820   24.6480 O.3   411  SER411     -0.2179
     59  N         -3.4570  -93.7290   27.8370 N.am  412  MET412     -0.1976
     60  CA        -4.7060  -93.6520   28.5970 C.3   412  MET412      0.1605
     61  C         -5.8660  -94.0600   27.6910 C.2   412  MET412      0.2287
     62  O         -5.8050  -93.8390   26.4840 O.2   412  MET412     -0.2864
     63  CB        -4.9830  -92.2130   29.0400 C.3   412  MET412      0.0413
     64  CG        -4.0420  -91.6500   30.1140 C.3   412  MET412      0.0598
     65  SD        -4.1940  -89.8470   30.2740 S.3   412  MET412     -0.1393
     66  CE        -5.8110  -89.7460   31.0490 C.3   412  MET412      0.0692
     67  N         -8.0020  -94.9450   36.0070 N.3   435  GLY435     -0.1210
     68  CA        -8.1480  -93.7140   36.7740 C.3   435  GLY435      0.1956
     69  C         -9.3200  -92.9040   36.2600 C.2   435  GLY435      0.2612
     70  O         -9.8890  -93.1720   35.2000 O.2   435  GLY435     -0.2717
     71  N         -9.6550  -91.8580   36.9810 N.am  436  ASP436     -0.1959
     72  CA       -10.6940  -90.9460   36.5060 C.3   436  ASP436      0.1840
     73  C        -10.3790  -90.2730   35.1590 C.2   436  ASP436      0.2623
     74  O        -11.3020  -90.0700   34.3490 O.2   436  ASP436     -0.2715
     75  CB       -11.0530  -89.8850   37.5660 C.3   436  ASP436      0.1450
     76  CG        -9.8530  -89.1290   38.1050 C.2   436  ASP436      0.3671
     77  OD1       -8.9120  -89.7850   38.5340 O.co2 436  ASP436     -0.2456
     78  OD2       -9.8930  -87.8850   38.1800 O.co2 436  ASP436     -0.2456
     79  N         -9.1280  -89.8880   34.9170 N.am  437  GLY437     -0.1940
     80  CA        -8.7700  -89.2850   33.6320 C.3   437  GLY437      0.2014
     81  C         -8.8760  -90.2990   32.5200 C.2   437  GLY437      0.2639
     82  O         -9.5610  -90.0750   31.5340 O.2   437  GLY437     -0.2714
     83  N         -8.2480  -91.4310   32.7180 N.am  438  GLY438     -0.1954
     84  CA        -8.1770  -92.4590   31.6960 C.3   438  GLY438      0.1869
     85  C         -9.5440  -93.0280   31.3220 C.2   438  GLY438      0.2309
     86  O         -9.7930  -93.3870   30.1650 O.2   438  GLY438     -0.2863
     87  N        -11.6560  -91.4300   28.2280 N.3   441  LEU441     -0.1245
     88  CA       -11.3170  -91.3910   26.8010 C.3   441  LEU441      0.1561
     89  C        -12.2060  -92.2940   25.9700 C.2   441  LEU441      0.2260
     90  O        -12.7110  -91.8650   24.9660 O.2   441  LEU441     -0.2867
     91  CB        -9.8160  -91.6940   26.5330 C.3   441  LEU441      0.0270
     92  CG        -8.8480  -90.5250   26.7760 C.3   441  LEU441      0.0019
     93  CD1       -8.5580  -90.2920   28.2500 C.3   441  LEU441      0.0001
     94  CD2       -7.5590  -90.6400   25.9850 C.3   441  LEU441      0.0001
     95  N        -10.5810  -95.7130   39.9490 N.3   461  MET461     -0.1245
     96  CA        -9.9340  -95.1600   41.1170 C.3   461  MET461      0.1570
     97  C         -9.9060  -93.6630   40.9350 C.2   461  MET461      0.2261
     98  O         -9.0330  -93.1280   40.2550 O.2   461  MET461     -0.2867
     99  CB        -8.5460  -95.7680   41.3040 C.3   461  MET461      0.0387
    100  CG        -8.6600  -97.2120   41.7980 C.3   461  MET461      0.0595
    101  SD        -7.1310  -98.0330   42.2560 S.3   461  MET461     -0.1393
    102  CE        -7.7110  -99.6620   42.7200 C.3   461  MET461      0.0692
    103  N         -9.3150  -90.1240   42.0180 N.3   463  ASN463     -0.1240
    104  CA        -8.5890  -89.1990   42.8970 C.3   463  ASN463      0.1653
    105  C         -8.7980  -87.7500   42.4580 C.2   463  ASN463      0.2266
    106  O         -8.0340  -86.8670   42.8510 O.2   463  ASN463     -0.2867
    107  CB        -7.0900  -89.5770   42.9960 C.3   463  ASN463      0.1155
    108  CG        -6.4080  -89.6380   41.6600 C.2   463  ASN463      0.2627
    109  OD1       -6.9520  -89.1650   40.6900 O.2   463  ASN463     -0.2716
    110  ND2       -5.2160  -90.1920   41.6090 N.am  463  ASN463     -0.0877
    111  N         -8.1480  -86.0770   39.9120 N.3   465  SER465     -0.1202
    112  CA        -6.9230  -85.4730   39.4150 C.3   465  SER465      0.2020
    113  C         -6.2730  -86.3440   38.3600 C.2   465  SER465      0.2619
    114  O         -6.5310  -87.5420   38.2860 O.2   465  SER465     -0.2717
    115  CB        -5.9580  -85.2720   40.5770 C.3   465  SER465      0.2103
    116  OG        -4.8020  -84.5530   40.1790 O.3   465  SER465     -0.2182
    117  N         -5.4370  -85.7220   37.5470 N.am  466  LEU466     -0.1965
    118  CA        -4.5850  -86.4070   36.5960 C.3   466  LEU466      0.1728
    119  C         -3.2740  -86.6020   37.3360 C.2   466  LEU466      0.2617
    120  O         -2.3370  -85.7760   37.2760 O.2   466  LEU466     -0.2715
    121  CB        -4.4330  -85.5720   35.3440 C.3   466  LEU466      0.0311
    122  CG        -5.7210  -85.3450   34.5470 C.3   466  LEU466      0.0022
    123  CD1       -5.4390  -84.5740   33.2780 C.3   466  LEU466      0.0001
    124  CD2       -6.4240  -86.6590   34.2440 C.3   466  LEU466      0.0001
    125  N         -3.2590  -87.6720   38.1220 N.am  467  GLY467     -0.1940
    126  CA        -2.4440  -87.7040   39.3400 C.3   467  GLY467      0.2014
    127  C         -0.9690  -87.7110   39.0560 C.2   467  GLY467      0.2639
    128  O         -0.1850  -86.9980   39.7070 O.2   467  GLY467     -0.2714
    129  N         -0.5890  -88.4960   38.0590 N.am  468  MET468     -0.1963
    130  CA         0.8230  -88.7310   37.7990 C.3   468  MET468      0.1736
    131  C          1.4850  -87.4880   37.2570 C.2   468  MET468      0.2616
    132  O          2.6490  -87.2530   37.5400 O.2   468  MET468     -0.2715
    133  CB         1.0120  -89.9090   36.8500 C.3   468  MET468      0.0427
    134  CG         2.4680  -90.2190   36.5630 C.3   468  MET468      0.0599
    135  SD         2.5750  -91.8600   35.8410 S.3   468  MET468     -0.1393
    136  CE         2.5980  -92.8630   37.3220 C.3   468  MET468      0.0692
    137  N          0.7460  -86.6730   36.5060 N.am  469  VAL469     -0.1977
    138  CA         1.2850  -85.3960   36.0470 C.3   469  VAL469      0.1596
    139  C          1.1400  -84.3250   37.1370 C.2   469  VAL469      0.2287
    140  O          1.9920  -83.4350   37.2410 O.2   469  VAL469     -0.2864
    141  CB         0.6000  -84.9150   34.7470 C.3   469  VAL469      0.0276
    142  CG1        1.2930  -83.6690   34.2100 C.3   469  VAL469      0.0022
    143  CG2        0.6040  -86.0290   33.7080 C.3   469  VAL469      0.0022
@<TRIPOS>BOND
     1     1     2    1
     2     2     3    1
     3     2     5    1
     4     3     4    2
     5     6     5    1
     6     5     7    1
     7    58    57    1
     8    57    54    1
     9    90    89    2
    10    89    88    1
    11    94    92    1
    12    54    53    1
    13    54    55    1
    14    62    61    2
    15    91    92    1
    16    91    88    1
    17    49    50    1
    18    53    51   am
    19    92    93    1
    20    88    87    1
    21    55    56    2
    22    55    59   am
    23    51    50    1
    24    51    52    2
    25    61    60    1
    26    59    60    1
    27    60    63    1
    28    63    64    1
    29    64    65    1
    30    86    85    2
    31    14    12    1
    32    65    66    1
    33    12    13    1
    34    12     9    1
    35    85    84    1
    36    82    81    2
    37    84    83    1
    38     8     9    1
    39    81    83   am
    40    81    80    1
    41     9    10    1
    42   123   122    1
    43    11    10    2
    44    10    15   am
    45    80    79    1
    46   143   141    1
    47   142   141    1
    48   124   122    1
    49    74    73    2
    50   122   121    1
    51    15    16    1
    52   141   138    1
    53    79    73   am
    54    73    72    1
    55    70    69    2
    56   121   118    1
    57    16    17    1
    58   135   134    1
    59   135   136    1
    60    67    68    1
    61   138   137    1
    62   138   139    1
    63    69    68    1
    64    69    71   am
    65   137   131   am
    66    72    71    1
    67    72    75    1
    68   134   133    1
    69   118   119    1
    70   118   117    1
    71    33    32    2
    72   133   130    1
    73    34    32   am
    74    17    18    2
    75    17    19   am
    76   139   140    2
    77   131   132    2
    78   131   130    1
    79   120   119    2
    80   119   125   am
    81    32    31    1
    82   117   113   am
    83    75    76    1
    84   130   129    1
    85    19    20    1
    86   129   127   am
    87    76    78   ar
    88    76    77   ar
    89   125   126    1
    90   114   113    2
    91   113   112    1
    92    29    30    2
    93    29    28    1
    94    31    28    1
    95   127   126    1
    96   127   128    2
    97    27    28    1
    98    27    21   am
    99    20    21    1
   100    20    23    1
   101   112   111    1
   102   112   115    1
   103    21    22    2
   104    25    24    2
   105    95    96    1
   106   116   115    1
   107    98    97    2
   108    23    24    1
   109    24    26   am
   110   109   108    2
   111    35    36    1
   112    97    96    1
   113    96    99    1
   114    99   100    1
   115   110   108   am
   116   108   107    1
   117   100   101    1
   118    37    36    1
   119    37    38    2
   120   103   104    1
   121    36    39    1
   122   101   102    1
   123   105   106    2
   124   105   104    1
   125    39    40    1
   126    45    47   ar
   127    45    42   ar
   128   104   107    1
   129    47    48   ar
   130    40    42   ar
   131    40    41   ar
   132    42    44   ar
   133    48    46   ar
   134    41    43   ar
   135    44    46   ar
   136    44    43   ar
