@<TRIPOS>MOLECULE
tmp/5ahoA01.pdb
 93 91 0 0 0
SMALL
GASTEIGER

@<TRIPOS>ATOM
      1  N         92.5120   69.4660   40.4900 N.3   100  HIS100     -0.1241
      2  CA        92.0530   69.2530   39.1230 C.3   100  HIS100      0.1621
      3  C         90.5840   68.8480   39.0730 C.2   100  HIS100      0.2264
      4  O         89.7650   69.5100   38.4340 O.2   100  HIS100     -0.2867
      5  CB        92.9130   68.1890   38.4400 C.3   100  HIS100      0.0745
      6  CG        92.4630   67.8490   37.0550 C.ar  100  HIS100      0.0817
      7  ND1       92.5260   68.7480   36.0120 N.ar  100  HIS100     -0.2268
      8  CD2       91.9400   66.7120   36.5400 C.ar  100  HIS100      0.1154
      9  CE1       92.0620   68.1790   34.9150 C.ar  100  HIS100      0.1986
     10  NE2       91.7000   66.9430   35.2080 N.ar  100  HIS100     -0.2212
     11  N         99.1610   70.4860   29.2440 N.3   148  THR148     -0.1218
     12  CA        97.9600   70.6160   28.4240 C.3   148  THR148      0.1862
     13  C         97.8410   72.0080   27.8050 C.2   148  THR148      0.2287
     14  O         97.6040   72.1440   26.6030 O.2   148  THR148     -0.2866
     15  CB        96.6870   70.3210   29.2420 C.3   148  THR148      0.1770
     16  OG1       96.6820   68.9450   29.6440 O.3   148  THR148     -0.2211
     17  CG2       95.4420   70.6020   28.4140 C.3   148  THR148      0.0375
     18  N         82.3590   66.7320   31.2840 N.3   183  TYR183     -0.1241
     19  CA        82.6850   65.3150   31.3300 C.3   183  TYR183      0.1605
     20  C         81.8510   64.6810   32.4370 C.2   183  TYR183      0.2264
     21  O         81.1260   65.3800   33.1460 O.2   183  TYR183     -0.2867
     22  CB        84.1790   65.0970   31.5820 C.3   183  TYR183      0.0534
     23  CG        85.0740   65.5220   30.4370 C.ar  183  TYR183     -0.0201
     24  CD1       84.7700   65.1790   29.1270 C.ar  183  TYR183     -0.0009
     25  CD2       86.2220   66.2690   30.6690 C.ar  183  TYR183     -0.0009
     26  CE1       85.5860   65.5640   28.0800 C.ar  183  TYR183      0.0417
     27  CE2       87.0430   66.6610   29.6290 C.ar  183  TYR183      0.0417
     28  CZ        86.7200   66.3060   28.3360 C.ar  183  TYR183      0.1957
     29  OH        87.5330   66.6920   27.2950 O.3   183  TYR183     -0.2866
     30  N         84.5390   69.7540   37.6110 N.3   187  LYS187     -0.1245
     31  CA        83.8730   71.0560   37.5980 C.3   187  LYS187      0.1561
     32  C         82.5540   71.0710   38.3700 C.2   187  LYS187      0.2260
     33  O         81.6530   71.8450   38.0480 O.2   187  LYS187     -0.2867
     34  CB        83.6330   71.5130   36.1550 C.3   187  LYS187      0.0271
     35  CG        84.9080   71.7000   35.3470 C.3   187  LYS187      0.0035
     36  CD        84.6020   72.1220   33.9190 C.3   187  LYS187      0.0206
     37  CE        85.8750   72.4200   33.1450 C.3   187  LYS187      0.1093
     38  NZ        86.8030   71.2570   33.1340 N.3   187  LYS187     -0.1314
     39  N         82.7930   74.9880   29.0880 N.3   257  PRO257     -0.2102
     40  CA        83.9360   75.4180   29.9010 C.3   257  PRO257      0.1504
     41  C         85.2040   74.6210   29.5940 C.2   257  PRO257      0.2576
     42  O         85.3960   73.5290   30.1290 O.2   257  PRO257     -0.2718
     43  CB        83.4590   75.1640   31.3310 C.3   257  PRO257      0.0282
     44  CG        82.4940   74.0340   31.2040 C.3   257  PRO257      0.0208
     45  CD        81.8220   74.1980   29.8670 C.3   257  PRO257      0.0893
     46  N         86.0610   75.1690   28.7390 N.am  258  THR258     -0.1939
     47  CA        87.2790   74.4770   28.3310 C.3   258  THR258      0.2028
     48  C         88.3240   75.4360   27.7700 C.2   258  THR258      0.2643
     49  O         87.9880   76.4980   27.2470 O.2   258  THR258     -0.2714
     50  CB        86.9800   73.3990   27.2740 C.3   258  THR258      0.1808
     51  OG1       88.2120   72.8850   26.7540 O.3   258  THR258     -0.2208
     52  CG2       86.1620   73.9840   26.1330 C.3   258  THR258      0.0379
     53  N         89.5920   75.0530   27.8810 N.am  259  SER259     -0.1935
     54  CA        90.6840   75.8670   27.3590 C.3   259  SER259      0.2055
     55  C         90.9210   75.5600   25.8860 C.2   259  SER259      0.2642
     56  O         91.6750   76.2600   25.2070 O.2   259  SER259     -0.2714
     57  CB        91.9660   75.6350   28.1590 C.3   259  SER259      0.2130
     58  OG        92.4330   74.3070   28.0060 O.3   259  SER259     -0.2179
     59  N         90.2730   74.5070   25.3990 N.am  260  ARG260     -0.1977
     60  CA        90.3720   74.1290   23.9960 C.3   260  ARG260      0.1597
     61  C         89.6630   75.1480   23.1120 C.2   260  ARG260      0.2287
     62  O         88.5520   75.5840   23.4200 O.2   260  ARG260     -0.2864
     63  CB        89.7780   72.7390   23.7660 C.3   260  ARG260      0.0334
     64  CG        90.4330   71.6260   24.5650 C.3   260  ARG260      0.0492
     65  CD        89.8360   70.2780   24.1870 C.3   260  ARG260      0.2205
     66  NE        90.1030   69.9370   22.7920 N.pl3 260  ARG260     -0.0865
     67  CZ        89.3700   69.0920   22.0730 C.cat 260  ARG260      0.5346
     68  NH1       88.3110   68.5030   22.6110 N.pl3 260  ARG260      0.1354
     69  NH2       89.6920   68.8420   20.8110 N.pl3 260  ARG260      0.1354
     70  N         89.2710   76.3660   32.7790 N.3   275  SER275     -0.1202
     71  CA        90.1230   75.1910   32.6220 C.3   275  SER275      0.2020
     72  C         90.5650   74.5860   33.9490 C.2   275  SER275      0.2619
     73  O         90.8110   75.2990   34.9200 O.2   275  SER275     -0.2717
     74  CB        91.3570   75.5460   31.7870 C.3   275  SER275      0.2103
     75  OG        92.1340   74.3930   31.5140 O.3   275  SER275     -0.2182
     76  N         90.6690   73.2600   33.9750 N.am  276  ASP276     -0.1959
     77  CA        91.1720   72.5460   35.1430 C.3   276  ASP276      0.1840
     78  C         92.6470   72.2010   34.9620 C.2   276  ASP276      0.2622
     79  O         93.2230   71.4420   35.7430 O.2   276  ASP276     -0.2715
     80  CB        90.3540   71.2780   35.3950 C.3   276  ASP276      0.1450
     81  CG        88.9660   71.5780   35.9250 C.2   276  ASP276      0.3671
     82  OD1       88.8170   72.5670   36.6720 O.co2 276  ASP276     -0.2456
     83  OD2       88.0250   70.8260   35.5970 O.co2 276  ASP276     -0.2456
     84  N         93.2500   72.7630   33.9200 N.am  277  HIS277     -0.1973
     85  CA        94.6690   72.5730   33.6560 C.3   277  HIS277      0.1656
     86  C         95.4130   73.8880   33.8480 C.2   277  HIS277      0.2291
     87  O         94.8880   74.9560   33.5310 O.2   277  HIS277     -0.2864
     88  CB        94.8890   72.0350   32.2420 C.3   277  HIS277      0.0771
     89  CG        94.2000   70.7330   31.9780 C.ar  277  HIS277      0.0820
     90  ND1       94.7650   69.5160   32.2930 N.ar  277  HIS277     -0.2267
     91  CD2       92.9920   70.4570   31.4330 C.ar  277  HIS277      0.1154
     92  CE1       93.9360   68.5470   31.9530 C.ar  277  HIS277      0.1986
     93  NE2       92.8520   69.0910   31.4280 N.ar  277  HIS277     -0.2212
@<TRIPOS>BOND
     1    69    67    1
     2    67    68    1
     3    67    66    2
     4    66    65    1
     5    61    62    2
     6    61    60    1
     7    63    60    1
     8    63    64    1
     9    60    59    1
    10    65    64    1
    11    56    55    2
    12    59    55   am
    13    55    54    1
    14    52    50    1
    15    14    13    2
    16    51    50    1
    17    49    48    2
    18    50    47    1
    19    29    28    1
    20    54    53    1
    21    54    57    1
    22    48    53   am
    23    48    47    1
    24    13    12    1
    25    58    57    1
    26    26    28   ar
    27    26    24   ar
    28    47    46    1
    29    28    27   ar
    30    17    15    1
    31    12    15    1
    32    12    11    1
    33    46    41   am
    34    39    45    1
    35    39    40    1
    36    24    23   ar
    37    15    16    1
    38    41    40    1
    39    41    42    2
    40    27    25   ar
    41    45    44    1
    42    40    43    1
    43    23    25   ar
    44    23    22    1
    45    44    43    1
    46    18    19    1
    47    19    22    1
    48    19    20    1
    49    93    91   ar
    50    93    92   ar
    51    91    89   ar
    52    75    74    1
    53    74    71    1
    54    92    90   ar
    55    89    88    1
    56    89    90   ar
    57    88    85    1
    58    20    21    2
    59    71    70    1
    60    71    72    1
    61    38    37    1
    62    37    36    1
    63    87    86    2
    64    85    86    1
    65    85    84    1
    66    36    35    1
    67    84    78   am
    68    72    76   am
    69    72    73    2
    70    76    77    1
    71     9    10   ar
    72     9     7   ar
    73    78    77    1
    74    78    79    2
    75    77    80    1
    76    10     8   ar
    77    35    34    1
    78    80    81    1
    79    83    81   ar
    80    81    82   ar
    81     7     6   ar
    82    34    31    1
    83     8     6   ar
    84     6     5    1
    85    31    30    1
    86    31    32    1
    87    33    32    2
    88     4     3    2
    89     5     2    1
    90     3     2    1
    91     2     1    1
