@<TRIPOS>MOLECULE
tmp/5ahoA00.pdb
 103 98 0 0 0
SMALL
GASTEIGER

@<TRIPOS>ATOM
      1  N         96.9210   59.3510   28.1510 N.3     3  ASN3       -0.1240
      2  CA        97.8530   60.2580   28.8110 C.3     3  ASN3        0.1653
      3  C         98.4840   59.6550   30.0640 C.2     3  ASN3        0.2266
      4  O         98.6200   60.3270   31.0870 O.2     3  ASN3       -0.2867
      5  CB        97.1470   61.5690   29.1630 C.3     3  ASN3        0.1155
      6  CG        96.7420   62.3590   27.9320 C.2     3  ASN3        0.2627
      7  OD1       97.5120   62.4860   26.9800 O.2     3  ASN3       -0.2716
      8  ND2       95.5250   62.8910   27.9440 N.am    3  ASN3       -0.0877
      9  N         89.5060   60.4160   34.9650 N.3    34  HIS34      -0.1241
     10  CA        89.2040   60.8120   33.5930 C.3    34  HIS34       0.1621
     11  C         89.5980   59.6870   32.6350 C.2    34  HIS34       0.2264
     12  O         90.6190   59.0250   32.8290 O.2    34  HIS34      -0.2867
     13  CB        89.9040   62.1260   33.2350 C.3    34  HIS34       0.0745
     14  CG        89.1820   63.3420   33.7300 C.ar   34  HIS34       0.0817
     15  ND1       89.8140   64.5450   33.9610 N.ar   34  HIS34      -0.2268
     16  CD2       87.8780   63.5390   34.0360 C.ar   34  HIS34       0.1154
     17  CE1       88.9300   65.4290   34.3900 C.ar   34  HIS34       0.1986
     18  NE2       87.7480   64.8440   34.4440 N.ar   34  HIS34      -0.2212
     19  N         90.8740   59.1920   29.7570 N.3    36  ASP36      -0.1225
     20  CA        92.1600   59.1150   29.0710 C.3    36  ASP36       0.1805
     21  C         93.2780   58.7000   30.0230 C.2    36  ASP36       0.2597
     22  O         94.4450   58.6290   29.6340 O.2    36  ASP36      -0.2718
     23  CB        92.5000   60.4540   28.4170 C.3    36  ASP36       0.1424
     24  CG        92.4010   61.6130   29.3840 C.2    36  ASP36       0.3668
     25  OD1       91.4200   61.6630   30.1560 O.co2  36  ASP36      -0.2456
     26  OD2       93.3060   62.4730   29.3740 O.co2  36  ASP36      -0.2456
     27  N         92.9110   58.4280   31.2710 N.am   37  HIS37      -0.1975
     28  CA        93.8650   57.9890   32.2800 C.3    37  HIS37       0.1656
     29  C         93.5280   56.5860   32.7730 C.2    37  HIS37       0.2291
     30  O         94.2250   56.0340   33.6230 O.2    37  HIS37      -0.2864
     31  CB        93.8920   58.9650   33.4570 C.3    37  HIS37       0.0771
     32  CG        94.3260   60.3490   33.0860 C.ar   37  HIS37       0.0820
     33  ND1       95.6140   60.8010   33.2780 N.ar   37  HIS37      -0.2267
     34  CD2       93.6430   61.3830   32.5400 C.ar   37  HIS37       0.1154
     35  CE1       95.7060   62.0520   32.8640 C.ar   37  HIS37       0.1986
     36  NE2       94.5230   62.4290   32.4110 N.ar   37  HIS37      -0.2212
     37  N         92.5120   69.4660   40.4900 N.3   100  HIS100     -0.1241
     38  CA        92.0530   69.2530   39.1230 C.3   100  HIS100      0.1621
     39  C         90.5840   68.8480   39.0730 C.2   100  HIS100      0.2264
     40  O         89.7650   69.5100   38.4340 O.2   100  HIS100     -0.2867
     41  CB        92.9130   68.1890   38.4400 C.3   100  HIS100      0.0745
     42  CG        92.4630   67.8490   37.0550 C.ar  100  HIS100      0.0817
     43  ND1       92.5260   68.7480   36.0120 N.ar  100  HIS100     -0.2268
     44  CD2       91.9400   66.7120   36.5400 C.ar  100  HIS100      0.1154
     45  CE1       92.0620   68.1790   34.9150 C.ar  100  HIS100      0.1986
     46  NE2       91.7000   66.9430   35.2080 N.ar  100  HIS100     -0.2212
     47  N         97.1470   65.3930   36.0180 N.3   121  ASP121     -0.1239
     48  CA        96.4330   66.6110   35.6530 C.3   121  ASP121      0.1674
     49  C         96.3150   67.5020   36.8830 C.2   121  ASP121      0.2266
     50  O         95.8850   67.0430   37.9420 O.2   121  ASP121     -0.2867
     51  CB        95.0460   66.2980   35.0880 C.3   121  ASP121      0.1410
     52  CG        95.0970   65.7220   33.6880 C.2   121  ASP121      0.3668
     53  OD1       96.1850   65.7240   33.0760 O.co2 121  ASP121     -0.2456
     54  OD2       94.0390   65.2800   33.1940 O.co2 121  ASP121     -0.2456
     55  N         99.1610   70.4860   29.2440 N.3   148  THR148     -0.1218
     56  CA        97.9600   70.6160   28.4240 C.3   148  THR148      0.1862
     57  C         97.8410   72.0080   27.8050 C.2   148  THR148      0.2287
     58  O         97.6040   72.1440   26.6030 O.2   148  THR148     -0.2866
     59  CB        96.6870   70.3210   29.2420 C.3   148  THR148      0.1770
     60  OG1       96.6820   68.9450   29.6440 O.3   148  THR148     -0.2211
     61  CG2       95.4420   70.6020   28.4140 C.3   148  THR148      0.0375
     62  N         82.3590   66.7320   31.2840 N.3   183  TYR183     -0.1241
     63  CA        82.6850   65.3150   31.3300 C.3   183  TYR183      0.1605
     64  C         81.8510   64.6810   32.4370 C.2   183  TYR183      0.2264
     65  O         81.1260   65.3800   33.1460 O.2   183  TYR183     -0.2867
     66  CB        84.1790   65.0970   31.5820 C.3   183  TYR183      0.0534
     67  CG        85.0740   65.5220   30.4370 C.ar  183  TYR183     -0.0201
     68  CD1       84.7700   65.1790   29.1270 C.ar  183  TYR183     -0.0009
     69  CD2       86.2220   66.2690   30.6690 C.ar  183  TYR183     -0.0009
     70  CE1       85.5860   65.5640   28.0800 C.ar  183  TYR183      0.0417
     71  CE2       87.0430   66.6610   29.6290 C.ar  183  TYR183      0.0417
     72  CZ        86.7200   66.3060   28.3360 C.ar  183  TYR183      0.1957
     73  OH        87.5330   66.6920   27.2950 O.3   183  TYR183     -0.2866
     74  N         84.5390   69.7540   37.6110 N.3   187  LYS187     -0.1245
     75  CA        83.8730   71.0560   37.5980 C.3   187  LYS187      0.1561
     76  C         82.5540   71.0710   38.3700 C.2   187  LYS187      0.2260
     77  O         81.6530   71.8450   38.0480 O.2   187  LYS187     -0.2867
     78  CB        83.6330   71.5130   36.1550 C.3   187  LYS187      0.0271
     79  CG        84.9080   71.7000   35.3470 C.3   187  LYS187      0.0035
     80  CD        84.6020   72.1220   33.9190 C.3   187  LYS187      0.0206
     81  CE        85.8750   72.4200   33.1450 C.3   187  LYS187      0.1093
     82  NZ        86.8030   71.2570   33.1340 N.3   187  LYS187     -0.1314
     83  N         90.2730   74.5070   25.3990 N.3   260  ARG260     -0.1245
     84  CA        90.3720   74.1290   23.9960 C.3   260  ARG260      0.1563
     85  C         89.6630   75.1480   23.1120 C.2   260  ARG260      0.2260
     86  O         88.5520   75.5840   23.4200 O.2   260  ARG260     -0.2867
     87  CB        89.7780   72.7390   23.7660 C.3   260  ARG260      0.0307
     88  CG        90.4330   71.6260   24.5650 C.3   260  ARG260      0.0489
     89  CD        89.8360   70.2780   24.1870 C.3   260  ARG260      0.2205
     90  NE        90.1030   69.9370   22.7920 N.pl3 260  ARG260     -0.0865
     91  CZ        89.3700   69.0920   22.0730 C.cat 260  ARG260      0.5346
     92  NH1       88.3110   68.5030   22.6110 N.pl3 260  ARG260      0.1354
     93  NH2       89.6920   68.8420   20.8110 N.pl3 260  ARG260      0.1354
     94  N         93.2500   72.7630   33.9200 N.3   277  HIS277     -0.1241
     95  CA        94.6690   72.5730   33.6560 C.3   277  HIS277      0.1621
     96  C         95.4130   73.8880   33.8480 C.2   277  HIS277      0.2264
     97  O         94.8880   74.9560   33.5310 O.2   277  HIS277     -0.2867
     98  CB        94.8890   72.0350   32.2420 C.3   277  HIS277      0.0745
     99  CG        94.2000   70.7330   31.9780 C.ar  277  HIS277      0.0817
    100  ND1       94.7650   69.5160   32.2930 N.ar  277  HIS277     -0.2268
    101  CD2       92.9920   70.4570   31.4330 C.ar  277  HIS277      0.1154
    102  CE1       93.9360   68.5470   31.9530 C.ar  277  HIS277      0.1986
    103  NE2       92.8520   69.0910   31.4280 N.ar  277  HIS277     -0.2212
@<TRIPOS>BOND
     1    93    91    1
     2    91    92    1
     3    91    90    2
     4    90    89    1
     5    85    86    2
     6    85    84    1
     7    87    84    1
     8    87    88    1
     9    84    83    1
    10    89    88    1
    11    58    57    2
    12     7     6    2
    13    73    72    1
    14    57    56    1
    15     6     8   am
    16     6     5    1
    17    70    72   ar
    18    70    68   ar
    19     1     2    1
    20    72    71   ar
    21    61    59    1
    22    23    20    1
    23    23    24    1
    24    56    59    1
    25    56    55    1
    26     2     5    1
    27     2     3    1
    28    20    19    1
    29    20    21    1
    30    68    67   ar
    31    59    60    1
    32    26    24   ar
    33    24    25   ar
    34    71    69   ar
    35    22    21    2
    36    21    27   am
    37     3     4    2
    38    67    69   ar
    39    67    66    1
    40    27    28    1
    41    62    63    1
    42    63    66    1
    43    63    64    1
    44   103   101   ar
    45   103   102   ar
    46   101    99   ar
    47   102   100   ar
    48    99    98    1
    49    99   100   ar
    50    98    95    1
    51    28    29    1
    52    28    31    1
    53    36    34   ar
    54    36    35   ar
    55    64    65    2
    56    34    32   ar
    57    11    12    2
    58    11    10    1
    59    29    30    2
    60    35    33   ar
    61    53    52   ar
    62    32    33   ar
    63    32    31    1
    64    82    81    1
    65    81    80    1
    66    54    52   ar
    67    13    10    1
    68    13    14    1
    69    97    96    2
    70    10     9    1
    71    95    96    1
    72    95    94    1
    73    52    51    1
    74    14    15   ar
    75    14    16   ar
    76    80    79    1
    77    15    17   ar
    78    16    18   ar
    79    17    18   ar
    80    45    46   ar
    81    45    43   ar
    82    51    48    1
    83    46    44   ar
    84    79    78    1
    85    48    47    1
    86    48    49    1
    87    43    42   ar
    88    78    75    1
    89    44    42   ar
    90    49    50    2
    91    42    41    1
    92    75    74    1
    93    75    76    1
    94    77    76    2
    95    40    39    2
    96    41    38    1
    97    39    38    1
    98    38    37    1
