@<TRIPOS>MOLECULE
tmp/5ahsE01.pdb
 216 206 0 0 0
SMALL
GASTEIGER

@<TRIPOS>ATOM
      1  N        -13.8170   49.9830  -32.8490 N.3    83  ARG83      -0.1245
      2  CA       -13.8320   49.8050  -34.2960 C.3    83  ARG83       0.1563
      3  C        -14.7460   48.6630  -34.7190 C.2    83  ARG83       0.2260
      4  O        -15.3670   48.7160  -35.7810 O.2    83  ARG83      -0.2867
      5  CB       -12.4200   49.5570  -34.8210 C.3    83  ARG83       0.0307
      6  CG       -11.5160   50.7720  -34.7550 C.3    83  ARG83       0.0489
      7  CD       -10.4040   50.6540  -35.7750 C.3    83  ARG83       0.2205
      8  NE       -10.9310   50.6150  -37.1350 N.pl3  83  ARG83      -0.0865
      9  CZ       -10.2580   50.1570  -38.1850 C.cat  83  ARG83       0.5346
     10  NH1       -9.0270   49.6870  -38.0340 N.pl3  83  ARG83       0.1354
     11  NH2      -10.8170   50.1630  -39.3870 N.pl3  83  ARG83       0.1354
     12  N        -17.8440   48.8620  -37.5180 N.3    87  ASP87      -0.1239
     13  CA       -17.9740   48.0520  -38.7270 C.3    87  ASP87       0.1674
     14  C        -19.2140   47.1610  -38.7170 C.2    87  ASP87       0.2266
     15  O        -19.7400   46.8090  -39.7730 O.2    87  ASP87      -0.2867
     16  CB       -16.7270   47.1860  -38.9200 C.3    87  ASP87       0.1410
     17  CG       -15.5070   47.9950  -39.3120 C.2    87  ASP87       0.3668
     18  OD1      -15.4780   49.2130  -39.0320 O.co2  87  ASP87      -0.2456
     19  OD2      -14.5730   47.4070  -39.9000 O.co2  87  ASP87      -0.2456
     20  N        -15.3080   46.0820  -45.3200 N.3   120  ILE120     -0.1245
     21  CA       -15.4860   46.8360  -46.5520 C.3   120  ILE120      0.1561
     22  C        -14.1590   46.8820  -47.3100 C.2   120  ILE120      0.2260
     23  O        -13.0940   47.0320  -46.7110 O.2   120  ILE120     -0.2867
     24  CB       -16.0260   48.2620  -46.2730 C.3   120  ILE120      0.0252
     25  CG1      -16.4060   48.9610  -47.5790 C.3   120  ILE120      0.0019
     26  CG2      -15.0300   49.0840  -45.4610 C.3   120  ILE120      0.0019
     27  CD1      -17.2580   50.1920  -47.3810 C.3   120  ILE120      0.0001
     28  N        -12.3610   48.7730  -50.2870 N.3   122  ILE122     -0.1231
     29  CA       -12.2570   49.8400  -51.2710 C.3   122  ILE122      0.1692
     30  C        -10.8040   50.1170  -51.6230 C.2   122  ILE122      0.2593
     31  O        -10.4230   50.1140  -52.7930 O.2   122  ILE122     -0.2718
     32  CB       -12.9000   51.1430  -50.7600 C.3   122  ILE122      0.0266
     33  CG1      -14.2650   50.8600  -50.1310 C.3   122  ILE122      0.0019
     34  CG2      -13.0150   52.1560  -51.8880 C.3   122  ILE122      0.0020
     35  CD1      -14.8680   52.0500  -49.4180 C.3   122  ILE122      0.0001
     36  N         -9.9960   50.3420  -50.5920 N.am  123  SER123     -0.1938
     37  CA        -8.6350   50.8350  -50.7620 C.3   123  SER123      0.2055
     38  C         -7.7010   49.8370  -51.4370 C.2   123  SER123      0.2643
     39  O         -7.7690   48.6320  -51.1930 O.2   123  SER123     -0.2714
     40  CB        -8.0600   51.2410  -49.4060 C.3   123  SER123      0.2130
     41  OG        -8.9160   52.1650  -48.7560 O.3   123  SER123     -0.2179
     42  N         -6.8250   50.3620  -52.2850 N.am  124  GLU124     -0.1963
     43  CA        -5.8360   49.5620  -52.9920 C.3   124  GLU124      0.1718
     44  C         -4.4560   50.1900  -52.8230 C.2   124  GLU124      0.2458
     45  O         -4.3520   51.3990  -52.6180 O.2   124  GLU124     -0.2730
     46  CB        -6.2000   49.4500  -54.4730 C.3   124  GLU124      0.0428
     47  CG        -7.5740   48.8640  -54.7200 C.3   124  GLU124      0.1163
     48  CD        -7.8970   48.7440  -56.1920 C.2   124  GLU124      0.3649
     49  OE1       -7.0250   49.0680  -57.0260 O.co2 124  GLU124     -0.2457
     50  OE2       -9.0270   48.3250  -56.5120 O.co2 124  GLU124     -0.2457
     51  N         -3.3930   49.3690  -52.8970 N.am  125  PRO125     -0.2727
     52  CA        -2.0050   49.8270  -52.7420 C.3   125  PRO125      0.1402
     53  C         -1.6480   51.0560  -53.5810 C.2   125  PRO125      0.2269
     54  O         -0.7500   51.8080  -53.2030 O.2   125  PRO125     -0.2865
     55  CB        -1.1950   48.6130  -53.1960 C.3   125  PRO125      0.0296
     56  CG        -2.0430   47.4580  -52.8130 C.3   125  PRO125      0.0237
     57  CD        -3.4680   47.9020  -53.0270 C.3   125  PRO125      0.0939
     58  N         -5.9720   54.9280  -52.8170 N.3   128  GLY128     -0.1210
     59  CA        -6.5360   55.1650  -51.5020 C.3   128  GLY128      0.1956
     60  C         -7.3550   56.4390  -51.4660 C.2   128  GLY128      0.2613
     61  O         -8.5840   56.3970  -51.4060 O.2   128  GLY128     -0.2717
     62  N         -6.6690   57.5770  -51.4990 N.am  129  SER129     -0.1938
     63  CA        -7.3410   58.8680  -51.5460 C.3   129  SER129      0.2055
     64  C         -8.0930   59.0070  -52.8650 C.2   129  SER129      0.2642
     65  O         -9.2490   59.4280  -52.8920 O.2   129  SER129     -0.2714
     66  CB        -6.3370   60.0100  -51.3740 C.3   129  SER129      0.2130
     67  OG        -5.6640   59.9110  -50.1310 O.3   129  SER129     -0.2179
     68  N         -7.4280   58.6390  -53.9550 N.am  130  ALA130     -0.1977
     69  CA        -8.0550   58.6190  -55.2700 C.3   130  ALA130      0.1597
     70  C         -8.7180   57.2680  -55.5130 C.2   130  ALA130      0.2287
     71  O         -8.2840   56.5000  -56.3700 O.2   130  ALA130     -0.2864
     72  CB        -7.0320   58.9150  -56.3530 C.3   130  ALA130      0.0319
     73  N         -6.0320   46.2790  -49.8340 N.3   152  TYR152     -0.1227
     74  CA        -5.1610   46.1630  -48.6670 C.3   152  TYR152      0.1736
     75  C         -5.7020   46.9580  -47.4820 C.2   152  TYR152      0.2595
     76  O         -6.6590   47.7210  -47.6220 O.2   152  TYR152     -0.2718
     77  CB        -3.7250   46.5920  -49.0130 C.3   152  TYR152      0.0548
     78  CG        -3.4520   48.0830  -49.1130 C.ar  152  TYR152     -0.0200
     79  CD1       -4.4390   48.9840  -49.4980 C.ar  152  TYR152     -0.0009
     80  CD2       -2.1850   48.5850  -48.8390 C.ar  152  TYR152     -0.0009
     81  CE1       -4.1750   50.3390  -49.5860 C.ar  152  TYR152      0.0417
     82  CE2       -1.9110   49.9360  -48.9310 C.ar  152  TYR152      0.0417
     83  CZ        -2.9080   50.8070  -49.3050 C.ar  152  TYR152      0.1957
     84  OH        -2.6390   52.1540  -49.3960 O.3   152  TYR152     -0.2866
     85  N         -5.0830   46.7650  -46.3200 N.am  153  TRP153     -0.1962
     86  CA        -5.5440   47.3620  -45.0680 C.3   153  TRP153      0.1771
     87  C         -7.0140   47.0590  -44.8030 C.2   153  TRP153      0.2619
     88  O         -7.7350   47.8890  -44.2610 O.2   153  TRP153     -0.2715
     89  CB        -5.3060   48.8790  -45.0660 C.3   153  TRP153      0.0590
     90  CG        -3.8840   49.2340  -44.7770 C.ar  153  TRP153      0.0006
     91  CD1       -2.9240   49.5830  -45.6810 C.ar  153  TRP153      0.0946
     92  CD2       -3.2520   49.2470  -43.4930 C.ar  153  TRP153      0.0152
     93  NE1       -1.7340   49.8220  -45.0370 N.ar  153  TRP153     -0.2442
     94  CE2       -1.9090   49.6220  -43.6930 C.ar  153  TRP153      0.0810
     95  CE3       -3.6920   48.9820  -42.1930 C.ar  153  TRP153      0.0012
     96  CZ2       -1.0020   49.7370  -42.6420 C.ar  153  TRP153      0.0191
     97  CZ3       -2.7900   49.0980  -41.1500 C.ar  153  TRP153      0.0001
     98  CH2       -1.4610   49.4720  -41.3810 C.ar  153  TRP153      0.0015
     99  N         -7.4490   45.8620  -45.1820 N.am  154  ILE154     -0.1963
    100  CA        -8.8270   45.4470  -44.9500 C.3   154  ILE154      0.1727
    101  C         -9.0480   45.1150  -43.4800 C.2   154  ILE154      0.2616
    102  O         -8.4850   44.1540  -42.9560 O.2   154  ILE154     -0.2715
    103  CB        -9.2060   44.2280  -45.8100 C.3   154  ILE154      0.0290
    104  CG1       -8.9720   44.5330  -47.2910 C.3   154  ILE154      0.0022
    105  CG2      -10.6530   43.8230  -45.5530 C.3   154  ILE154      0.0023
    106  CD1       -9.7110   45.7610  -47.7820 C.3   154  ILE154      0.0001
    107  N         -9.8710   45.9200  -42.8180 N.am  155  THR155     -0.1951
    108  CA       -10.1380   45.7340  -41.3990 C.3   155  THR155      0.1897
    109  C        -11.0390   44.5270  -41.1630 C.2   155  THR155      0.2313
    110  O        -12.2460   44.5760  -41.4070 O.2   155  THR155     -0.2863
    111  CB       -10.7750   46.9930  -40.7850 C.3   155  THR155      0.1794
    112  OG1       -9.8390   48.0750  -40.8520 O.3   155  THR155     -0.2208
    113  CG2      -11.1480   46.7570  -39.3340 C.3   155  THR155      0.0378
    114  N         -1.2890   50.9220  -33.7900 N.3   203  GLY203     -0.1225
    115  CA        -2.2650   50.7500  -32.7280 C.3   203  GLY203      0.1811
    116  C         -3.5270   50.0580  -33.2080 C.2   203  GLY203      0.2280
    117  O         -3.6250   49.6840  -34.3790 O.2   203  GLY203     -0.2866
    118  N         -5.3340   43.6630  -40.0140 N.3   209  GLU209     -0.1245
    119  CA        -5.3850   44.4400  -41.2420 C.3   209  GLU209      0.1567
    120  C         -4.5810   43.7120  -42.3110 C.2   209  GLU209      0.2260
    121  O         -3.3570   43.6340  -42.2230 O.2   209  GLU209     -0.2867
    122  CB        -4.8330   45.8490  -41.0150 C.3   209  GLU209      0.0388
    123  CG        -5.3610   46.5390  -39.7630 C.3   209  GLU209      0.1160
    124  CD        -6.7720   47.0710  -39.9300 C.2   209  GLU209      0.3649
    125  OE1       -7.2420   47.1680  -41.0830 O.co2 209  GLU209     -0.2457
    126  OE2       -7.4100   47.3970  -38.9060 O.co2 209  GLU209     -0.2457
    127  N        -20.7730   55.7170  -46.2490 N.3   242  TYR242     -0.1241
    128  CA       -19.4900   55.8280  -45.5670 C.3   242  TYR242      0.1605
    129  C        -19.4020   57.1050  -44.7330 C.2   242  TYR242      0.2264
    130  O        -18.4940   57.2550  -43.9160 O.2   242  TYR242     -0.2867
    131  CB       -18.3410   55.7790  -46.5750 C.3   242  TYR242      0.0534
    132  CG       -17.1160   55.0590  -46.0580 C.ar  242  TYR242     -0.0201
    133  CD1      -17.0250   53.6760  -46.1250 C.ar  242  TYR242     -0.0009
    134  CD2      -16.0520   55.7590  -45.5010 C.ar  242  TYR242     -0.0009
    135  CE1      -15.9120   53.0090  -45.6530 C.ar  242  TYR242      0.0417
    136  CE2      -14.9320   55.0990  -45.0260 C.ar  242  TYR242      0.0417
    137  CZ       -14.8690   53.7230  -45.1060 C.ar  242  TYR242      0.1957
    138  OH       -13.7620   53.0540  -44.6370 O.3   242  TYR242     -0.2866
    139  N        -19.8700   55.9130  -41.4270 N.3   245  GLN245     -0.1245
    140  CA       -18.6620   55.2350  -40.9760 C.3   245  GLN245      0.1566
    141  C        -17.6890   56.2400  -40.3670 C.2   245  GLN245      0.2260
    142  O        -17.0830   55.9830  -39.3270 O.2   245  GLN245     -0.2867
    143  CB       -18.0000   54.4870  -42.1380 C.3   245  GLN245      0.0367
    144  CG       -16.6970   53.7780  -41.7870 C.3   245  GLN245      0.0905
    145  CD       -16.9160   52.3800  -41.2350 C.2   245  GLN245      0.2608
    146  OE1      -18.0420   51.9910  -40.9240 O.2   245  GLN245     -0.2717
    147  NE2      -15.8360   51.6130  -41.1200 N.am  245  GLN245     -0.0878
    148  N         -4.4990   56.5380  -35.9850 N.3   360  MET360     -0.1245
    149  CA        -4.9960   56.0580  -37.2770 C.3   360  MET360      0.1570
    150  C         -6.1660   56.8670  -37.8360 C.2   360  MET360      0.2261
    151  O         -6.4460   56.8100  -39.0330 O.2   360  MET360     -0.2867
    152  CB        -5.4210   54.5890  -37.1810 C.3   360  MET360      0.0387
    153  CG        -6.5190   54.3090  -36.1660 C.3   360  MET360      0.0595
    154  SD        -7.3240   52.7140  -36.4410 S.3   360  MET360     -0.1393
    155  CE        -8.4770   53.1290  -37.7480 C.3   360  MET360      0.0692
    156  N         -6.2030   59.2020  -40.7900 N.3   363  ILE363     -0.1231
    157  CA        -5.7700   58.5320  -42.0130 C.3   363  ILE363      0.1692
    158  C         -6.8320   57.5890  -42.5780 C.2   363  ILE363      0.2592
    159  O         -7.2410   57.7230  -43.7330 O.2   363  ILE363     -0.2718
    160  CB        -4.4760   57.7260  -41.7810 C.3   363  ILE363      0.0266
    161  CG1       -3.3280   58.6580  -41.3860 C.3   363  ILE363      0.0019
    162  CG2       -4.1140   56.9310  -43.0260 C.3   363  ILE363      0.0020
    163  CD1       -2.0480   57.9330  -41.0180 C.3   363  ILE363      0.0001
    164  N         -7.2710   56.6350  -41.7630 N.am  364  ALA364     -0.1966
    165  CA        -8.2100   55.6110  -42.2170 C.3   364  ALA364      0.1728
    166  C         -9.5930   56.1910  -42.4960 C.2   364  ALA364      0.2617
    167  O        -10.1060   56.9980  -41.7220 O.2   364  ALA364     -0.2715
    168  CB        -8.3060   54.4890  -41.1900 C.3   364  ALA364      0.0334
    169  N        -10.1890   55.7690  -43.6080 N.am  365  GLY365     -0.1940
    170  CA       -11.5090   56.2310  -43.9970 C.3   365  GLY365      0.2014
    171  C        -11.4870   57.6320  -44.5750 C.2   365  GLY365      0.2639
    172  O        -12.4170   58.4120  -44.3710 O.2   365  GLY365     -0.2714
    173  N        -10.4230   57.9490  -45.3060 N.am  366  GLY366     -0.1939
    174  CA       -10.2330   59.2850  -45.8410 C.3   366  GLY366      0.2014
    175  C         -9.4260   60.1400  -44.8820 C.2   366  GLY366      0.2639
    176  O         -9.8640   60.4100  -43.7650 O.2   366  GLY366     -0.2714
    177  N         -8.2440   60.5610  -45.3190 N.am  367  THR367     -0.1950
    178  CA        -7.3380   61.3270  -44.4690 C.3   367  THR367      0.1897
    179  C         -7.9020   62.7070  -44.1520 C.2   367  THR367      0.2313
    180  O         -8.8160   63.1840  -44.8250 O.2   367  THR367     -0.2863
    181  CB        -5.9510   61.4870  -45.1230 C.3   367  THR367      0.1794
    182  OG1       -6.0570   62.3180  -46.2860 O.3   367  THR367     -0.2208
    183  CG2       -5.3870   60.1280  -45.5200 C.3   367  THR367      0.0378
    184  N         -6.5900   65.4530  -44.6500 N.3   369  GLN369     -0.1231
    185  CA        -6.2960   66.3260  -45.7790 C.3   369  GLN369      0.1698
    186  C         -7.3820   66.2150  -46.8420 C.2   369  GLN369      0.2592
    187  O         -7.8380   67.2210  -47.3880 O.2   369  GLN369     -0.2718
    188  CB        -4.9330   65.9860  -46.3880 C.3   369  GLN369      0.0381
    189  CG        -3.7420   66.2590  -45.4770 C.3   369  GLN369      0.0905
    190  CD        -3.6480   65.2850  -44.3230 C.2   369  GLN369      0.2608
    191  OE1       -3.9840   64.1090  -44.4620 O.2   369  GLN369     -0.2717
    192  NE2       -3.2030   65.7720  -43.1710 N.am  369  GLN369     -0.0878
    193  N         -7.7880   64.9840  -47.1320 N.am  370  ILE370     -0.1980
    194  CA        -8.8210   64.7290  -48.1280 C.3   370  ILE370      0.1595
    195  C        -10.1630   65.2640  -47.6390 C.2   370  ILE370      0.2287
    196  O        -10.9590   65.7800  -48.4240 O.2   370  ILE370     -0.2864
    197  CB        -8.9170   63.2150  -48.4610 C.3   370  ILE370      0.0276
    198  CG1       -8.3200   62.9380  -49.8410 C.3   370  ILE370      0.0022
    199  CG2      -10.3560   62.7110  -48.3990 C.3   370  ILE370      0.0022
    200  CD1       -6.8900   63.4010  -49.9900 C.3   370  ILE370      0.0001
    201  N        -10.3770   69.0750  -48.1380 N.3   373  THR373     -0.1218
    202  CA       -10.7100   69.3950  -49.5200 C.3   373  THR373      0.1862
    203  C        -12.2100   69.2260  -49.7480 C.2   373  THR373      0.2287
    204  O        -12.8350   70.0230  -50.4480 O.2   373  THR373     -0.2866
    205  CB        -9.9220   68.5110  -50.5070 C.3   373  THR373      0.1770
    206  OG1       -8.5170   68.7340  -50.3300 O.3   373  THR373     -0.2211
    207  CG2      -10.3010   68.8340  -51.9450 C.3   373  THR373      0.0375
    208  N         -8.2180   67.2430  -58.3390 N.3   386  GLN386     -0.1245
    209  CA        -6.8350   67.1820  -57.8940 C.3   386  GLN386      0.1566
    210  C         -5.8890   66.9010  -59.0560 C.2   386  GLN386      0.2260
    211  O         -4.6730   67.0330  -58.9210 O.2   386  GLN386     -0.2867
    212  CB        -6.6790   66.1170  -56.8080 C.3   386  GLN386      0.0367
    213  CG        -7.5780   66.3460  -55.6010 C.3   386  GLN386      0.0905
    214  CD        -7.2750   67.6530  -54.8900 C.2   386  GLN386      0.2608
    215  OE1       -6.1160   67.9750  -54.6260 O.2   386  GLN386     -0.2717
    216  NE2       -8.3180   68.4170  -54.5840 N.am  386  GLN386     -0.0878
@<TRIPOS>BOND
     1   210   211    2
     2   210   209    1
     3   208   209    1
     4   209   212    1
     5    49    48   ar
     6   212   213    1
     7    50    48   ar
     8    71    70    2
     9    72    69    1
    10    48    47    1
    11   213   214    1
    12    70    69    1
    13    69    68    1
    14   214   215    2
    15   214   216   am
    16    47    46    1
    17    46    43    1
    18    68    64   am
    19    53    54    2
    20    53    52    1
    21    55    56    1
    22    55    52    1
    23    57    51    1
    24    57    56    1
    25    43    44    1
    26    43    42    1
    27    51    44   am
    28    51    52    1
    29    65    64    2
    30    64    63    1
    31    44    45    2
    32    58    59    1
    33    31    30    2
    34    42    38   am
    35   207   205    1
    36    34    32    1
    37    30    29    1
    38    30    36   am
    39    63    62    1
    40    63    66    1
    41    59    60    1
    42    62    60   am
    43    60    61    2
    44    38    39    2
    45    38    37    1
    46    66    67    1
    47    29    32    1
    48    29    28    1
    49    37    36    1
    50    37    40    1
    51    32    33    1
    52   205   206    1
    53   205   202    1
    54   204   203    2
    55    33    35    1
    56   200   198    1
    57   198   197    1
    58    73    74    1
    59   203   202    1
    60    81    79   ar
    61    81    83   ar
    62   202   201    1
    63    79    78   ar
    64    40    41    1
    65    84    83    1
    66    83    82   ar
    67    78    77    1
    68    78    80   ar
    69    77    74    1
    70    82    80   ar
    71    74    75    1
    72   197   199    1
    73   197   194    1
    74   196   195    2
    75   194   195    1
    76   194   193    1
    77   106   104    1
    78    76    75    2
    79    25    27    1
    80    25    24    1
    81    75    85   am
    82   187   186    2
    83    22    23    2
    84    22    21    1
    85   104   103    1
    86   193   186   am
    87   186   185    1
    88   131   132    1
    89   131   128    1
    90    21    24    1
    91    21    20    1
    92   188   185    1
    93   188   189    1
    94    85    86    1
    95   182   181    1
    96    24    26    1
    97   127   128    1
    98   133   132   ar
    99   133   135   ar
   100   132   134   ar
   101   174   173    1
   102   174   175    1
   103   103   105    1
   104   103   100    1
   105   185   184    1
   106    91    93   ar
   107    91    90   ar
   108   135   137   ar
   109   128   129    1
   110   183   181    1
   111   134   136   ar
   112   189   190    1
   113   177   175   am
   114   177   178    1
   115   173   171   am
   116    99   100    1
   117    99    87   am
   118   181   178    1
   119   137   136   ar
   120   137   138    1
   121    86    89    1
   122    86    87    1
   123    89    90    1
   124    93    94   ar
   125   100   101    1
   126   175   176    2
   127   180   179    2
   128    87    88    2
   129    90    92   ar
   130   129   130    2
   131   171   172    2
   132   171   170    1
   133   178   179    1
   134   191   190    2
   135   190   192   am
   136   170   169    1
   137   159   158    2
   138    94    92   ar
   139    94    96   ar
   140   169   166   am
   141    92    95   ar
   142   101   102    2
   143   101   107   am
   144   162   160    1
   145   107   108    1
   146    96    98   ar
   147   158   157    1
   148   158   164   am
   149   166   165    1
   150   166   167    2
   151   120   121    2
   152   120   119    1
   153   165   164    1
   154   165   168    1
   155    95    97   ar
   156   143   144    1
   157   143   140    1
   158   157   160    1
   159   157   156    1
   160   144   145    1
   161   160   161    1
   162   139   140    1
   163   110   109    2
   164   108   109    1
   165   108   111    1
   166   161   163    1
   167    98    97   ar
   168   119   122    1
   169   119   118    1
   170   145   147   am
   171   145   146    2
   172   125   124   ar
   173   122   123    1
   174   140   141    1
   175   112   111    1
   176   111   113    1
   177   141   142    2
   178   124   123    1
   179   124   126   ar
   180    19    17   ar
   181    15    14    2
   182    11     9    1
   183    17    18   ar
   184    17    16    1
   185   151   150    2
   186    16    13    1
   187    13    14    1
   188    13    12    1
   189     9    10    1
   190     9     8    2
   191   150   149    1
   192   155   154    1
   193   149   152    1
   194   149   148    1
   195   152   153    1
   196     8     7    1
   197   154   153    1
   198     4     3    2
   199     7     6    1
   200     5     6    1
   201     5     2    1
   202     3     2    1
   203   117   116    2
   204     2     1    1
   205   114   115    1
   206   116   115    1
