@<TRIPOS>MOLECULE
tmp/5ahsE00.pdb
 133 131 0 0 0
SMALL
GASTEIGER

@<TRIPOS>ATOM
      1  N         -5.0820   60.6280  -12.2930 N.3   267  TYR267     -0.1241
      2  CA        -3.6840   60.5100  -11.8990 C.3   267  TYR267      0.1605
      3  C         -3.1650   61.8120  -11.2990 C.2   267  TYR267      0.2264
      4  O         -2.3920   61.7920  -10.3440 O.2   267  TYR267     -0.2867
      5  CB        -2.8170   60.1010  -13.0900 C.3   267  TYR267      0.0534
      6  CG        -1.3770   59.8140  -12.7210 C.ar  267  TYR267     -0.0201
      7  CD1       -1.0190   58.6130  -12.1210 C.ar  267  TYR267     -0.0009
      8  CD2       -0.3750   60.7440  -12.9710 C.ar  267  TYR267     -0.0009
      9  CE1        0.2940   58.3460  -11.7810 C.ar  267  TYR267      0.0417
     10  CE2        0.9420   60.4870  -12.6340 C.ar  267  TYR267      0.0417
     11  CZ         1.2710   59.2870  -12.0400 C.ar  267  TYR267      0.1957
     12  OH         2.5800   59.0280  -11.7030 O.3   267  TYR267     -0.2866
     13  N         -1.3920   61.4140   -7.7330 N.3   271  ARG271     -0.1245
     14  CA         0.0590   61.5630   -7.8120 C.3   271  ARG271      0.1563
     15  C          0.4940   62.8560   -7.1370 C.2   271  ARG271      0.2260
     16  O         -0.0910   63.9120   -7.3730 O.2   271  ARG271     -0.2867
     17  CB         0.5290   61.5400   -9.2670 C.3   271  ARG271      0.0307
     18  CG         1.9990   61.8750   -9.4660 C.3   271  ARG271      0.0489
     19  CD         2.9080   60.8740   -8.7820 C.3   271  ARG271      0.2205
     20  NE         4.2800   60.9820   -9.2690 N.pl3 271  ARG271     -0.0865
     21  CZ         5.2870   60.2250   -8.8460 C.cat 271  ARG271      0.5346
     22  NH1        5.0800   59.3020   -7.9170 N.pl3 271  ARG271      0.1354
     23  NH2        6.5010   60.3930   -9.3490 N.pl3 271  ARG271      0.1354
     24  N          3.7350   65.5170   -6.0550 N.3   273  GLN273     -0.1231
     25  CA         5.0980   66.0240   -6.0980 C.3   273  GLN273      0.1698
     26  C          5.1360   67.3660   -5.3850 C.2   273  GLN273      0.2592
     27  O          4.1520   68.1090   -5.3970 O.2   273  GLN273     -0.2718
     28  CB         5.5940   66.1580   -7.5390 C.3   273  GLN273      0.0381
     29  CG         5.8710   64.8320   -8.2300 C.3   273  GLN273      0.0905
     30  CD         7.0490   64.0890   -7.6260 C.2   273  GLN273      0.2608
     31  OE1        8.2030   64.3330   -7.9850 O.2   273  GLN273     -0.2717
     32  NE2        6.7640   63.1730   -6.7050 N.am  273  GLN273     -0.0878
     33  N          6.2700   67.6600   -4.7560 N.am  274  PHE274     -0.1976
     34  CA         6.4460   68.8850   -3.9820 C.3   274  PHE274      0.1639
     35  C          5.4310   68.9660   -2.8430 C.2   274  PHE274      0.2290
     36  O          5.0130   70.0530   -2.4440 O.2   274  PHE274     -0.2864
     37  CB         6.3450   70.1180   -4.8880 C.3   274  PHE274      0.0560
     38  CG         7.3190   70.1050   -6.0340 C.ar  274  PHE274     -0.0200
     39  CD1        8.5920   70.6330   -5.8850 C.ar  274  PHE274     -0.0042
     40  CD2        6.9640   69.5600   -7.2580 C.ar  274  PHE274     -0.0042
     41  CE1        9.4920   70.6190   -6.9360 C.ar  274  PHE274     -0.0003
     42  CE2        7.8590   69.5430   -8.3140 C.ar  274  PHE274     -0.0003
     43  CZ         9.1250   70.0730   -8.1530 C.ar  274  PHE274     -0.0000
     44  N         -0.6620   66.8660   -8.1460 N.3   278  LEU278     -0.1245
     45  CA        -0.3120   67.6030   -9.3550 C.3   278  LEU278      0.1561
     46  C         -1.4600   68.4950   -9.8130 C.2   278  LEU278      0.2260
     47  O         -1.2470   69.4830  -10.5150 O.2   278  LEU278     -0.2867
     48  CB         0.0700   66.6410  -10.4810 C.3   278  LEU278      0.0270
     49  CG         1.2030   65.6500  -10.2240 C.3   278  LEU278      0.0019
     50  CD1        1.4080   64.7770  -11.4500 C.3   278  LEU278      0.0001
     51  CD2        2.4870   66.3760   -9.8560 C.3   278  LEU278      0.0001
     52  N         -1.4140   72.3430   -9.5050 N.3   281  PHE281     -0.1241
     53  CA        -0.5690   73.1750  -10.3590 C.3   281  PHE281      0.1605
     54  C         -1.3660   73.7590  -11.5210 C.2   281  PHE281      0.2264
     55  O         -1.9750   73.0230  -12.2990 O.2   281  PHE281     -0.2867
     56  CB         0.6240   72.3760  -10.8860 C.3   281  PHE281      0.0534
     57  CG         1.5890   71.9580   -9.8170 C.ar  281  PHE281     -0.0203
     58  CD1        2.1940   72.9030   -9.0030 C.ar  281  PHE281     -0.0042
     59  CD2        1.8980   70.6210   -9.6280 C.ar  281  PHE281     -0.0042
     60  CE1        3.0840   72.5220   -8.0170 C.ar  281  PHE281     -0.0003
     61  CE2        2.7880   70.2340   -8.6440 C.ar  281  PHE281     -0.0003
     62  CZ         3.3820   71.1860   -7.8380 C.ar  281  PHE281     -0.0000
     63  N         -0.6480   75.2720  -14.3840 N.3   283  GLY283     -0.1210
     64  CA        -0.2660   74.8980  -15.7340 C.3   283  GLY283      0.1956
     65  C         -0.9030   73.5940  -16.1830 C.2   283  GLY283      0.2611
     66  O         -1.3290   73.4620  -17.3320 O.2   283  GLY283     -0.2717
     67  N         -0.9750   72.6300  -15.2700 N.am  284  LEU284     -0.1979
     68  CA        -1.6180   71.3540  -15.5540 C.3   284  LEU284      0.1596
     69  C         -3.1370   71.5040  -15.5740 C.2   284  LEU284      0.2287
     70  O         -3.8240   70.8240  -16.3350 O.2   284  LEU284     -0.2864
     71  CB        -1.2010   70.3000  -14.5260 C.3   284  LEU284      0.0297
     72  CG         0.2920   69.9640  -14.4840 C.3   284  LEU284      0.0022
     73  CD1        0.5780   68.9180  -13.4200 C.3   284  LEU284      0.0001
     74  CD2        0.7790   69.4940  -15.8480 C.3   284  LEU284      0.0001
     75  N          1.4120   62.8690  -20.9160 N.3   338  GLN338     -0.1231
     76  CA         2.3710   63.7630  -20.2760 C.3   338  GLN338      0.1698
     77  C          2.1090   63.8920  -18.7780 C.2   338  GLN338      0.2592
     78  O          3.0420   64.0570  -17.9930 O.2   338  GLN338     -0.2718
     79  CB         2.3360   65.1440  -20.9370 C.3   338  GLN338      0.0381
     80  CG         3.4710   66.0730  -20.5210 C.3   338  GLN338      0.0905
     81  CD         4.8230   65.6430  -21.0710 C.2   338  GLN338      0.2608
     82  OE1        4.9030   64.8500  -22.0100 O.2   338  GLN338     -0.2717
     83  NE2        5.8930   66.1700  -20.4860 N.am  338  GLN338     -0.0878
     84  N          0.8390   63.8080  -18.3870 N.am  339  PHE339     -0.1962
     85  CA         0.4600   63.8730  -16.9770 C.3   339  PHE339      0.1771
     86  C          1.0900   62.7500  -16.1630 C.2   339  PHE339      0.2620
     87  O          1.3890   62.9260  -14.9840 O.2   339  PHE339     -0.2715
     88  CB        -1.0610   63.8180  -16.8220 C.3   339  PHE339      0.0574
     89  CG        -1.7670   65.0520  -17.2940 C.ar  339  PHE339     -0.0200
     90  CD1       -1.0860   66.2500  -17.4320 C.ar  339  PHE339     -0.0042
     91  CD2       -3.1160   65.0140  -17.5970 C.ar  339  PHE339     -0.0042
     92  CE1       -1.7410   67.3890  -17.8680 C.ar  339  PHE339     -0.0003
     93  CE2       -3.7740   66.1460  -18.0300 C.ar  339  PHE339     -0.0003
     94  CZ        -3.0860   67.3360  -18.1680 C.ar  339  PHE339     -0.0000
     95  N          1.2810   61.5960  -16.7930 N.am  340  PHE340     -0.1960
     96  CA         1.8500   60.4410  -16.1070 C.3   340  PHE340      0.1771
     97  C          3.3670   60.5390  -15.9980 C.2   340  PHE340      0.2620
     98  O          3.9850   59.8330  -15.2020 O.2   340  PHE340     -0.2715
     99  CB         1.4570   59.1450  -16.8200 C.3   340  PHE340      0.0574
    100  CG         0.0860   58.6490  -16.4610 C.ar  340  PHE340     -0.0200
    101  CD1       -1.0420   59.2250  -17.0190 C.ar  340  PHE340     -0.0042
    102  CD2       -0.0740   57.6040  -15.5670 C.ar  340  PHE340     -0.0042
    103  CE1       -2.3070   58.7710  -16.6880 C.ar  340  PHE340     -0.0003
    104  CE2       -1.3360   57.1440  -15.2330 C.ar  340  PHE340     -0.0003
    105  CZ        -2.4530   57.7290  -15.7940 C.ar  340  PHE340     -0.0000
    106  N          3.9640   61.4210  -16.7920 N.am  341  GLY341     -0.1940
    107  CA         5.4060   61.5730  -16.7990 C.3   341  GLY341      0.2014
    108  C          6.0900   60.3500  -17.3800 C.2   341  GLY341      0.2640
    109  O          5.6980   59.8570  -18.4390 O.2   341  GLY341     -0.2714
    110  N          7.1110   59.8580  -16.6850 N.am  342  SER342     -0.1935
    111  CA         7.8750   58.7040  -17.1510 C.3   342  SER342      0.2055
    112  C          6.9980   57.4620  -17.2750 C.2   342  SER342      0.2643
    113  O          7.1500   56.6820  -18.2120 O.2   342  SER342     -0.2714
    114  CB         9.0500   58.4250  -16.2120 C.3   342  SER342      0.2130
    115  OG         9.9040   59.5520  -16.1180 O.3   342  SER342     -0.2179
    116  N          6.0750   57.2940  -16.3330 N.am  343  SER343     -0.1949
    117  CA         5.1620   56.1530  -16.3340 C.3   343  SER343      0.1924
    118  C          4.2920   56.1150  -17.5850 C.2   343  SER343      0.2314
    119  O          3.8800   55.0440  -18.0310 O.2   343  SER343     -0.2863
    120  CB         4.2710   56.1800  -15.0920 C.3   343  SER343      0.2116
    121  OG         5.0430   56.0920  -13.9080 O.3   343  SER343     -0.2180
    122  N          5.2460   56.6840  -20.4670 N.3   345  TYR345     -0.1241
    123  CA         6.0520   56.1730  -21.5680 C.3   345  TYR345      0.1605
    124  C          6.2260   54.6590  -21.4730 C.2   345  TYR345      0.2264
    125  O          6.6960   54.0190  -22.4140 O.2   345  TYR345     -0.2867
    126  CB         7.4180   56.8610  -21.5870 C.3   345  TYR345      0.0534
    127  CG         8.1490   56.7620  -22.9080 C.ar  345  TYR345     -0.0201
    128  CD1        7.6820   57.4300  -24.0330 C.ar  345  TYR345     -0.0009
    129  CD2        9.3150   56.0150  -23.0270 C.ar  345  TYR345     -0.0009
    130  CE1        8.3480   57.3500  -25.2410 C.ar  345  TYR345      0.0417
    131  CE2        9.9890   55.9280  -24.2310 C.ar  345  TYR345      0.0417
    132  CZ         9.4990   56.5960  -25.3340 C.ar  345  TYR345      0.1957
    133  OH        10.1640   56.5190  -26.5350 O.3   345  TYR345     -0.2866
@<TRIPOS>BOND
     1   133   132    1
     2   132   130   ar
     3   132   131   ar
     4   130   128   ar
     5   131   129   ar
     6   128   127   ar
     7   129   127   ar
     8   127   126    1
     9   125   124    2
    10    82    81    2
    11   126   123    1
    12   123   124    1
    13   123   122    1
    14    81    80    1
    15    81    83   am
    16    79    80    1
    17    79    76    1
    18    75    76    1
    19    76    77    1
    20    77    84   am
    21    77    78    2
    22   109   108    2
    23    84    85    1
    24   113   112    2
    25    94    93   ar
    26    94    92   ar
    27   119   118    2
    28    93    91   ar
    29    92    90   ar
    30    91    89   ar
    31   118   117    1
    32    90    89   ar
    33   108   107    1
    34   108   110   am
    35    66    65    2
    36    89    88    1
    37   112   111    1
    38   112   116   am
    39   111   110    1
    40   111   114    1
    41   101   103   ar
    42   101   100   ar
    43    85    88    1
    44    85    86    1
    45    99   100    1
    46    99    96    1
    47   107   106    1
    48    95    86   am
    49    95    96    1
    50   106    97   am
    51   103   105   ar
    52   100   102   ar
    53    70    69    2
    54   117   116    1
    55   117   120    1
    56   114   115    1
    57    65    64    1
    58    65    67   am
    59    86    87    2
    60    96    97    1
    61    97    98    2
    62    74    72    1
    63   105   104   ar
    64    64    63    1
    65    69    68    1
    66   102   104   ar
    67    68    67    1
    68    68    71    1
    69   120   121    1
    70    71    72    1
    71    72    73    1
    72     5     6    1
    73     5     2    1
    74     8     6   ar
    75     8    10   ar
    76     6     7   ar
    77    10    11   ar
    78    55    54    2
    79     1     2    1
    80     7     9   ar
    81    11     9   ar
    82    11    12    1
    83     2     3    1
    84    54    53    1
    85    50    49    1
    86     3     4    2
    87    56    53    1
    88    56    57    1
    89    47    46    2
    90    48    49    1
    91    48    45    1
    92    53    52    1
    93    49    51    1
    94    57    59   ar
    95    57    58   ar
    96    46    45    1
    97    59    61   ar
    98    18    17    1
    99    18    19    1
   100    45    44    1
   101    23    21    1
   102    20    21    2
   103    20    19    1
   104    17    14    1
   105    58    60   ar
   106    21    22    1
   107    61    62   ar
   108    42    43   ar
   109    42    40   ar
   110    29    30    1
   111    29    28    1
   112    43    41   ar
   113    60    62   ar
   114    31    30    2
   115    14    13    1
   116    14    15    1
   117    30    32   am
   118    28    25    1
   119    16    15    2
   120    40    38   ar
   121    41    39   ar
   122    25    24    1
   123    25    26    1
   124    38    39   ar
   125    38    37    1
   126    27    26    2
   127    26    33   am
   128    37    34    1
   129    33    34    1
   130    34    35    1
   131    35    36    2
