@<TRIPOS>MOLECULE
tmp/5ahsC01.pdb
 96 89 0 0 0
SMALL
GASTEIGER

@<TRIPOS>ATOM
      1  N         20.8310   57.9750  -28.1040 N.3    83  ARG83      -0.1245
      2  CA        20.8280   58.0870  -26.6480 C.3    83  ARG83       0.1563
      3  C         22.1040   57.5170  -26.0370 C.2    83  ARG83       0.2260
      4  O         22.6040   58.0340  -25.0380 O.2    83  ARG83      -0.2867
      5  CB        19.6090   57.3810  -26.0510 C.3    83  ARG83       0.0307
      6  CG        18.2810   58.0610  -26.3390 C.3    83  ARG83       0.0489
      7  CD        17.2430   57.6770  -25.2950 C.3    83  ARG83       0.2205
      8  NE        17.6210   58.1410  -23.9640 N.pl3  83  ARG83      -0.0865
      9  CZ        17.3100   57.5150  -22.8340 C.cat  83  ARG83       0.5346
     10  NH1       16.6150   56.3850  -22.8650 N.pl3  83  ARG83       0.1354
     11  NH2       17.7010   58.0170  -21.6700 N.pl3  83  ARG83       0.1354
     12  N         24.7280   59.9670  -26.1480 N.3    86  VAL86      -0.1231
     13  CA        24.5010   61.0010  -25.1410 C.3    86  VAL86       0.1692
     14  C         25.0550   60.5980  -23.7750 C.2    86  VAL86       0.2592
     15  O         25.8510   61.3260  -23.1810 O.2    86  VAL86      -0.2718
     16  CB        22.9990   61.3290  -24.9880 C.3    86  VAL86       0.0266
     17  CG1       22.7780   62.2990  -23.8350 C.3    86  VAL86       0.0020
     18  CG2       22.4450   61.9000  -26.2780 C.3    86  VAL86       0.0020
     19  N         24.6300   59.4380  -23.2820 N.am   87  ASP87      -0.1974
     20  CA        25.0190   58.9750  -21.9520 C.3    87  ASP87       0.1709
     21  C         26.5130   58.6820  -21.8300 C.2    87  ASP87       0.2293
     22  O         27.0720   58.7240  -20.7340 O.2    87  ASP87      -0.2864
     23  CB        24.2270   57.7230  -21.5730 C.3    87  ASP87       0.1436
     24  CG        22.7570   58.0060  -21.3480 C.2    87  ASP87       0.3671
     25  OD1       22.2830   59.0800  -21.7770 O.co2  87  ASP87      -0.2456
     26  OD2       22.0740   57.1500  -20.7450 O.co2  87  ASP87      -0.2456
     27  N         23.9170   68.1800  -15.9160 N.3   242  TYR242     -0.1241
     28  CA        22.7510   67.7040  -16.6490 C.3   242  TYR242      0.1605
     29  C         22.2860   68.7200  -17.6930 C.2   242  TYR242      0.2264
     30  O         21.4730   68.3980  -18.5570 O.2   242  TYR242     -0.2867
     31  CB        21.6140   67.3910  -15.6780 C.3   242  TYR242      0.0534
     32  CG        20.9720   66.0370  -15.8750 C.ar  242  TYR242     -0.0201
     33  CD1       21.7430   64.8840  -15.9450 C.ar  242  TYR242     -0.0009
     34  CD2       19.5900   65.9100  -15.9630 C.ar  242  TYR242     -0.0009
     35  CE1       21.1580   63.6430  -16.1170 C.ar  242  TYR242      0.0417
     36  CE2       18.9960   64.6720  -16.1300 C.ar  242  TYR242      0.0417
     37  CZ        19.7850   63.5420  -16.2060 C.ar  242  TYR242      0.1957
     38  OH        19.2030   62.3050  -16.3740 O.3   242  TYR242     -0.2866
     39  N         23.6040   67.3620  -20.8990 N.3   245  GLN245     -0.1245
     40  CA        22.9040   66.1720  -21.3670 C.3   245  GLN245      0.1566
     41  C         21.5690   66.5530  -22.0050 C.2   245  GLN245      0.2260
     42  O         21.0810   65.8590  -22.8960 O.2   245  GLN245     -0.2867
     43  CB        22.7070   65.1760  -20.2150 C.3   245  GLN245      0.0367
     44  CG        21.3360   65.1910  -19.5560 C.3   245  GLN245      0.0905
     45  CD        20.3640   64.2350  -20.2170 C.2   245  GLN245      0.2608
     46  OE1       20.7210   63.1090  -20.5630 O.2   245  GLN245     -0.2717
     47  NE2       19.1300   64.6830  -20.4070 N.am  245  GLN245     -0.0878
     48  N         20.2800   65.4160  -25.4550 N.3   249  ALA249     -0.1245
     49  CA        18.9780   64.7650  -25.5470 C.3   249  ALA249      0.1562
     50  C         18.1210   65.4150  -26.6280 C.2   249  ALA249      0.2260
     51  O         17.4060   64.7320  -27.3620 O.2   249  ALA249     -0.2867
     52  CB        18.2680   64.8160  -24.2070 C.3   249  ALA249      0.0290
     53  N         19.0500   64.2460  -30.1160 N.3   252  VAL252     -0.1245
     54  CA        18.4670   62.9670  -30.5000 C.3   252  VAL252      0.1561
     55  C         17.0680   63.1730  -31.0660 C.2   252  VAL252      0.2260
     56  O         16.7300   62.6210  -32.1120 O.2   252  VAL252     -0.2867
     57  CB        18.3940   61.9800  -29.3240 C.3   252  VAL252      0.0252
     58  CG1       17.9110   60.6230  -29.8130 C.3   252  VAL252      0.0019
     59  CG2       19.7490   61.8440  -28.6640 C.3   252  VAL252      0.0019
     60  N         15.8580   72.5590  -25.3510 N.3   322  LYS322     -0.1245
     61  CA        15.2770   71.2400  -25.1300 C.3   322  LYS322      0.1561
     62  C         13.7640   71.2680  -25.3190 C.2   322  LYS322      0.2260
     63  O         13.1910   70.3540  -25.9110 O.2   322  LYS322     -0.2867
     64  CB        15.6250   70.7220  -23.7320 C.3   322  LYS322      0.0271
     65  CG        15.1360   69.3050  -23.4580 C.3   322  LYS322      0.0035
     66  CD        15.8160   68.2940  -24.3690 C.3   322  LYS322      0.0206
     67  CE        15.2000   66.9080  -24.2270 C.3   322  LYS322      0.1093
     68  NZ        15.1700   66.4370  -22.8160 N.3   322  LYS322     -0.1314
     69  N          9.5300   60.5370  -25.8690 N.3   360  MET360     -0.1230
     70  CA        10.1190   60.5480  -24.5290 C.3   360  MET360      0.1702
     71  C         10.8450   61.8410  -24.1700 C.2   360  MET360      0.2592
     72  O         11.0870   62.1130  -22.9940 O.2   360  MET360     -0.2718
     73  CB        11.0960   59.3820  -24.3620 C.3   360  MET360      0.0401
     74  CG        12.2610   59.3920  -25.3340 C.3   360  MET360      0.0596
     75  SD        13.6240   58.3500  -24.7760 S.3   360  MET360     -0.1393
     76  CE        14.3990   59.4180  -23.5650 C.3   360  MET360      0.0692
     77  N         11.1920   62.6380  -25.1740 N.am  361  PHE361     -0.1976
     78  CA        12.1130   63.7480  -24.9520 C.3   361  PHE361      0.1639
     79  C         11.4520   65.0000  -24.3770 C.2   361  PHE361      0.2290
     80  O         12.1340   65.9670  -24.0420 O.2   361  PHE361     -0.2864
     81  CB        12.8460   64.0650  -26.2550 C.3   361  PHE361      0.0560
     82  CG        13.7030   62.9310  -26.7380 C.ar  361  PHE361     -0.0200
     83  CD1       14.9520   62.7060  -26.1820 C.ar  361  PHE361     -0.0042
     84  CD2       13.2460   62.0670  -27.7170 C.ar  361  PHE361     -0.0042
     85  CE1       15.7380   61.6530  -26.6090 C.ar  361  PHE361     -0.0003
     86  CE2       14.0290   61.0120  -28.1490 C.ar  361  PHE361     -0.0003
     87  CZ        15.2740   60.8040  -27.5930 C.ar  361  PHE361     -0.0000
     88  N         11.7740   62.7750  -20.2580 N.3   364  ALA364     -0.1231
     89  CA        12.9850   62.2700  -19.6130 C.3   364  ALA364      0.1694
     90  C         13.9950   63.3750  -19.3190 C.2   364  ALA364      0.2592
     91  O         14.2730   64.2190  -20.1680 O.2   364  ALA364     -0.2718
     92  CB        13.6270   61.1920  -20.4730 C.3   364  ALA364      0.0304
     93  N         14.5430   63.3550  -18.1080 N.am  365  GLY365     -0.1957
     94  CA        15.5520   64.3170  -17.7040 C.3   365  GLY365      0.1869
     95  C         15.0110   65.7240  -17.5520 C.2   365  GLY365      0.2309
     96  O         15.6420   66.6940  -17.9730 O.2   365  GLY365     -0.2863
@<TRIPOS>BOND
     1    56    55    2
     2    55    54    1
     3    54    53    1
     4    54    57    1
     5    58    57    1
     6    57    59    1
     7    86    84   ar
     8    86    87   ar
     9     1     2    1
    10    84    82   ar
    11    87    85   ar
    12    51    50    2
    13    82    81    1
    14    82    83   ar
    15     2     5    1
    16     2     3    1
    17    50    49    1
    18    85    83   ar
    19     6     5    1
    20     6     7    1
    21    18    16    1
    22    81    78    1
    23    12    13    1
    24     3     4    2
    25    63    62    2
    26    69    70    1
    27    49    48    1
    28    49    52    1
    29    60    61    1
    30    74    75    1
    31    74    73    1
    32    62    61    1
    33     7     8    1
    34    77    78    1
    35    77    71   am
    36    13    16    1
    37    13    14    1
    38    61    64    1
    39    16    17    1
    40    78    79    1
    41    75    76    1
    42    70    73    1
    43    70    71    1
    44    79    80    2
    45    66    67    1
    46    66    65    1
    47    67    68    1
    48    71    72    2
    49     8     9    2
    50    14    19   am
    51    14    15    2
    52    64    65    1
    53    19    20    1
    54    42    41    2
    55    10     9    1
    56     9    11    1
    57    41    40    1
    58    20    21    1
    59    20    23    1
    60    21    22    2
    61    25    24   ar
    62    23    24    1
    63    40    39    1
    64    40    43    1
    65    24    26   ar
    66    46    45    2
    67    92    89    1
    68    47    45   am
    69    88    89    1
    70    45    44    1
    71    43    44    1
    72    91    90    2
    73    89    90    1
    74    90    93   am
    75    30    29    2
    76    93    94    1
    77    96    95    2
    78    94    95    1
    79    29    28    1
    80    28    27    1
    81    28    31    1
    82    38    37    1
    83    37    36   ar
    84    37    35   ar
    85    36    34   ar
    86    35    33   ar
    87    34    32   ar
    88    33    32   ar
    89    32    31    1
