@<TRIPOS>MOLECULE
tmp/5ahsE02.pdb
 203 193 0 0 0
SMALL
GASTEIGER

@<TRIPOS>ATOM
      1  N        -15.3080   46.0820  -45.3200 N.3   120  ILE120     -0.1245
      2  CA       -15.4860   46.8360  -46.5520 C.3   120  ILE120      0.1561
      3  C        -14.1590   46.8820  -47.3100 C.2   120  ILE120      0.2260
      4  O        -13.0940   47.0320  -46.7110 O.2   120  ILE120     -0.2867
      5  CB       -16.0260   48.2620  -46.2730 C.3   120  ILE120      0.0252
      6  CG1      -16.4060   48.9610  -47.5790 C.3   120  ILE120      0.0019
      7  CG2      -15.0300   49.0840  -45.4610 C.3   120  ILE120      0.0019
      8  CD1      -17.2580   50.1920  -47.3810 C.3   120  ILE120      0.0001
      9  N        -12.3610   48.7730  -50.2870 N.3   122  ILE122     -0.1231
     10  CA       -12.2570   49.8400  -51.2710 C.3   122  ILE122      0.1692
     11  C        -10.8040   50.1170  -51.6230 C.2   122  ILE122      0.2592
     12  O        -10.4230   50.1140  -52.7930 O.2   122  ILE122     -0.2718
     13  CB       -12.9000   51.1430  -50.7600 C.3   122  ILE122      0.0266
     14  CG1      -14.2650   50.8600  -50.1310 C.3   122  ILE122      0.0019
     15  CG2      -13.0150   52.1560  -51.8880 C.3   122  ILE122      0.0020
     16  CD1      -14.8680   52.0500  -49.4180 C.3   122  ILE122      0.0001
     17  N         -9.9960   50.3420  -50.5920 N.am  123  SER123     -0.1952
     18  CA        -8.6350   50.8350  -50.7620 C.3   123  SER123      0.1924
     19  C         -7.7010   49.8370  -51.4370 C.2   123  SER123      0.2314
     20  O         -7.7690   48.6320  -51.1930 O.2   123  SER123     -0.2863
     21  CB        -8.0600   51.2410  -49.4060 C.3   123  SER123      0.2116
     22  OG        -8.9160   52.1650  -48.7560 O.3   123  SER123     -0.2180
     23  N         -5.9720   54.9280  -52.8170 N.3   128  GLY128     -0.1210
     24  CA        -6.5360   55.1650  -51.5020 C.3   128  GLY128      0.1956
     25  C         -7.3550   56.4390  -51.4660 C.2   128  GLY128      0.2613
     26  O         -8.5840   56.3970  -51.4060 O.2   128  GLY128     -0.2717
     27  N         -6.6690   57.5770  -51.4990 N.am  129  SER129     -0.1938
     28  CA        -7.3410   58.8680  -51.5460 C.3   129  SER129      0.2055
     29  C         -8.0930   59.0070  -52.8650 C.2   129  SER129      0.2643
     30  O         -9.2490   59.4280  -52.8920 O.2   129  SER129     -0.2714
     31  CB        -6.3370   60.0100  -51.3740 C.3   129  SER129      0.2130
     32  OG        -5.6640   59.9110  -50.1310 O.3   129  SER129     -0.2179
     33  N         -7.4280   58.6390  -53.9550 N.am  130  ALA130     -0.1963
     34  CA        -8.0550   58.6190  -55.2700 C.3   130  ALA130      0.1728
     35  C         -8.7180   57.2680  -55.5130 C.2   130  ALA130      0.2616
     36  O         -8.2840   56.5000  -56.3700 O.2   130  ALA130     -0.2715
     37  CB        -7.0320   58.9150  -56.3530 C.3   130  ALA130      0.0334
     38  N         -9.7740   56.9890  -54.7530 N.am  131  ALA131     -0.1963
     39  CA       -10.4410   55.6900  -54.7880 C.3   131  ALA131      0.1728
     40  C        -11.0710   55.3950  -56.1460 C.2   131  ALA131      0.2616
     41  O        -11.2960   54.2360  -56.4970 O.2   131  ALA131     -0.2715
     42  CB       -11.4960   55.6130  -53.6920 C.3   131  ALA131      0.0334
     43  N        -11.3440   56.4470  -56.9110 N.am  132  SER132     -0.1950
     44  CA       -11.9410   56.3020  -58.2340 C.3   132  SER132      0.1924
     45  C        -10.9410   55.7740  -59.2620 C.2   132  SER132      0.2314
     46  O        -11.2970   55.5330  -60.4150 O.2   132  SER132     -0.2863
     47  CB       -12.5190   57.6390  -58.7000 C.3   132  SER132      0.2116
     48  OG       -11.6460   58.7110  -58.3810 O.3   132  SER132     -0.2180
     49  N        -23.1760   54.7550  -62.4040 N.3   232  LYS232     -0.1245
     50  CA       -22.4850   56.0370  -62.3320 C.3   232  LYS232      0.1561
     51  C        -22.8610   56.7770  -61.0510 C.2   232  LYS232      0.2260
     52  O        -22.0130   57.3940  -60.4040 O.2   232  LYS232     -0.2867
     53  CB       -22.8090   56.8920  -63.5590 C.3   232  LYS232      0.0271
     54  CG       -22.3590   56.2820  -64.8790 C.3   232  LYS232      0.0035
     55  CD       -20.8470   56.1170  -64.9240 C.3   232  LYS232      0.0206
     56  CE       -20.3900   55.5310  -66.2500 C.3   232  LYS232      0.1093
     57  NZ       -18.9100   55.3690  -66.3000 N.3   232  LYS232     -0.1314
     58  N        -21.7030   54.7890  -57.3260 N.3   235  PHE235     -0.1227
     59  CA       -20.4850   55.1230  -56.5940 C.3   235  PHE235      0.1736
     60  C        -20.7710   56.1700  -55.5200 C.2   235  PHE235      0.2595
     61  O        -20.3850   56.0070  -54.3620 O.2   235  PHE235     -0.2718
     62  CB       -19.4090   55.6310  -57.5580 C.3   235  PHE235      0.0547
     63  CG       -18.0210   55.6540  -56.9730 C.ar  235  PHE235     -0.0202
     64  CD1      -17.7560   55.0790  -55.7400 C.ar  235  PHE235     -0.0042
     65  CD2      -16.9790   56.2560  -57.6610 C.ar  235  PHE235     -0.0042
     66  CE1      -16.4820   55.1030  -55.2070 C.ar  235  PHE235     -0.0003
     67  CE2      -15.7020   56.2840  -57.1310 C.ar  235  PHE235     -0.0003
     68  CZ       -15.4540   55.7050  -55.9030 C.ar  235  PHE235     -0.0000
     69  N        -21.4550   57.2390  -55.9130 N.am  236  ALA236     -0.1980
     70  CA       -21.7900   58.3200  -54.9940 C.3   236  ALA236      0.1597
     71  C        -22.7490   57.8520  -53.9030 C.2   236  ALA236      0.2287
     72  O        -22.6640   58.2960  -52.7580 O.2   236  ALA236     -0.2864
     73  CB       -22.3920   59.4900  -55.7570 C.3   236  ALA236      0.0319
     74  N        -20.8110   55.6030  -51.2470 N.3   239  MET239     -0.1230
     75  CA       -19.9290   56.4060  -50.4060 C.3   239  MET239      0.1702
     76  C        -20.7180   57.2800  -49.4350 C.2   239  MET239      0.2593
     77  O        -20.1710   57.7730  -48.4490 O.2   239  MET239     -0.2718
     78  CB       -19.0120   57.2740  -51.2700 C.3   239  MET239      0.0401
     79  CG       -17.9030   56.4920  -51.9490 C.3   239  MET239      0.0596
     80  SD       -16.8630   55.6480  -50.7420 S.3   239  MET239     -0.1393
     81  CE       -15.7940   54.6930  -51.8130 C.3   239  MET239      0.0692
     82  N        -22.0030   57.4690  -49.7200 N.am  240  SER240     -0.1952
     83  CA       -22.8860   58.2000  -48.8190 C.3   240  SER240      0.1924
     84  C        -23.0470   57.4400  -47.5100 C.2   240  SER240      0.2314
     85  O        -23.1670   58.0390  -46.4410 O.2   240  SER240     -0.2863
     86  CB       -24.2530   58.4270  -49.4650 C.3   240  SER240      0.2116
     87  OG       -24.1250   59.1230  -50.6910 O.3   240  SER240     -0.2180
     88  N        -20.7730   55.7170  -46.2490 N.3   242  TYR242     -0.1227
     89  CA       -19.4900   55.8280  -45.5670 C.3   242  TYR242      0.1736
     90  C        -19.4020   57.1050  -44.7330 C.2   242  TYR242      0.2595
     91  O        -18.4940   57.2550  -43.9160 O.2   242  TYR242     -0.2718
     92  CB       -18.3410   55.7790  -46.5750 C.3   242  TYR242      0.0548
     93  CG       -17.1160   55.0590  -46.0580 C.ar  242  TYR242     -0.0200
     94  CD1      -17.0250   53.6760  -46.1250 C.ar  242  TYR242     -0.0009
     95  CD2      -16.0520   55.7590  -45.5010 C.ar  242  TYR242     -0.0009
     96  CE1      -15.9120   53.0090  -45.6530 C.ar  242  TYR242      0.0417
     97  CE2      -14.9320   55.0990  -45.0260 C.ar  242  TYR242      0.0417
     98  CZ       -14.8690   53.7230  -45.1060 C.ar  242  TYR242      0.1957
     99  OH       -13.7620   53.0540  -44.6370 O.3   242  TYR242     -0.2866
    100  N        -20.3420   58.0250  -44.9410 N.am  243  ASN243     -0.1974
    101  CA       -20.4070   59.2290  -44.1190 C.3   243  ASN243      0.1688
    102  C        -20.7980   58.8740  -42.6890 C.2   243  ASN243      0.2292
    103  O        -20.4690   59.5940  -41.7480 O.2   243  ASN243     -0.2864
    104  CB       -21.3950   60.2430  -44.7010 C.3   243  ASN243      0.1181
    105  CG       -20.9810   60.7440  -46.0740 C.2   243  ASN243      0.2629
    106  OD1      -19.7970   60.7640  -46.4110 O.2   243  ASN243     -0.2716
    107  ND2      -21.9600   61.1520  -46.8730 N.am  243  ASN243     -0.0877
    108  N        -17.5550   57.3910  -41.0200 N.3   246  ARG246     -0.1245
    109  CA       -16.6550   58.4410  -40.5560 C.3   246  ARG246      0.1563
    110  C        -17.0860   59.0030  -39.2060 C.2   246  ARG246      0.2260
    111  O        -16.2510   59.2760  -38.3470 O.2   246  ARG246     -0.2867
    112  CB       -16.5690   59.5610  -41.5920 C.3   246  ARG246      0.0307
    113  CG       -15.8260   59.1590  -42.8530 C.3   246  ARG246      0.0489
    114  CD       -15.9700   60.1970  -43.9490 C.3   246  ARG246      0.2205
    115  NE       -15.0780   59.9190  -45.0710 N.pl3 246  ARG246     -0.0865
    116  CZ       -15.1340   60.5400  -46.2430 C.cat 246  ARG246      0.5346
    117  NH1      -16.0500   61.4750  -46.4570 N.pl3 246  ARG246      0.1354
    118  NH2      -14.2790   60.2230  -47.2060 N.pl3 246  ARG246      0.1354
    119  N        -22.5510   64.6770  -45.8040 N.3   315  ILE315     -0.1245
    120  CA       -21.1740   64.4480  -46.2310 C.3   315  ILE315      0.1561
    121  C        -20.1950   65.4780  -45.6570 C.2   315  ILE315      0.2260
    122  O        -19.0480   65.1480  -45.3480 O.2   315  ILE315     -0.2867
    123  CB       -21.0750   64.4450  -47.7770 C.3   315  ILE315      0.0252
    124  CG1      -19.6360   64.2020  -48.2360 C.3   315  ILE315      0.0019
    125  CG2      -21.6190   65.7410  -48.3640 C.3   315  ILE315      0.0019
    126  CD1      -19.4690   64.2380  -49.7370 C.3   315  ILE315      0.0001
    127  N         -7.2710   56.6350  -41.7630 N.3   364  ALA364     -0.1231
    128  CA        -8.2100   55.6110  -42.2170 C.3   364  ALA364      0.1694
    129  C         -9.5930   56.1910  -42.4960 C.2   364  ALA364      0.2593
    130  O        -10.1060   56.9980  -41.7220 O.2   364  ALA364     -0.2718
    131  CB        -8.3060   54.4890  -41.1900 C.3   364  ALA364      0.0304
    132  N        -10.1890   55.7690  -43.6080 N.am  365  GLY365     -0.1942
    133  CA       -11.5090   56.2310  -43.9970 C.3   365  GLY365      0.2014
    134  C        -11.4870   57.6320  -44.5750 C.2   365  GLY365      0.2639
    135  O        -12.4170   58.4120  -44.3710 O.2   365  GLY365     -0.2714
    136  N        -10.4230   57.9490  -45.3060 N.am  366  GLY366     -0.1939
    137  CA       -10.2330   59.2850  -45.8410 C.3   366  GLY366      0.2014
    138  C         -9.4260   60.1400  -44.8820 C.2   366  GLY366      0.2639
    139  O         -9.8640   60.4100  -43.7650 O.2   366  GLY366     -0.2714
    140  N         -8.2440   60.5610  -45.3190 N.am  367  THR367     -0.1950
    141  CA        -7.3380   61.3270  -44.4690 C.3   367  THR367      0.1897
    142  C         -7.9020   62.7070  -44.1520 C.2   367  THR367      0.2313
    143  O         -8.8160   63.1840  -44.8250 O.2   367  THR367     -0.2863
    144  CB        -5.9510   61.4870  -45.1230 C.3   367  THR367      0.1794
    145  OG1       -6.0570   62.3180  -46.2860 O.3   367  THR367     -0.2208
    146  CG2       -5.3870   60.1280  -45.5200 C.3   367  THR367      0.0378
    147  N         -7.7880   64.9840  -47.1320 N.3   370  ILE370     -0.1245
    148  CA        -8.8210   64.7290  -48.1280 C.3   370  ILE370      0.1561
    149  C        -10.1630   65.2640  -47.6390 C.2   370  ILE370      0.2260
    150  O        -10.9590   65.7800  -48.4240 O.2   370  ILE370     -0.2867
    151  CB        -8.9170   63.2150  -48.4610 C.3   370  ILE370      0.0252
    152  CG1       -8.3200   62.9380  -49.8410 C.3   370  ILE370      0.0019
    153  CG2      -10.3560   62.7110  -48.3990 C.3   370  ILE370      0.0019
    154  CD1       -6.8900   63.4010  -49.9900 C.3   370  ILE370      0.0001
    155  N        -10.3770   69.0750  -48.1380 N.3   373  THR373     -0.1203
    156  CA       -10.7100   69.3950  -49.5200 C.3   373  THR373      0.1994
    157  C        -12.2100   69.2260  -49.7480 C.2   373  THR373      0.2617
    158  O        -12.8350   70.0230  -50.4480 O.2   373  THR373     -0.2717
    159  CB        -9.9220   68.5110  -50.5070 C.3   373  THR373      0.1784
    160  OG1       -8.5170   68.7340  -50.3300 O.3   373  THR373     -0.2211
    161  CG2      -10.3010   68.8340  -51.9450 C.3   373  THR373      0.0376
    162  N        -12.7820   68.1930  -49.1370 N.am  374  GLN374     -0.1979
    163  CA       -14.2140   67.9330  -49.2340 C.3   374  GLN374      0.1601
    164  C        -15.0340   69.0680  -48.6280 C.2   374  GLN374      0.2287
    165  O        -16.0180   69.5180  -49.2150 O.2   374  GLN374     -0.2864
    166  CB       -14.5660   66.6120  -48.5470 C.3   374  GLN374      0.0394
    167  CG       -16.0600   66.3340  -48.4670 C.3   374  GLN374      0.0908
    168  CD       -16.7140   66.2710  -49.8340 C.2   374  GLN374      0.2608
    169  OE1      -16.2990   65.5000  -50.7000 O.2   374  GLN374     -0.2717
    170  NE2      -17.7440   67.0860  -50.0350 N.am  374  GLN374     -0.0878
    171  N        -16.4460   72.1710  -57.4750 N.3   383  LYS383     -0.1231
    172  CA       -15.6660   70.9430  -57.5240 C.3   383  LYS383      0.1693
    173  C        -14.1880   71.2710  -57.3740 C.2   383  LYS383      0.2592
    174  O        -13.7200   72.2980  -57.8670 O.2   383  LYS383     -0.2718
    175  CB       -15.9120   70.1820  -58.8290 C.3   383  LYS383      0.0285
    176  CG       -17.2540   69.4700  -58.9000 C.3   383  LYS383      0.0035
    177  CD       -17.2350   68.3900  -59.9730 C.3   383  LYS383      0.0206
    178  CE       -18.5440   67.6200  -60.0190 C.3   383  LYS383      0.1093
    179  NZ       -19.6780   68.4770  -60.4590 N.3   383  LYS383     -0.1314
    180  N        -13.4560   70.4020  -56.6870 N.am  384  LEU384     -0.1966
    181  CA       -12.0260   70.6020  -56.4970 C.3   384  LEU384      0.1713
    182  C        -11.2380   69.4210  -57.0570 C.2   384  LEU384      0.2458
    183  O        -10.8320   68.5280  -56.3130 O.2   384  LEU384     -0.2730
    184  CB       -11.7040   70.8120  -55.0150 C.3   384  LEU384      0.0310
    185  CG       -12.3200   72.0570  -54.3670 C.3   384  LEU384      0.0022
    186  CD1      -11.8890   72.1900  -52.9130 C.3   384  LEU384      0.0001
    187  CD2      -11.9580   73.3110  -55.1500 C.3   384  LEU384      0.0001
    188  N        -11.0250   69.4150  -58.3810 N.am  385  PRO385     -0.2716
    189  CA       -10.2630   68.3500  -59.0370 C.3   385  PRO385      0.1536
    190  C         -8.7910   68.3990  -58.6490 C.2   385  PRO385      0.2598
    191  O         -8.1920   69.4740  -58.6330 O.2   385  PRO385     -0.2715
    192  CB       -10.4510   68.6490  -60.5260 C.3   385  PRO385      0.0310
    193  CG       -10.6920   70.1160  -60.5770 C.3   385  PRO385      0.0237
    194  CD       -11.4660   70.4460  -59.3360 C.3   385  PRO385      0.0939
    195  N         -8.2180   67.2430  -58.3390 N.am  386  GLN386     -0.1978
    196  CA        -6.8350   67.1820  -57.8940 C.3   386  GLN386      0.1601
    197  C         -5.8890   66.9010  -59.0560 C.2   386  GLN386      0.2287
    198  O         -4.6730   67.0330  -58.9210 O.2   386  GLN386     -0.2864
    199  CB        -6.6790   66.1170  -56.8080 C.3   386  GLN386      0.0394
    200  CG        -7.5780   66.3460  -55.6010 C.3   386  GLN386      0.0908
    201  CD        -7.2750   67.6530  -54.8900 C.2   386  GLN386      0.2608
    202  OE1       -6.1160   67.9750  -54.6260 O.2   386  GLN386     -0.2717
    203  NE2       -8.3180   68.4170  -54.5840 N.am  386  GLN386     -0.0878
@<TRIPOS>BOND
     1    57    56    1
     2    56    55    1
     3    55    54    1
     4    54    53    1
     5    53    50    1
     6    49    50    1
     7    50    51    1
     8    51    52    2
     9   193   192    1
    10   193   194    1
    11   192   189    1
    12   179   178    1
    13    46    45    2
    14   178   177    1
    15   177   176    1
    16   194   188    1
    17    45    44    1
    18   197   198    2
    19   197   196    1
    20   189   190    1
    21   189   188    1
    22   176   175    1
    23   175   172    1
    24    47    48    1
    25    47    44    1
    26   190   191    2
    27   190   195   am
    28   188   182   am
    29   195   196    1
    30    44    43    1
    31   196   199    1
    32   174   173    2
    33    65    67   ar
    34    65    63   ar
    35    62    63    1
    36    62    59    1
    37   172   171    1
    38   172   173    1
    39   173   180   am
    40    58    59    1
    41    67    68   ar
    42   182   181    1
    43   182   183    2
    44    63    64   ar
    45    43    40   am
    46   199   200    1
    47   180   181    1
    48    59    60    1
    49    41    40    2
    50   181   184    1
    51    36    35    2
    52    37    34    1
    53    40    39    1
    54    69    60   am
    55    69    70    1
    56    68    66   ar
    57    73    70    1
    58    64    66   ar
    59   200   201    1
    60    60    61    2
    61    35    34    1
    62    35    38   am
    63    34    33    1
    64   187   185    1
    65   184   185    1
    66    70    71    1
    67   201   202    2
    68   201   203   am
    69    39    38    1
    70    39    42    1
    71   185   186    1
    72    33    29   am
    73    71    72    2
    74    30    29    2
    75    29    28    1
    76    23    24    1
    77    12    11    2
    78    79    78    1
    79    79    80    1
    80   161   159    1
    81    15    13    1
    82    81    80    1
    83    11    10    1
    84    11    17   am
    85    28    27    1
    86    28    31    1
    87    24    25    1
    88    27    25   am
    89    25    26    2
    90    19    20    2
    91    19    18    1
    92    31    32    1
    93    10    13    1
    94    10     9    1
    95    78    75    1
    96    74    75    1
    97    18    17    1
    98    18    21    1
    99    13    14    1
   100   169   168    2
   101    87    86    1
   102   159   160    1
   103   159   156    1
   104   158   157    2
   105    75    76    1
   106    14    16    1
   107   170   168   am
   108   154   152    1
   109   152   151    1
   110   168   167    1
   111   157   156    1
   112   157   162   am
   113   126   124    1
   114    82    76   am
   115    82    83    1
   116   156   155    1
   117    86    83    1
   118    76    77    2
   119    21    22    1
   120   163   162    1
   121   163   164    1
   122   163   166    1
   123   165   164    2
   124    83    84    1
   125   166   167    1
   126   151   153    1
   127   151   148    1
   128   150   149    2
   129   125   123    1
   130   124   123    1
   131   148   149    1
   132   148   147    1
   133   123   120    1
   134     6     8    1
   135     6     5    1
   136    84    85    2
   137     3     4    2
   138     3     2    1
   139   118   116    1
   140   107   105   am
   141    92    93    1
   142    92    89    1
   143     2     5    1
   144     2     1    1
   145   117   116    1
   146   106   105    2
   147   145   144    1
   148     5     7    1
   149    88    89    1
   150   116   115    2
   151   120   119    1
   152   120   121    1
   153    94    93   ar
   154    94    96   ar
   155   105   104    1
   156    93    95   ar
   157   137   136    1
   158   137   138    1
   159   121   122    2
   160    96    98   ar
   161    89    90    1
   162   146   144    1
   163    95    97   ar
   164   140   138   am
   165   140   141    1
   166   136   134   am
   167   144   141    1
   168    98    97   ar
   169    98    99    1
   170   115   114    1
   171   100    90   am
   172   100   101    1
   173   138   139    2
   174   143   142    2
   175    90    91    2
   176   104   101    1
   177   134   135    2
   178   134   133    1
   179   141   142    1
   180   101   102    1
   181   133   132    1
   182   114   113    1
   183   132   129   am
   184   113   112    1
   185   102   103    2
   186   129   128    1
   187   129   130    2
   188   128   127    1
   189   128   131    1
   190   112   109    1
   191   108   109    1
   192   109   110    1
   193   110   111    2
