@<TRIPOS>MOLECULE
tmp/5ahuB00.pdb
 232 218 0 0 0
SMALL
GASTEIGER

@<TRIPOS>ATOM
      1  N         20.9880    9.3960   33.5800 N.3    25  HIS25      -0.1226
      2  CA        22.1120   10.2610   33.1850 C.3    25  HIS25       0.1752
      3  C         23.0880    9.5100   32.3040 C.2    25  HIS25       0.2596
      4  O         23.4740    9.9960   31.2660 O.2    25  HIS25      -0.2718
      5  CB        22.8110   10.7850   34.4350 C.3    25  HIS25       0.0759
      6  CG        24.2540   11.0790   34.2390 C.ar   25  HIS25       0.0818
      7  ND1       24.6960   12.1200   33.4620 N.ar   25  HIS25      -0.2268
      8  CD2       25.3580   10.4790   34.7290 C.ar   25  HIS25       0.1154
      9  CE1       26.0100   12.1390   33.4650 C.ar   25  HIS25       0.1986
     10  NE2       26.4360   11.1470   34.2180 N.ar   25  HIS25      -0.2212
     11  N         23.4370    8.2930   32.7110 N.am   26  TYR26      -0.1962
     12  CA        24.3080    7.4220   31.9210 C.3    26  TYR26       0.1771
     13  C         23.7560    7.0100   30.5490 C.2    26  TYR26       0.2619
     14  O         24.5030    6.9430   29.5450 O.2    26  TYR26      -0.2715
     15  CB        24.6100    6.1200   32.6650 C.3    26  TYR26       0.0574
     16  CG        25.3460    6.2430   33.9570 C.ar   26  TYR26      -0.0198
     17  CD1       26.2400    7.2790   34.2040 C.ar   26  TYR26      -0.0009
     18  CD2       25.1660    5.2870   34.9420 C.ar   26  TYR26      -0.0009
     19  CE1       26.8890    7.3800   35.4320 C.ar   26  TYR26       0.0417
     20  CE2       25.8300    5.3560   36.1590 C.ar   26  TYR26       0.0417
     21  CZ        26.6830    6.4040   36.4130 C.ar   26  TYR26       0.1957
     22  OH        27.3550    6.4480   37.6350 O.3    26  TYR26      -0.2866
     23  N         22.4810    6.6570   30.5070 N.am   27  LEU27      -0.1977
     24  CA        21.9160    6.2390   29.2400 C.3    27  LEU27       0.1596
     25  C         21.8820    7.4030   28.2610 C.2    27  LEU27       0.2287
     26  O         22.1590    7.2180   27.0930 O.2    27  LEU27      -0.2864
     27  CB        20.5290    5.6310   29.4310 C.3    27  LEU27       0.0297
     28  CG        20.4970    4.3520   30.2810 C.3    27  LEU27       0.0022
     29  CD1       19.1300    3.7130   30.1600 C.3    27  LEU27       0.0001
     30  CD2       21.5720    3.3570   29.8760 C.3    27  LEU27       0.0001
     31  N         23.9090    9.9930   28.0790 N.3    29  GLU29      -0.1231
     32  CA        25.2860   10.1420   27.6110 C.3    29  GLU29       0.1699
     33  C         25.7930    8.8870   26.8320 C.2    29  GLU29       0.2592
     34  O         26.3260    9.0620   25.7290 O.2    29  GLU29      -0.2718
     35  CB        26.2060   10.5130   28.7590 C.3    29  GLU29       0.0402
     36  CG        25.6590   11.5930   29.6930 C.3    29  GLU29       0.1161
     37  CD        25.6640   13.0100   29.1050 C.2    29  GLU29       0.3649
     38  OE1       26.0210   13.1950   27.9080 O.co2  29  GLU29      -0.2457
     39  OE2       25.3230   13.9510   29.8790 O.co2  29  GLU29      -0.2457
     40  N         25.5720    7.6550   27.3450 N.am   30  ASP30      -0.1960
     41  CA        25.9590    6.4290   26.6080 C.3    30  ASP30       0.1840
     42  C         25.4250    6.4550   25.1710 C.2    30  ASP30       0.2622
     43  O         26.1560    6.1270   24.2360 O.2    30  ASP30      -0.2715
     44  CB        25.5720    5.1190   27.3340 C.3    30  ASP30       0.1450
     45  CG        25.9090    3.8510   26.5220 C.2    30  ASP30       0.3671
     46  OD1       27.0830    3.3920   26.5100 O.co2  30  ASP30      -0.2456
     47  OD2       24.9870    3.2830   25.8780 O.co2  30  ASP30      -0.2456
     48  N         24.1850    6.8970   24.9700 N.am   31  ASP31      -0.1971
     49  CA        23.5750    6.8150   23.6330 C.3    31  ASP31       0.1709
     50  C         24.2430    7.7100   22.5840 C.2    31  ASP31       0.2293
     51  O         24.4960    7.2970   21.4390 O.2    31  ASP31      -0.2864
     52  CB        22.0740    7.0190   23.7270 C.3    31  ASP31       0.1436
     53  CG        21.3770    5.7920   24.2680 C.2    31  ASP31       0.3671
     54  OD1       21.9690    4.6830   24.1160 O.co2  31  ASP31      -0.2456
     55  OD2       20.2650    5.8930   24.8460 O.co2  31  ASP31      -0.2456
     56  N         27.4520    8.7610   22.9930 N.3    33  MET33      -0.1230
     57  CA        28.7240    8.0660   22.8190 C.3    33  MET33       0.1702
     58  C         28.6330    6.7930   21.9520 C.2    33  MET33       0.2592
     59  O         29.6060    6.4570   21.3050 O.2    33  MET33      -0.2718
     60  CB        29.2820    7.6640   24.1850 C.3    33  MET33       0.0401
     61  CG        29.6030    8.8350   25.1110 C.3    33  MET33       0.0596
     62  SD        30.4680    8.2960   26.5910 S.3    33  MET33      -0.1393
     63  CE        29.5410    9.1300   27.8610 C.3    33  MET33       0.0692
     64  N         27.4970    6.0790   21.9710 N.am   34  ASP34      -0.1974
     65  CA        27.3370    4.8130   21.2390 C.3    34  ASP34       0.1709
     66  C         26.6930    4.9810   19.8790 C.2    34  ASP34       0.2293
     67  O         26.6090    4.0300   19.0890 O.2    34  ASP34      -0.2864
     68  CB        26.4610    3.8330   22.0180 C.3    34  ASP34       0.1436
     69  CG        27.1600    3.2400   23.2170 C.2    34  ASP34       0.3671
     70  OD1       28.2690    3.7230   23.5190 O.co2  34  ASP34      -0.2456
     71  OD2       26.5750    2.3080   23.8410 O.co2  34  ASP34      -0.2456
     72  N         23.5770    5.5070   19.2810 N.3    36  SER36      -0.1217
     73  CA        22.3790    4.7120   19.2870 C.3    36  SER36       0.1889
     74  C         21.2070    5.4860   18.6590 C.2    36  SER36       0.2288
     75  O         21.2250    6.7130   18.5460 O.2    36  SER36      -0.2866
     76  CB        22.0570    4.2640   20.7190 C.3    36  SER36       0.2089
     77  OG        23.1400    3.4980   21.2890 O.3    36  SER36      -0.2183
     78  N         15.6330    3.6790   22.2690 N.3    39  ARG39      -0.1245
     79  CA        15.7990    3.2740   23.6580 C.3    39  ARG39       0.1563
     80  C         14.4190    3.1220   24.3440 C.2    39  ARG39       0.2260
     81  O         13.5770    4.0100   24.2900 O.2    39  ARG39      -0.2867
     82  CB        16.6930    4.3110   24.3490 C.3    39  ARG39       0.0307
     83  CG        16.7140    4.3400   25.8720 C.3    39  ARG39       0.0489
     84  CD        17.5970    3.2710   26.4300 C.3    39  ARG39       0.2205
     85  NE        19.0130    3.5710   26.2690 N.pl3  39  ARG39      -0.0865
     86  CZ        19.9850    2.7080   26.5750 C.cat  39  ARG39       0.5346
     87  NH1       19.6850    1.5030   27.0650 N.pl3  39  ARG39       0.1354
     88  NH2       21.2510    3.0480   26.3930 N.pl3  39  ARG39       0.1354
     89  N         22.2060   14.0140   36.4880 N.3    64  LYS64      -0.1245
     90  CA        23.1780   13.7200   37.5000 C.3    64  LYS64       0.1561
     91  C         23.0690   14.6540   38.6990 C.2    64  LYS64       0.2260
     92  O         23.1840   14.2190   39.8560 O.2    64  LYS64      -0.2867
     93  CB        24.5760   13.7730   36.9240 C.3    64  LYS64       0.0271
     94  CG        25.5000   12.8970   37.7360 C.3    64  LYS64       0.0035
     95  CD        26.9100   13.2670   37.4230 C.3    64  LYS64       0.0206
     96  CE        27.8350   12.1990   37.9200 C.3    64  LYS64       0.1093
     97  NZ        27.9000   11.1610   36.8710 N.3    64  LYS64      -0.1314
     98  N         29.8060    5.9920   41.0480 N.3    92  ASP92      -0.1239
     99  CA        29.6520    6.8130   39.8700 C.3    92  ASP92       0.1674
    100  C         30.9520    7.0530   39.1110 C.2    92  ASP92       0.2266
    101  O         31.0280    6.8650   37.9080 O.2    92  ASP92      -0.2867
    102  CB        29.0690    8.1610   40.2850 C.3    92  ASP92       0.1410
    103  CG        29.0640    9.1450   39.1460 C.2    92  ASP92       0.3668
    104  OD1       28.5890    8.7510   38.0430 O.co2  92  ASP92      -0.2456
    105  OD2       29.5770   10.2820   39.3430 O.co2  92  ASP92      -0.2456
    106  N         32.0110    3.9440   37.6200 N.3    95  THR95      -0.1203
    107  CA        31.2280    3.6840   36.4320 C.3    95  THR95       0.1994
    108  C         31.7600    4.4990   35.2570 C.2    95  THR95       0.2617
    109  O         31.7550    4.0400   34.1140 O.2    95  THR95      -0.2717
    110  CB        29.7140    3.9290   36.7130 C.3    95  THR95       0.1784
    111  OG1       29.3030    3.1230   37.8290 O.3    95  THR95      -0.2211
    112  CG2       28.8510    3.5880   35.5150 C.3    95  THR95       0.0376
    113  N         32.2150    5.7160   35.5350 N.am   96  ALA96      -0.1979
    114  CA        32.8010    6.5520   34.5030 C.3    96  ALA96       0.1597
    115  C         34.1220    5.9980   33.9880 C.2    96  ALA96       0.2287
    116  O         34.4290    6.0910   32.8070 O.2    96  ALA96      -0.2864
    117  CB        33.0140    7.9190   35.0530 C.3    96  ALA96       0.0319
    118  N         33.5060    3.2110   31.6800 N.3    99  GLN99      -0.1245
    119  CA        33.1750    3.7090   30.3740 C.3    99  GLN99       0.1566
    120  C         34.3540    4.1300   29.5640 C.2    99  GLN99       0.2260
    121  O         34.3220    3.9720   28.3620 O.2    99  GLN99      -0.2867
    122  CB        32.1580    4.8190   30.4520 C.3    99  GLN99       0.0367
    123  CG        30.7860    4.2500   30.1500 C.3    99  GLN99       0.0905
    124  CD        30.3340    4.5050   28.7520 C.2    99  GLN99       0.2608
    125  OE1       30.6200    5.5530   28.2010 O.2    99  GLN99      -0.2717
    126  NE2       29.5670    3.5890   28.1940 N.am   99  GLN99      -0.0878
    127  N         35.4410    0.7460   28.0240 N.3   102  ASP102     -0.1239
    128  CA        34.5600    0.4430   26.9230 C.3   102  ASP102      0.1674
    129  C         34.8270    1.2890   25.6820 C.2   102  ASP102      0.2266
    130  O         35.0270    0.7870   24.5870 O.2   102  ASP102     -0.2867
    131  CB        33.1370    0.6910   27.4070 C.3   102  ASP102      0.1410
    132  CG        32.0760    0.3800   26.3480 C.2   102  ASP102      0.3668
    133  OD1       32.0710    1.0200   25.2670 O.co2 102  ASP102     -0.2456
    134  OD2       31.2180   -0.4900   26.6220 O.co2 102  ASP102     -0.2456
    135  N         31.8970   -0.7760   34.3910 N.3   139  LYS139     -0.1231
    136  CA        30.8680   -0.0240   33.6990 C.3   139  LYS139      0.1693
    137  C         29.4770   -0.4590   34.1060 C.2   139  LYS139      0.2592
    138  O         28.5640    0.3380   33.9970 O.2   139  LYS139     -0.2718
    139  CB        31.0270   -0.0660   32.1700 C.3   139  LYS139      0.0285
    140  CG        30.3760   -1.2450   31.4990 C.3   139  LYS139      0.0035
    141  CD        30.3660   -1.0800   29.9980 C.3   139  LYS139      0.0206
    142  CE        29.7290   -2.2840   29.3210 C.3   139  LYS139      0.1093
    143  NZ        29.5210   -2.0090   27.8690 N.3   139  LYS139     -0.1314
    144  N         29.2950   -1.6880   34.5780 N.am  140  THR140     -0.1953
    145  CA        27.9410   -2.1330   34.9580 C.3   140  THR140      0.1897
    146  C         27.7690   -2.6970   36.3850 C.2   140  THR140      0.2313
    147  O         26.8080   -2.3690   37.0720 O.2   140  THR140     -0.2863
    148  CB        27.4040   -3.1220   33.9100 C.3   140  THR140      0.1794
    149  OG1       27.2240   -2.4160   32.6710 O.3   140  THR140     -0.2208
    150  CG2       26.0760   -3.7270   34.3060 C.3   140  THR140      0.0378
    151  N         27.2860   -0.1680   39.6580 N.3   143  TYR143     -0.1241
    152  CA        26.1010    0.7000   39.7610 C.3   143  TYR143      0.1605
    153  C         24.7870   -0.0420   39.6170 C.2   143  TYR143      0.2264
    154  O         23.7490    0.4190   40.0750 O.2   143  TYR143     -0.2867
    155  CB        26.1650    1.8630   38.7970 C.3   143  TYR143      0.0534
    156  CG        25.4650    1.7050   37.4720 C.ar  143  TYR143     -0.0201
    157  CD1       26.1520    1.2160   36.3600 C.ar  143  TYR143     -0.0009
    158  CD2       24.1360    2.1250   37.2980 C.ar  143  TYR143     -0.0009
    159  CE1       25.5420    1.1310   35.1070 C.ar  143  TYR143      0.0417
    160  CE2       23.5050    2.0350   36.0540 C.ar  143  TYR143      0.0417
    161  CZ        24.2170    1.5320   34.9540 C.ar  143  TYR143      0.1957
    162  OH        23.6230    1.4200   33.7170 O.3   143  TYR143     -0.2866
    163  N         24.7950  -10.0770   33.7510 N.3   178  PHE178     -0.1227
    164  CA        23.8000   -9.1030   33.2220 C.3   178  PHE178      0.1736
    165  C         24.3150   -8.3750   32.0090 C.2   178  PHE178      0.2595
    166  O         23.5910   -8.1340   31.0420 O.2   178  PHE178     -0.2718
    167  CB        23.4360   -8.0920   34.3050 C.3   178  PHE178      0.0547
    168  CG        22.5210   -7.0070   33.8510 C.ar  178  PHE178     -0.0202
    169  CD1       23.0250   -5.8700   33.2560 C.ar  178  PHE178     -0.0042
    170  CD2       21.1590   -7.0880   34.0690 C.ar  178  PHE178     -0.0042
    171  CE1       22.1930   -4.8580   32.8410 C.ar  178  PHE178     -0.0003
    172  CE2       20.3240   -6.0710   33.6740 C.ar  178  PHE178     -0.0003
    173  CZ        20.8470   -4.9590   33.0520 C.ar  178  PHE178     -0.0000
    174  N         25.5930   -8.0450   32.0590 N.am  179  GLN179     -0.1979
    175  CA        26.2410   -7.4210   30.9300 C.3   179  GLN179      0.1601
    176  C         26.4200   -8.3460   29.7530 C.2   179  GLN179      0.2287
    177  O         26.2200   -7.9150   28.6240 O.2   179  GLN179     -0.2864
    178  CB        27.5920   -6.8310   31.3250 C.3   179  GLN179      0.0394
    179  CG        28.1460   -5.8800   30.2690 C.3   179  GLN179      0.0908
    180  CD        27.1090   -4.8850   29.7440 C.2   179  GLN179      0.2608
    181  OE1       26.4290   -4.2100   30.5300 O.2   179  GLN179     -0.2717
    182  NE2       26.9620   -4.8140   28.4210 N.am  179  GLN179     -0.0878
    183  N         23.2760   -8.4720   28.2230 N.3   182  ASP182     -0.1225
    184  CA        23.0710   -7.2810   27.4020 C.3   182  ASP182      0.1805
    185  C         23.7530   -7.4220   26.0520 C.2   182  ASP182      0.2597
    186  O         23.1970   -6.9950   25.0550 O.2   182  ASP182     -0.2718
    187  CB        23.5760   -5.9810   28.0490 C.3   182  ASP182      0.1424
    188  CG        23.0480   -4.7400   27.3140 C.2   182  ASP182      0.3668
    189  OD1       21.8070   -4.6050   27.3470 O.co2 182  ASP182     -0.2456
    190  OD2       23.8210   -3.9450   26.6780 O.co2 182  ASP182     -0.2456
    191  N         24.9640   -7.9780   26.0340 N.am  183  ASP183     -0.1974
    192  CA        25.7250   -8.0960   24.7920 C.3   183  ASP183      0.1709
    193  C         25.1200   -9.0870   23.8200 C.2   183  ASP183      0.2293
    194  O         25.1800   -8.8460   22.6170 O.2   183  ASP183     -0.2864
    195  CB        27.1790   -8.4830   25.0560 C.3   183  ASP183      0.1436
    196  CG        27.9350   -7.4220   25.8280 C.2   183  ASP183      0.3671
    197  OD1       27.3830   -6.3110   26.0050 O.co2 183  ASP183     -0.2456
    198  OD2       29.0830   -7.6970   26.2520 O.co2 183  ASP183     -0.2456
    199  N         21.8660   -7.6050   22.4590 N.3   186  ASP186     -0.1239
    200  CA        22.2340   -6.5180   21.5480 C.3   186  ASP186      0.1674
    201  C         22.4620   -7.0160   20.1430 C.2   186  ASP186      0.2266
    202  O         22.4500   -6.2440   19.2010 O.2   186  ASP186     -0.2867
    203  CB        23.5150   -5.8460   21.9930 C.3   186  ASP186      0.1410
    204  CG        23.8680   -4.6350   21.1320 C.2   186  ASP186      0.3668
    205  OD1       23.3260   -3.5430   21.4260 O.co2 186  ASP186     -0.2456
    206  OD2       24.6860   -4.7710   20.1830 O.co2 186  ASP186     -0.2456
    207  N         15.5160   -1.2970   21.7730 N.3   196  LYS196     -0.1245
    208  CA        16.6930   -0.5530   21.2540 C.3   196  LYS196      0.1561
    209  C         17.3150   -1.3160   20.0880 C.2   196  LYS196      0.2260
    210  O         17.2000   -2.5340   20.0120 O.2   196  LYS196     -0.2867
    211  CB        17.7440   -0.2530   22.3570 C.3   196  LYS196      0.0271
    212  CG        18.1590   -1.4740   23.1670 C.3   196  LYS196      0.0035
    213  CD        19.2470   -1.2480   24.2020 C.3   196  LYS196      0.0206
    214  CE        19.6980   -2.6060   24.7140 C.3   196  LYS196      0.1093
    215  NZ        20.2630   -2.5700   26.0790 N.3   196  LYS196     -0.1314
    216  N         26.6110   -2.6470   18.8330 N.3   200  ASP200     -0.1239
    217  CA        27.9190   -3.1600   19.2980 C.3   200  ASP200      0.1674
    218  C         28.8410   -3.5760   18.1240 C.2   200  ASP200      0.2266
    219  O         30.0250   -3.2230   18.0880 O.2   200  ASP200     -0.2867
    220  CB        27.7440   -4.3130   20.3130 C.3   200  ASP200      0.1410
    221  CG        27.2450   -3.8340   21.6990 C.2   200  ASP200      0.3668
    222  OD1       27.3780   -2.6130   22.0180 O.co2 200  ASP200     -0.2456
    223  OD2       26.7330   -4.6970   22.4770 O.co2 200  ASP200     -0.2456
    224  N         32.6870   -2.7080   19.3640 N.3   205  LYS205     -0.1245
    225  CA        32.8210   -2.8630   20.8030 C.3   205  LYS205      0.1561
    226  C         33.4420   -4.1900   21.1710 C.2   205  LYS205      0.2260
    227  O         33.3280   -5.1650   20.4310 O.2   205  LYS205     -0.2867
    228  CB        31.4600   -2.7420   21.5110 C.3   205  LYS205      0.0271
    229  CG        30.8640   -1.3470   21.5080 C.3   205  LYS205      0.0035
    230  CD        31.5700   -0.4200   22.4900 C.3   205  LYS205      0.0206
    231  CE        31.2740    1.0370   22.1600 C.3   205  LYS205      0.1093
    232  NZ        29.8180    1.3360   22.2710 N.3   205  LYS205     -0.1314
@<TRIPOS>BOND
     1   219   218    2
     2   218   217    1
     3    75    74    2
     4    74    73    1
     5   216   217    1
     6    67    66    2
     7   202   201    2
     8    72    73    1
     9    73    76    1
    10   217   220    1
    11   224   225    1
    12    66    65    1
    13   210   209    2
    14   209   208    1
    15   201   200    1
    16   206   204   ar
    17   220   221    1
    18   227   226    2
    19    76    77    1
    20   225   226    1
    21   225   228    1
    22   204   205   ar
    23   204   203    1
    24    65    64    1
    25    65    68    1
    26   208   207    1
    27   208   211    1
    28    59    58    2
    29    51    50    2
    30   229   228    1
    31   229   230    1
    32   200   203    1
    33   200   199    1
    34   221   222   ar
    35   221   223   ar
    36    58    64   am
    37    58    57    1
    38    68    69    1
    39   231   232    1
    40   231   230    1
    41    78    79    1
    42   211   212    1
    43    50    49    1
    44   194   193    2
    45    57    56    1
    46    57    60    1
    47   212   213    1
    48    69    70   ar
    49    69    71   ar
    50    49    52    1
    51    49    48    1
    52    79    80    1
    53    79    82    1
    54    52    53    1
    55   193   192    1
    56    54    53   ar
    57    60    61    1
    58   213   214    1
    59    43    42    2
    60    53    55   ar
    61    81    80    2
    62    82    83    1
    63   130   129    2
    64   214   215    1
    65   192   195    1
    66   192   191    1
    67    48    42   am
    68   186   185    2
    69   195   196    1
    70    61    62    1
    71    42    41    1
    72   133   132   ar
    73   129   128    1
    74    34    33    2
    75   196   197   ar
    76   196   198   ar
    77    83    84    1
    78    47    45   ar
    79   191   185   am
    80   185   184    1
    81    85    84    1
    82    85    86    2
    83   132   134   ar
    84   132   131    1
    85    88    86    1
    86    46    45   ar
    87    45    44    1
    88    86    87    1
    89    62    63    1
    90    41    44    1
    91    41    40    1
    92   190   188   ar
    93    33    40   am
    94    33    32    1
    95   128   131    1
    96   128   127    1
    97    26    25    2
    98   188   189   ar
    99   188   187    1
   100   184   187    1
   101   184   183    1
   102    32    31    1
   103    32    35    1
   104   143   142    1
   105    38    37   ar
   106   126   124   am
   107   125   124    2
   108    25    24    1
   109   121   120    2
   110   182   180   am
   111   177   176    2
   112   124   123    1
   113    35    36    1
   114    37    36    1
   115    37    39   ar
   116    24    27    1
   117    24    23    1
   118   142   141    1
   119    27    28    1
   120    14    13    2
   121   120   119    1
   122   180   179    1
   123   180   181    2
   124   176   175    1
   125    30    28    1
   126   141   140    1
   127   123   122    1
   128    29    28    1
   129   179   178    1
   130   119   122    1
   131   119   118    1
   132    23    13   am
   133    13    12    1
   134   175   178    1
   135   175   174    1
   136   166   165    2
   137     4     3    2
   138   140   139    1
   139    12    15    1
   140    12    11    1
   141   165   174   am
   142   165   164    1
   143   139   136    1
   144     3    11   am
   145     3     2    1
   146    15    16    1
   147   149   148    1
   148   116   115    2
   149   171   173   ar
   150   171   169   ar
   151   173   172   ar
   152     2     1    1
   153     2     5    1
   154   164   163    1
   155   164   167    1
   156   169   168   ar
   157     7     9   ar
   158     7     6   ar
   159     9    10   ar
   160   172   170   ar
   161   136   137    1
   162   136   135    1
   163   162   161    1
   164   168   170   ar
   165   168   167    1
   166   148   150    1
   167   148   145    1
   168    16    17   ar
   169    16    18   ar
   170   115   114    1
   171   138   137    2
   172   137   144   am
   173   109   108    2
   174    17    19   ar
   175    10     8   ar
   176     6     5    1
   177     6     8   ar
   178   114   117    1
   179   114   113    1
   180   144   145    1
   181    18    20   ar
   182   161   159   ar
   183   161   160   ar
   184   145   146    1
   185   159   157   ar
   186   108   113   am
   187   108   107    1
   188    19    21   ar
   189   112   110    1
   190   160   158   ar
   191    20    21   ar
   192   157   156   ar
   193   146   147    2
   194    21    22    1
   195   107   110    1
   196   107   106    1
   197    89    90    1
   198   110   111    1
   199    97    96    1
   200    93    90    1
   201    93    94    1
   202   158   156   ar
   203    95    94    1
   204    95    96    1
   205   156   155    1
   206    90    91    1
   207   101   100    2
   208   104   103   ar
   209    91    92    2
   210   155   152    1
   211   100    99    1
   212   103   105   ar
   213   103   102    1
   214   153   152    1
   215   153   154    2
   216   151   152    1
   217    99   102    1
   218    99    98    1
