@<TRIPOS>MOLECULE
tmp/5ahwC01.pdb
 78 71 0 0 0
SMALL
GASTEIGER

@<TRIPOS>ATOM
      1  N         13.2100   39.0300   55.2960 N.3    11  ASP11      -0.1225
      2  CA        13.1980   40.5050   55.2000 C.3    11  ASP11       0.1805
      3  C         11.8070   40.9990   55.0050 C.2    11  ASP11       0.2598
      4  O         11.6270   42.1660   54.6900 O.2    11  ASP11      -0.2718
      5  CB        14.0930   41.0310   54.0690 C.3    11  ASP11       0.1424
      6  CG        13.7020   40.4560   52.6740 C.2    11  ASP11       0.3668
      7  OD1       12.8980   39.4910   52.6360 O.co2  11  ASP11      -0.2456
      8  OD2       14.2090   40.9690   51.6410 O.co2  11  ASP11      -0.2456
      9  N         10.8100   40.1460   55.2130 N.am   12  GLY12      -0.1942
     10  CA         9.4440   40.5690   54.9900 C.3    12  GLY12       0.2014
     11  C          8.9520   40.3840   53.5730 C.2    12  GLY12       0.2640
     12  O          7.7930   40.6460   53.2850 O.2    12  GLY12      -0.2714
     13  N          9.8200   39.8890   52.6890 N.am   13  SER13      -0.1935
     14  CA         9.4160   39.6070   51.3140 C.3    13  SER13       0.2055
     15  C          8.5430   38.3580   51.3090 C.2    13  SER13       0.2643
     16  O          8.7450   37.4640   52.1310 O.2    13  SER13      -0.2714
     17  CB        10.6630   39.3670   50.4210 C.3    13  SER13       0.2130
     18  OG        11.5000   38.3320   50.9450 O.3    13  SER13      -0.2179
     19  N          7.6180   38.2840   50.3560 N.am   14  ASP14      -0.1957
     20  CA         6.8280   37.0840   50.1610 C.3    14  ASP14       0.1840
     21  C          7.7240   35.9310   49.7550 C.2    14  ASP14       0.2622
     22  O          7.4940   34.7980   50.1640 O.2    14  ASP14      -0.2715
     23  CB         5.7720   37.3030   49.0880 C.3    14  ASP14       0.1450
     24  CG         4.7670   38.3120   49.4910 C.2    14  ASP14       0.3671
     25  OD1        4.0000   38.0380   50.4420 O.co2  14  ASP14      -0.2456
     26  OD2        4.7730   39.4040   48.8810 O.co2  14  ASP14      -0.2456
     27  N          8.7680   36.2120   48.9730 N.am   15  SER15      -0.1950
     28  CA         9.7470   35.1750   48.6820 C.3    15  SER15       0.1924
     29  C         10.3220   34.6920   50.0090 C.2    15  SER15       0.2314
     30  O         10.2950   33.4970   50.2880 O.2    15  SER15      -0.2863
     31  CB        10.8290   35.6410   47.7160 C.3    15  SER15       0.2116
     32  OG        11.2830   36.9410   48.0150 O.3    15  SER15      -0.2180
     33  N          9.1220   34.6830   52.8900 N.3    17  LEU17      -0.1245
     34  CA         8.0890   33.9940   53.6620 C.3    17  LEU17       0.1561
     35  C          7.8870   32.5490   53.1790 C.2    17  LEU17       0.2260
     36  O          7.5000   31.6790   53.9650 O.2    17  LEU17      -0.2867
     37  CB         6.7640   34.7480   53.6310 C.3    17  LEU17       0.0270
     38  CG         6.8040   36.1220   54.3270 C.3    17  LEU17       0.0019
     39  CD1        5.5200   36.8880   54.1030 C.3    17  LEU17       0.0001
     40  CD2        7.1060   36.0480   55.8180 C.3    17  LEU17       0.0001
     41  N         12.0930   44.9890   52.2370 N.3    61  ALA61      -0.1231
     42  CA        11.0040   44.3700   51.4960 C.3    61  ALA61       0.1694
     43  C          9.6560   44.3890   52.2060 C.2    61  ALA61       0.2592
     44  O          8.6290   44.6120   51.5910 O.2    61  ALA61      -0.2718
     45  CB        11.3790   42.9360   51.1870 C.3    61  ALA61       0.0304
     46  N          9.6510   44.1000   53.4900 N.am   62  GLY62      -0.1957
     47  CA         8.3920   43.9610   54.2250 C.3    62  GLY62       0.1869
     48  C          7.6400   45.2700   54.3510 C.2    62  GLY62       0.2309
     49  O          6.4280   45.2730   54.5530 O.2    62  GLY62      -0.2863
     50  N          7.2630   47.4520   56.6650 N.3    64  ALA64      -0.1245
     51  CA         6.4750   47.3950   57.8910 C.3    64  ALA64       0.1562
     52  C          7.4790   47.2850   59.0550 C.2    64  ALA64       0.2260
     53  O          8.6420   46.8740   58.8570 O.2    64  ALA64      -0.2867
     54  CB         5.5360   46.1930   57.8710 C.3    64  ALA64       0.0290
     55  N          6.7150   42.4130   60.7310 N.3    69  ILE69      -0.1245
     56  CA         7.3450   41.3670   59.8800 C.3    69  ILE69       0.1561
     57  C          7.5730   40.0150   60.5680 C.2    69  ILE69       0.2260
     58  O          7.3930   38.9580   59.9610 O.2    69  ILE69      -0.2867
     59  CB         8.7220   41.8180   59.3370 C.3    69  ILE69       0.0252
     60  CG1        8.5410   42.9420   58.2930 C.3    69  ILE69       0.0019
     61  CG2        9.4900   40.6390   58.7140 C.3    69  ILE69       0.0019
     62  CD1        9.8050   43.7690   58.0190 C.3    69  ILE69       0.0001
     63  N          4.2800   38.1380   61.3300 N.3    72  GLU72      -0.1245
     64  CA         3.7510   37.5270   60.1050 C.3    72  GLU72       0.1567
     65  C          4.5050   36.2420   59.7230 C.2    72  GLU72       0.2260
     66  O          3.8740   35.2770   59.2760 O.2    72  GLU72      -0.2867
     67  CB         3.7620   38.5060   58.9260 C.3    72  GLU72       0.0388
     68  CG         3.1330   37.9050   57.6640 C.3    72  GLU72       0.1160
     69  CD         3.2110   38.7950   56.4380 C.2    72  GLU72       0.3649
     70  OE1        3.6070   39.9690   56.5750 O.co2  72  GLU72      -0.2457
     71  OE2        2.8910   38.3170   55.3260 O.co2  72  GLU72      -0.2457
     72  N         16.5820   34.5820   46.2550 N.3   115  VAL115     -0.1245
     73  CA        16.5400   35.8150   45.4740 C.3   115  VAL115      0.1561
     74  C         17.9550   36.3100   45.2070 C.2   115  VAL115      0.2260
     75  O         18.7720   36.4300   46.0980 O.2   115  VAL115     -0.2867
     76  CB        15.6020   36.9080   46.0880 C.3   115  VAL115      0.0252
     77  CG1       15.7490   38.2810   45.4110 C.3   115  VAL115      0.0019
     78  CG2       14.1460   36.4700   46.0050 C.3   115  VAL115      0.0019
@<TRIPOS>BOND
     1    74    73    1
     2    74    75    2
     3    77    76    1
     4    73    76    1
     5    73    72    1
     6    78    76    1
     7    31    32    1
     8    31    28    1
     9    28    27    1
    10    28    29    1
    11    26    24   ar
    12    27    21   am
    13    23    24    1
    14    23    20    1
    15    24    25   ar
    16    21    20    1
    17    21    22    2
    18    29    30    2
    19    20    19    1
    20    19    15   am
    21    17    18    1
    22    17    14    1
    23    45    42    1
    24    15    14    1
    25    15    16    2
    26    14    13    1
    27    42    43    1
    28    42    41    1
    29    44    43    2
    30     8     6   ar
    31    43    46   am
    32     7     6   ar
    33     6     5    1
    34    13    11   am
    35    33    34    1
    36    35    34    1
    37    35    36    2
    38    12    11    2
    39    46    47    1
    40    11    10    1
    41    37    34    1
    42    37    38    1
    43     5     2    1
    44    39    38    1
    45    47    48    1
    46    38    40    1
    47    48    49    2
    48     4     3    2
    49    10     9    1
    50     3     2    1
    51     3     9   am
    52     2     1    1
    53    71    69   ar
    54    69    70   ar
    55    69    68    1
    56    50    51    1
    57    68    67    1
    58    54    51    1
    59    51    52    1
    60    62    60    1
    61    60    59    1
    62    61    59    1
    63    53    52    2
    64    67    64    1
    65    66    65    2
    66    59    56    1
    67    65    64    1
    68    56    57    1
    69    56    55    1
    70    58    57    2
    71    64    63    1
