@<TRIPOS>MOLECULE
tmp/5ahwD00.pdb
 113 104 0 0 0
SMALL
GASTEIGER

@<TRIPOS>ATOM
      1  N         24.2320   13.9550   45.8100 N.3     9  GLY9       -0.1210
      2  CA        25.3760   13.6240   44.9750 C.3     9  GLY9        0.1956
      3  C         26.5700   13.1730   45.7910 C.2     9  GLY9        0.2613
      4  O         26.8700   13.7430   46.8530 O.2     9  GLY9       -0.2717
      5  N         27.2160   12.0940   45.3390 N.am   10  THR10      -0.1938
      6  CA        28.4120   11.6000   45.9590 C.3    10  THR10       0.2028
      7  C         29.4360   11.2430   44.9000 C.2    10  THR10       0.2642
      8  O         29.0930   10.6980   43.8610 O.2    10  THR10      -0.2714
      9  CB        28.1850   10.3760   46.9100 C.3    10  THR10       0.1808
     10  OG1       29.4710    9.9820   47.4260 O.3    10  THR10      -0.2208
     11  CG2       27.6030    9.1660   46.1940 C.3    10  THR10       0.0379
     12  N         30.7020   11.5370   45.1980 N.am   11  ASP11      -0.1971
     13  CA        31.8420   11.0950   44.3630 C.3    11  ASP11       0.1709
     14  C         32.7040   10.1690   45.1780 C.2    11  ASP11       0.2293
     15  O         33.8230    9.9340   44.8250 O.2    11  ASP11      -0.2864
     16  CB        32.6860   12.2910   43.8930 C.3    11  ASP11       0.1436
     17  CG        33.2800   13.0920   45.0700 C.2    11  ASP11       0.3671
     18  OD1       32.9730   12.7860   46.2230 O.co2  11  ASP11      -0.2456
     19  OD2       34.0320   14.0600   44.8470 O.co2  11  ASP11      -0.2456
     20  N         34.0580   10.6230   48.0830 N.3    13  SER13      -0.1217
     21  CA        34.9670   11.2440   49.0630 C.3    13  SER13       0.1889
     22  C         34.3370   11.1210   50.4200 C.2    13  SER13       0.2288
     23  O         33.1110   11.0810   50.5500 O.2    13  SER13      -0.2866
     24  CB        35.2060   12.7250   48.7490 C.3    13  SER13       0.2089
     25  OG        33.9770   13.3880   48.5790 O.3    13  SER13      -0.2183
     26  N         34.2230   13.5700   52.5110 N.3    15  SER15      -0.1202
     27  CA        33.3650   14.7580   52.5870 C.3    15  SER15       0.2020
     28  C         31.9560   14.5040   52.0230 C.2    15  SER15       0.2619
     29  O         30.9460   14.9130   52.6200 O.2    15  SER15      -0.2717
     30  CB        34.0310   15.8970   51.7990 C.3    15  SER15       0.2103
     31  OG        34.4290   15.3930   50.5110 O.3    15  SER15      -0.2182
     32  N         31.8610   13.8630   50.8630 N.am   16  SER16      -0.1951
     33  CA        30.5500   13.7300   50.2150 C.3    16  SER16       0.1924
     34  C         29.6660   12.7290   50.9880 C.2    16  SER16       0.2314
     35  O         28.4190   12.8430   51.0780 O.2    16  SER16      -0.2863
     36  CB        30.7230   13.2200   48.7960 C.3    16  SER16       0.2116
     37  OG        30.9180   11.7900   48.8180 O.3    16  SER16      -0.2180
     38  N         27.6560   14.4030   53.3630 N.3    19  ALA19      -0.1245
     39  CA        26.4240   14.9170   52.7570 C.3    19  ALA19       0.1562
     40  C         25.3690   13.8520   52.6330 C.2    19  ALA19       0.2260
     41  O         24.1890   14.1050   52.7710 O.2    19  ALA19      -0.2867
     42  CB        26.7020   15.5540   51.4120 C.3    19  ALA19       0.0290
     43  N         23.2190    9.7330   43.7560 N.3    37  ALA37      -0.1231
     44  CA        23.7240    9.8390   42.3770 C.3    37  ALA37       0.1694
     45  C         25.2330   10.1160   42.3180 C.2    37  ALA37       0.2593
     46  O         25.7930   10.9510   43.0350 O.2    37  ALA37      -0.2718
     47  CB        22.9820   10.9480   41.6700 C.3    37  ALA37       0.0304
     48  N         25.9010    9.3780   41.4630 N.am   38  THR38      -0.1939
     49  CA        27.2940    9.5680   41.1920 C.3    38  THR38       0.2028
     50  C         27.4010    9.7960   39.7110 C.2    38  THR38       0.2642
     51  O         27.0820    8.9130   38.8650 O.2    38  THR38      -0.2714
     52  CB        28.1210    8.3570   41.6200 C.3    38  THR38       0.1808
     53  OG1       27.9780    8.2400   43.0170 O.3    38  THR38      -0.2208
     54  CG2       29.5710    8.5620   41.3650 C.3    38  THR38       0.0379
     55  N         27.9000   10.9780   39.4030 N.am   39  ALA39      -0.1977
     56  CA        28.1190   11.3950   38.0620 C.3    39  ALA39       0.1597
     57  C         29.5250   11.0340   37.5500 C.2    39  ALA39       0.2287
     58  O         30.5190   11.2100   38.2540 O.2    39  ALA39      -0.2864
     59  CB        27.8540   12.8550   37.9680 C.3    39  ALA39       0.0319
     60  N         29.3770   16.6690   36.9240 N.3    74  PRO74      -0.2116
     61  CA        28.5490   16.5430   38.1140 C.3    74  PRO74       0.1372
     62  C         27.4410   17.5690   38.1410 C.2    74  PRO74       0.2244
     63  O         26.3460   17.2250   38.4730 O.2    74  PRO74      -0.2868
     64  CB        29.5250   16.7660   39.2610 C.3    74  PRO74       0.0268
     65  CG        30.8720   16.5970   38.6900 C.3    74  PRO74       0.0207
     66  CD        30.8140   16.7300   37.2060 C.3    74  PRO74       0.0892
     67  N         23.4510   16.2430   38.0050 N.3    78  LEU78      -0.1245
     68  CA        22.6090   16.3590   39.2130 C.3    78  LEU78       0.1561
     69  C         21.4040   17.2470   38.9750 C.2    78  LEU78       0.2260
     70  O         20.3230   16.9410   39.4230 O.2    78  LEU78      -0.2867
     71  CB        23.4320   16.9450   40.3600 C.3    78  LEU78       0.0270
     72  CG        24.5280   16.0420   40.9400 C.3    78  LEU78       0.0019
     73  CD1       25.3290   16.7640   41.9760 C.3    78  LEU78       0.0001
     74  CD2       23.8690   14.7930   41.5650 C.3    78  LEU78       0.0001
     75  N         24.1170   18.5780   48.2110 N.3    92  VAL92      -0.1231
     76  CA        25.5150   18.3640   47.9150 C.3    92  VAL92       0.1692
     77  C         26.3740   18.8600   49.0850 C.2    92  VAL92       0.2592
     78  O         25.9280   19.6980   49.9000 O.2    92  VAL92      -0.2718
     79  CB        25.9780   19.0870   46.6780 C.3    92  VAL92       0.0266
     80  CG1       25.3600   18.4830   45.4330 C.3    92  VAL92       0.0020
     81  CG2       25.6640   20.5680   46.7280 C.3    92  VAL92       0.0020
     82  N         27.6040   18.3620   49.1290 N.am   93  GLY93      -0.1957
     83  CA        28.5740   18.8620   50.0250 C.3    93  GLY93       0.1869
     84  C         29.0820   20.1970   49.6080 C.2    93  GLY93       0.2309
     85  O         28.7110   20.7020   48.5440 O.2    93  GLY93      -0.2863
     86  N         32.5690   21.1570   49.2650 N.3    95  VAL95      -0.1245
     87  CA        33.9630   21.2020   48.8630 C.3    95  VAL95       0.1561
     88  C         34.0540   22.0510   47.5890 C.2    95  VAL95       0.2260
     89  O         33.2350   21.9310   46.7010 O.2    95  VAL95      -0.2867
     90  CB        34.5150   19.8120   48.6120 C.3    95  VAL95       0.0252
     91  CG1       35.8320   19.8880   47.8580 C.3    95  VAL95       0.0019
     92  CG2       34.6880   19.0900   49.9230 C.3    95  VAL95       0.0019
     93  N         31.0290   22.7460   42.1360 N.3   108  VAL108     -0.1231
     94  CA        29.8010   21.9670   42.2050 C.3   108  VAL108      0.1678
     95  C         28.7180   22.5670   43.0780 C.2   108  VAL108      0.2434
     96  O         27.6020   22.7670   42.6120 O.2   108  VAL108     -0.2733
     97  CB        30.0790   20.5020   42.5560 C.3   108  VAL108      0.0265
     98  CG1       28.7970   19.7470   42.6290 C.3   108  VAL108      0.0020
     99  CG2       30.9110   19.8740   41.4720 C.3   108  VAL108      0.0020
    100  N         29.0420   22.9050   44.3370 N.am  109  PRO109     -0.2729
    101  CA        27.9900   23.4420   45.1930 C.3   109  PRO109      0.1401
    102  C         27.4530   24.7630   44.7220 C.2   109  PRO109      0.2269
    103  O         26.2390   24.9300   44.7200 O.2   109  PRO109     -0.2865
    104  CB        28.6500   23.6130   46.5760 C.3   109  PRO109      0.0296
    105  CG        30.0400   23.1210   46.4670 C.3   109  PRO109      0.0237
    106  CD        30.2240   22.4900   45.1140 C.3   109  PRO109      0.0939
    107  N         30.4850   20.1590   54.8300 N.3   125  THR125     -0.1218
    108  CA        31.2400   18.9180   55.0010 C.3   125  THR125      0.1862
    109  C         32.7240   19.1750   55.1140 C.2   125  THR125      0.2287
    110  O         33.4960   18.2790   55.4080 O.2   125  THR125     -0.2866
    111  CB        31.0660   18.0270   53.7560 C.3   125  THR125      0.1770
    112  OG1       31.4710   18.7900   52.6320 O.3   125  THR125     -0.2211
    113  CG2       29.6320   17.5890   53.5630 C.3   125  THR125      0.0375
@<TRIPOS>BOND
     1    60    66    1
     2    60    61    1
     3    66    65    1
     4    57    56    1
     5    57    58    2
     6    59    56    1
     7    67    68    1
     8    56    55    1
     9    61    62    1
    10    61    64    1
    11    62    63    2
    12    65    64    1
    13    51    50    2
    14    69    68    1
    15    69    70    2
    16    68    71    1
    17    55    50   am
    18    50    49    1
    19    71    72    1
    20    72    74    1
    21    72    73    1
    22    49    48    1
    23    49    52    1
    24    54    52    1
    25    48    45   am
    26    99    97    1
    27    52    53    1
    28    47    44    1
    29    93    94    1
    30    94    97    1
    31    94    95    1
    32    45    44    1
    33    45    46    2
    34    44    43    1
    35    97    98    1
    36    96    95    2
    37    95   100   am
    38     8     7    2
    39    16    13    1
    40    16    17    1
    41   100   106    1
    42   100   101    1
    43    13    14    1
    44    13    12    1
    45   103   102    2
    46   102   101    1
    47    15    14    2
    48    19    17   ar
    49     7    12   am
    50     7     6    1
    51     2     3    1
    52     2     1    1
    53    17    18   ar
    54   106   105    1
    55   101   104    1
    56     5     3   am
    57     5     6    1
    58    80    79    1
    59     3     4    2
    60     6     9    1
    61    11     9    1
    62   105   104    1
    63    79    81    1
    64    79    76    1
    65    89    88    2
    66     9    10    1
    67    88    87    1
    68    91    90    1
    69    76    75    1
    70    76    77    1
    71    20    21    1
    72    85    84    2
    73    25    24    1
    74    90    87    1
    75    90    92    1
    76    24    21    1
    77    36    37    1
    78    36    33    1
    79    87    86    1
    80    21    22    1
    81    77    82   am
    82    77    78    2
    83    82    83    1
    84    84    83    1
    85    33    32    1
    86    33    34    1
    87    22    23    2
    88    31    30    1
    89    32    28   am
    90    34    35    2
    91    42    39    1
    92    30    27    1
    93    28    27    1
    94    28    29    2
    95    26    27    1
    96   112   111    1
    97    40    39    1
    98    40    41    2
    99    39    38    1
   100   113   111    1
   101   111   108    1
   102   107   108    1
   103   108   109    1
   104   109   110    2
