@<TRIPOS>MOLECULE
tmp/5ahwD01.pdb
 72 68 0 0 0
SMALL
GASTEIGER

@<TRIPOS>ATOM
      1  N         29.0370   15.5420   33.5720 N.3    73  ALA73      -0.1231
      2  CA        29.7290   16.2770   34.5940 C.3    73  ALA73       0.1679
      3  C         28.7880   16.4520   35.7750 C.2    73  ALA73       0.2434
      4  O         27.5500   16.4430   35.6390 O.2    73  ALA73      -0.2733
      5  CB        30.2310   17.6260   34.0850 C.3    73  ALA73       0.0304
      6  N         29.3770   16.6690   36.9240 N.am   74  PRO74      -0.2718
      7  CA        28.5490   16.5430   38.1140 C.3    74  PRO74       0.1535
      8  C         27.4410   17.5690   38.1410 C.2    74  PRO74       0.2598
      9  O         26.3460   17.2250   38.4730 O.2    74  PRO74      -0.2715
     10  CB        29.5250   16.7660   39.2610 C.3    74  PRO74       0.0310
     11  CG        30.8720   16.5970   38.6900 C.3    74  PRO74       0.0237
     12  CD        30.8140   16.7300   37.2060 C.3    74  PRO74       0.0939
     13  N         27.6990   18.8200   37.7810 N.am   75  VAL75      -0.1978
     14  CA        26.6620   19.8160   37.9540 C.3    75  VAL75       0.1596
     15  C         25.5230   19.5190   37.0010 C.2    75  VAL75       0.2287
     16  O         24.3550   19.5010   37.3900 O.2    75  VAL75      -0.2864
     17  CB        27.2010   21.2630   37.7550 C.3    75  VAL75       0.0276
     18  CG1       26.0570   22.2610   37.7390 C.3    75  VAL75       0.0022
     19  CG2       28.1800   21.6630   38.8620 C.3    75  VAL75       0.0022
     20  N         40.1660   29.4240   43.3290 N.3   101  ALA101     -0.1231
     21  CA        39.8160   28.7430   42.0500 C.3   101  ALA101      0.1694
     22  C         38.3170   28.4100   41.9560 C.2   101  ALA101      0.2592
     23  O         37.6660   28.7000   40.9720 O.2   101  ALA101     -0.2718
     24  CB        40.6180   27.4580   41.8480 C.3   101  ALA101      0.0304
     25  N         37.7640   27.8220   42.9830 N.am  102  GLY102     -0.1957
     26  CA        36.3730   27.4870   42.9100 C.3   102  GLY102      0.1869
     27  C         35.4820   28.7200   42.8600 C.2   102  GLY102      0.2309
     28  O         34.4530   28.7160   42.1900 O.2   102  GLY102     -0.2863
     29  N         36.1760   30.2880   39.2340 N.3   105  LEU105     -0.1231
     30  CA        35.7830   29.5300   38.0430 C.3   105  LEU105      0.1693
     31  C         34.5810   28.6660   38.2400 C.2   105  LEU105      0.2593
     32  O         34.0930   28.1060   37.2620 O.2   105  LEU105     -0.2718
     33  CB        36.9150   28.6080   37.5910 C.3   105  LEU105      0.0284
     34  CG        38.2210   29.3700   37.4450 C.3   105  LEU105      0.0019
     35  CD1       39.4010   28.4720   37.4610 C.3   105  LEU105      0.0001
     36  CD2       38.2270   30.1390   36.1930 C.3   105  LEU105      0.0001
     37  N         34.0980   28.4990   39.4860 N.am  106  GLY106     -0.1942
     38  CA        32.9400   27.6560   39.6910 C.3   106  GLY106      0.2014
     39  C         33.2330   26.4310   40.5490 C.2   106  GLY106      0.2640
     40  O         34.3700   26.0130   40.7100 O.2   106  GLY106     -0.2714
     41  N         32.1950   25.9460   41.1860 N.am  107  SER107     -0.1935
     42  CA        32.2870   24.7550   42.0470 C.3   107  SER107      0.2055
     43  C         30.9880   24.0540   41.9020 C.2   107  SER107      0.2642
     44  O         29.9650   24.6660   41.5930 O.2   107  SER107     -0.2714
     45  CB        32.4810   25.1270   43.5140 C.3   107  SER107      0.2130
     46  OG        31.3520   25.8440   43.9600 O.3   107  SER107     -0.2179
     47  N         31.0290   22.7460   42.1360 N.am  108  VAL108     -0.1977
     48  CA        29.8010   21.9670   42.2050 C.3   108  VAL108      0.1596
     49  C         28.7180   22.5670   43.0780 C.2   108  VAL108      0.2287
     50  O         27.6020   22.7670   42.6120 O.2   108  VAL108     -0.2864
     51  CB        30.0790   20.5020   42.5560 C.3   108  VAL108      0.0276
     52  CG1       28.7970   19.7470   42.6290 C.3   108  VAL108      0.0022
     53  CG2       30.9110   19.8740   41.4720 C.3   108  VAL108      0.0022
     54  N         27.4280   26.0430   41.7030 N.3   111  ASN111     -0.1240
     55  CA        26.7680   25.9000   40.3860 C.3   111  ASN111      0.1653
     56  C         25.4750   25.1590   40.4500 C.2   111  ASN111      0.2266
     57  O         24.4500   25.5990   39.8710 O.2   111  ASN111     -0.2867
     58  CB        27.7270   25.3650   39.3190 C.3   111  ASN111      0.1155
     59  CG        28.8840   26.3200   39.0360 C.2   111  ASN111      0.2627
     60  OD1       29.1390   27.2790   39.7840 O.2   111  ASN111     -0.2716
     61  ND2       29.5590   26.1050   37.9070 N.am  111  ASN111     -0.0877
     62  N         21.8230   26.7770   39.5570 N.3   115  ARG115     -0.1245
     63  CA        21.1290   26.1830   38.4500 C.3   115  ARG115      0.1563
     64  C         19.9450   25.3680   38.8810 C.2   115  ARG115      0.2260
     65  O         19.0300   25.1950   38.1090 O.2   115  ARG115     -0.2867
     66  CB        22.0940   25.3410   37.6130 C.3   115  ARG115      0.0307
     67  CG        23.0360   26.1900   36.7490 C.3   115  ARG115      0.0489
     68  CD        24.0580   25.3930   35.9810 C.3   115  ARG115      0.2205
     69  NE        23.4230   24.4140   35.1450 N.pl3 115  ARG115     -0.0865
     70  CZ        24.0630   23.4310   34.5320 C.cat 115  ARG115      0.5346
     71  NH1       25.3810   23.2730   34.6950 N.pl3 115  ARG115      0.1354
     72  NH2       23.3670   22.5840   33.7880 N.pl3 115  ARG115      0.1354
@<TRIPOS>BOND
     1     1     2    1
     2    72    70    1
     3     5     2    1
     4    70    71    1
     5    70    69    2
     6     2     3    1
     7    69    68    1
     8     4     3    2
     9     3     6   am
    10    68    67    1
    11    36    34    1
    12    67    66    1
    13     6    12    1
    14     6     7    1
    15    15    16    2
    16    15    14    1
    17    12    11    1
    18    32    31    2
    19    34    35    1
    20    34    33    1
    21    33    30    1
    22    66    63    1
    23    18    17    1
    24    17    14    1
    25    17    19    1
    26    13    14    1
    27    13     8   am
    28    61    59   am
    29    30    31    1
    30    30    29    1
    31    65    64    2
    32     7     8    1
    33     7    10    1
    34     8     9    2
    35    31    37   am
    36    63    64    1
    37    63    62    1
    38    11    10    1
    39    59    58    1
    40    59    60    2
    41    58    55    1
    42    37    38    1
    43    38    39    1
    44    57    56    2
    45    55    56    1
    46    55    54    1
    47    39    40    2
    48    39    41   am
    49    23    22    2
    50    41    42    1
    51    53    51    1
    52    44    43    2
    53    24    21    1
    54    43    42    1
    55    43    47   am
    56    22    21    1
    57    22    25   am
    58    42    45    1
    59    21    20    1
    60    47    48    1
    61    28    27    2
    62    48    51    1
    63    48    49    1
    64    51    52    1
    65    50    49    2
    66    27    26    1
    67    26    25    1
    68    45    46    1
