@<TRIPOS>MOLECULE
tmp/5ahwC00.pdb
 114 103 0 0 0
SMALL
GASTEIGER

@<TRIPOS>ATOM
      1  N         16.0620   33.2480   57.6880 N.3     9  GLY9       -0.1210
      2  CA        16.1590   34.7060   57.4570 C.3     9  GLY9        0.1956
      3  C         14.9260   35.2040   56.7390 C.2     9  GLY9        0.2613
      4  O         14.5210   34.6410   55.7520 O.2     9  GLY9       -0.2717
      5  N         14.3230   36.2860   57.2130 N.am   10  THR10      -0.1938
      6  CA        13.2320   36.9110   56.4780 C.3    10  THR10       0.2028
      7  C         13.4220   38.3990   56.4730 C.2    10  THR10       0.2642
      8  O         13.8150   38.9700   57.4970 O.2    10  THR10      -0.2714
      9  CB        11.8330   36.5500   57.0360 C.3    10  THR10       0.1808
     10  OG1       10.8280   37.2210   56.2630 O.3    10  THR10      -0.2208
     11  CG2       11.6780   36.9210   58.5450 C.3    10  THR10       0.0379
     12  N         13.2100   39.0300   55.2960 N.am   11  ASP11      -0.1971
     13  CA        13.1980   40.5050   55.2000 C.3    11  ASP11       0.1709
     14  C         11.8070   40.9990   55.0050 C.2    11  ASP11       0.2293
     15  O         11.6270   42.1660   54.6900 O.2    11  ASP11      -0.2864
     16  CB        14.0930   41.0310   54.0690 C.3    11  ASP11       0.1436
     17  CG        13.7020   40.4560   52.6740 C.2    11  ASP11       0.3671
     18  OD1       12.8980   39.4910   52.6360 O.co2  11  ASP11      -0.2456
     19  OD2       14.2090   40.9690   51.6410 O.co2  11  ASP11      -0.2456
     20  N          9.8200   39.8890   52.6890 N.3    13  SER13      -0.1217
     21  CA         9.4160   39.6070   51.3140 C.3    13  SER13       0.1889
     22  C          8.5430   38.3580   51.3090 C.2    13  SER13       0.2288
     23  O          8.7450   37.4640   52.1310 O.2    13  SER13      -0.2866
     24  CB        10.6630   39.3670   50.4210 C.3    13  SER13       0.2089
     25  OG        11.5000   38.3320   50.9450 O.3    13  SER13      -0.2183
     26  N          8.7680   36.2120   48.9730 N.3    15  SER15      -0.1202
     27  CA         9.7470   35.1750   48.6820 C.3    15  SER15       0.2020
     28  C         10.3220   34.6920   50.0090 C.2    15  SER15       0.2619
     29  O         10.2950   33.4970   50.2880 O.2    15  SER15      -0.2717
     30  CB        10.8290   35.6410   47.7160 C.3    15  SER15       0.2103
     31  OG        11.2830   36.9410   48.0150 O.3    15  SER15      -0.2182
     32  N         10.7700   35.6130   50.8630 N.am   16  SER16      -0.1951
     33  CA        11.3760   35.1690   52.1080 C.3    16  SER16       0.1924
     34  C         10.3950   34.3350   52.9640 C.2    16  SER16       0.2314
     35  O         10.8070   33.3660   53.6520 O.2    16  SER16      -0.2863
     36  CB        11.9600   36.3250   52.9300 C.3    16  SER16       0.2116
     37  OG        10.9580   37.0290   53.6400 O.3    16  SER16      -0.2180
     38  N         10.3930   30.8830   52.3110 N.3    19  ALA19      -0.1245
     39  CA        11.5290   30.2110   52.9270 C.3    19  ALA19       0.1562
     40  C         11.1990   29.8450   54.3600 C.2    19  ALA19       0.2260
     41  O         11.5270   28.7520   54.8400 O.2    19  ALA19      -0.2867
     42  CB        12.7860   31.0680   52.8340 C.3    19  ALA19       0.0290
     43  N         14.8950   35.0520   61.8590 N.3    37  ALA37      -0.1245
     44  CA        15.7960   36.1650   62.0210 C.3    37  ALA37       0.1562
     45  C         15.6310   37.2590   60.9560 C.2    37  ALA37       0.2260
     46  O         15.3990   36.9720   59.7450 O.2    37  ALA37      -0.2867
     47  CB        17.2180   35.6670   62.0780 C.3    37  ALA37       0.0290
     48  N         17.7080   40.6780   59.8560 N.3    39  ALA39      -0.1245
     49  CA        18.8950   41.5200   59.9040 C.3    39  ALA39       0.1562
     50  C         18.5060   42.9600   59.6230 C.2    39  ALA39       0.2260
     51  O         17.6870   43.2440   58.7280 O.2    39  ALA39      -0.2867
     52  CB        19.9100   41.0490   58.8810 C.3    39  ALA39       0.0290
     53  N         12.8770   47.8590   54.1620 N.3    60  MET60      -0.1245
     54  CA        13.0660   46.4960   53.7980 C.3    60  MET60       0.1570
     55  C         11.9050   46.0800   52.9430 C.2    60  MET60       0.2261
     56  O         10.8260   46.6460   53.0130 O.2    60  MET60      -0.2867
     57  CB        13.0580   45.6330   55.0800 C.3    60  MET60       0.0387
     58  CG        14.4330   45.3560   55.6500 C.3    60  MET60       0.0595
     59  SD        14.3880   44.6270   57.3060 S.3    60  MET60      -0.1393
     60  CE        13.2120   43.3720   56.9980 C.3    60  MET60       0.0692
     61  N         22.6460   41.5250   56.2370 N.3    94  PRO94      -0.2116
     62  CA        22.0730   40.2220   56.3180 C.3    94  PRO94       0.1372
     63  C         23.0220   39.0720   56.3830 C.2    94  PRO94       0.2244
     64  O         22.7910   38.2020   57.1950 O.2    94  PRO94      -0.2868
     65  CB        21.1920   40.1390   55.0870 C.3    94  PRO94       0.0268
     66  CG        20.8440   41.5480   54.7960 C.3    94  PRO94       0.0207
     67  CD        22.0520   42.3110   55.1400 C.3    94  PRO94       0.0892
     68  N         23.1330   36.8950   59.7060 N.3    98  LEU98      -0.1245
     69  CA        22.6780   35.5180   59.6820 C.3    98  LEU98       0.1561
     70  C         23.7710   34.5100   60.0620 C.2    98  LEU98       0.2260
     71  O         23.5220   33.5830   60.8270 O.2    98  LEU98      -0.2867
     72  CB        22.0870   35.0990   58.3630 C.3    98  LEU98       0.0270
     73  CG        20.8020   35.8050   58.0060 C.3    98  LEU98       0.0019
     74  CD1       20.5200   35.5080   56.5420 C.3    98  LEU98       0.0001
     75  CD2       19.6530   35.4230   58.9150 C.3    98  LEU98       0.0001
     76  N         17.7170   30.1440   53.9230 N.3   112  VAL112     -0.1231
     77  CA        17.5360   31.3680   53.1570 C.3   112  VAL112      0.1692
     78  C         16.7560   31.0820   51.8610 C.2   112  VAL112      0.2592
     79  O         16.7950   29.9760   51.3600 O.2   112  VAL112     -0.2718
     80  CB        18.9190   31.9140   52.7950 C.3   112  VAL112      0.0266
     81  CG1       18.7980   33.2280   52.0720 C.3   112  VAL112      0.0020
     82  CG2       19.7550   32.1180   54.0400 C.3   112  VAL112      0.0020
     83  N         16.0870   32.0940   51.3340 N.am  113  GLY113     -0.1957
     84  CA        15.4880   32.0700   49.9910 C.3   113  GLY113      0.1869
     85  C         16.5440   32.2540   48.9030 C.2   113  GLY113      0.2309
     86  O         17.7470   32.4390   49.1890 O.2   113  GLY113     -0.2863
     87  N         16.5820   34.5820   46.2550 N.3   115  VAL115     -0.1245
     88  CA        16.5400   35.8150   45.4740 C.3   115  VAL115      0.1561
     89  C         17.9550   36.3100   45.2070 C.2   115  VAL115      0.2260
     90  O         18.7720   36.4300   46.0980 O.2   115  VAL115     -0.2867
     91  CB        15.6020   36.9080   46.0880 C.3   115  VAL115      0.0252
     92  CG1       15.7490   38.2810   45.4110 C.3   115  VAL115      0.0019
     93  CG2       14.1460   36.4700   46.0050 C.3   115  VAL115      0.0019
     94  N         22.8460   37.2720   48.9290 N.3   128  VAL128     -0.1231
     95  CA        22.6510   36.7310   50.2280 C.3   128  VAL128      0.1678
     96  C         22.7280   35.2300   50.2650 C.2   128  VAL128      0.2434
     97  O         23.5250   34.7200   50.9850 O.2   128  VAL128     -0.2733
     98  CB        21.3260   37.2230   50.8280 C.3   128  VAL128      0.0265
     99  CG1       21.1110   36.6100   52.2190 C.3   128  VAL128      0.0020
    100  CG2       21.3680   38.7550   50.9170 C.3   128  VAL128      0.0020
    101  N         21.9760   34.5100   49.3920 N.am  129  PRO129     -0.2729
    102  CA        22.0810   33.0690   49.4920 C.3   129  PRO129      0.1401
    103  C         23.4420   32.5180   49.1670 C.2   129  PRO129      0.2269
    104  O         23.9110   31.5680   49.8220 O.2   129  PRO129     -0.2865
    105  CB        21.0170   32.5540   48.5250 C.3   129  PRO129      0.0296
    106  CG        20.6250   33.7290   47.7290 C.3   129  PRO129      0.0237
    107  CD        20.8500   34.9220   48.5650 C.3   129  PRO129      0.0939
    108  N         12.5620   29.8760   46.3360 N.3   145  THR145     -0.1218
    109  CA        11.4290   30.7460   46.5930 C.3   145  THR145      0.1862
    110  C         11.0010   31.5910   45.4030 C.2   145  THR145      0.2287
    111  O          9.8390   31.9900   45.3340 O.2   145  THR145     -0.2866
    112  CB        11.6840   31.6800   47.7690 C.3   145  THR145      0.1770
    113  OG1       12.8700   32.4060   47.5280 O.3   145  THR145     -0.2211
    114  CG2       11.7890   30.8800   49.0410 C.3   145  THR145      0.0375
@<TRIPOS>BOND
     1    89    88    1
     2    89    90    2
     3   111   110    2
     4   110   109    1
     5    92    91    1
     6    88    91    1
     7    88    87    1
     8    93    91    1
     9   108   109    1
    10   109   112    1
    11   113   112    1
    12    30    31    1
    13    30    27    1
    14   106   105    1
    15   106   107    1
    16   112   114    1
    17   105   102    1
    18   107   101    1
    19    27    26    1
    20    27    28    1
    21    85    86    2
    22    85    84    1
    23    94    95    1
    24   103   102    1
    25   103   104    2
    26   101   102    1
    27   101    96   am
    28    84    83    1
    29    28    29    2
    30    28    32   am
    31    95    96    1
    32    95    98    1
    33    96    97    2
    34    24    25    1
    35    24    21    1
    36    98   100    1
    37    98    99    1
    38    32    33    1
    39    22    21    1
    40    22    23    2
    41    21    20    1
    42    83    78   am
    43    79    78    2
    44    19    17   ar
    45    78    77    1
    46    81    80    1
    47    33    36    1
    48    33    34    1
    49    38    39    1
    50    18    17   ar
    51    17    16    1
    52    80    77    1
    53    80    82    1
    54    42    39    1
    55    39    40    1
    56    36    37    1
    57    55    56    2
    58    55    54    1
    59    34    35    2
    60    77    76    1
    61    54    53    1
    62    54    57    1
    63    16    13    1
    64    40    41    2
    65    15    14    2
    66    66    65    1
    67    66    67    1
    68    14    13    1
    69    57    58    1
    70    65    62    1
    71    67    61    1
    72    13    12    1
    73    12     7   am
    74    58    59    1
    75     4     3    2
    76    61    62    1
    77    10     9    1
    78    62    63    1
    79    63    64    2
    80     7     6    1
    81     7     8    2
    82     6     9    1
    83     6     5    1
    84    74    73    1
    85     3     5   am
    86     3     2    1
    87    60    59    1
    88     9    11    1
    89     2     1    1
    90    73    72    1
    91    73    75    1
    92    72    69    1
    93    51    50    2
    94    52    49    1
    95    50    49    1
    96    69    68    1
    97    69    70    1
    98    46    45    2
    99    48    49    1
   100    70    71    2
   101    45    44    1
   102    43    44    1
   103    44    47    1
