@<TRIPOS>MOLECULE
tmp/5ahzA01.pdb
 78 75 0 0 0
SMALL
GASTEIGER

@<TRIPOS>ATOM
      1  N        -20.3230  -14.8720    3.5640 N.3    75  GLY75      -0.1210
      2  CA       -21.2550  -15.3550    4.5660 C.3    75  GLY75       0.1956
      3  C        -21.8200  -14.2120    5.3660 C.2    75  GLY75       0.2612
      4  O        -22.8450  -14.3510    6.0230 O.2    75  GLY75      -0.2717
      5  N        -21.1360  -13.0740    5.3110 N.am   76  HIS76      -0.1961
      6  CA       -21.6120  -11.8700    5.9660 C.3    76  HIS76       0.1787
      7  C        -22.8100  -11.3560    5.1690 C.2    76  HIS76       0.2620
      8  O        -22.8670  -11.5390    3.9560 O.2    76  HIS76      -0.2715
      9  CB       -20.4920  -10.8260    6.0520 C.3    76  HIS76       0.0785
     10  CG       -20.8050   -9.6610    6.9350 C.ar   76  HIS76       0.0821
     11  ND1      -21.3570   -8.4890    6.4580 N.ar   76  HIS76      -0.2267
     12  CD2      -20.6300   -9.4770    8.2650 C.ar   76  HIS76       0.1154
     13  CE1      -21.5210   -7.6430    7.4580 C.ar   76  HIS76       0.1986
     14  NE2      -21.0880   -8.2200    8.5650 N.ar   76  HIS76      -0.2212
     15  N        -23.7700  -10.7450    5.8570 N.am   77  ALA77      -0.1977
     16  CA       -24.9030  -10.0950    5.2040 C.3    77  ALA77       0.1597
     17  C        -24.4890   -9.1050    4.1180 C.2    77  ALA77       0.2287
     18  O        -25.2980   -8.7590    3.2740 O.2    77  ALA77      -0.2864
     19  CB       -25.7610   -9.3770    6.2290 C.3    77  ALA77       0.0319
     20  N        -15.5980  -15.2080    8.3710 N.3   139  LEU139     -0.1245
     21  CA       -16.6500  -14.8450    9.3240 C.3   139  LEU139      0.1561
     22  C        -16.4820  -15.5400   10.6930 C.2   139  LEU139      0.2260
     23  O        -16.7590  -14.9410   11.7380 O.2   139  LEU139     -0.2867
     24  CB       -18.0220  -15.1700    8.7250 C.3   139  LEU139      0.0270
     25  CG       -19.2690  -14.4890    9.2940 C.3   139  LEU139      0.0019
     26  CD1      -19.0960  -12.9680    9.3590 C.3   139  LEU139      0.0001
     27  CD2      -20.4850  -14.8530    8.4410 C.3   139  LEU139      0.0001
     28  N        -16.3060  -13.5400   14.7630 N.3   143  TRP143     -0.1241
     29  CA       -17.1750  -13.8250   15.9300 C.3   143  TRP143      0.1605
     30  C        -16.4590  -14.5860   17.0530 C.2   143  TRP143      0.2264
     31  O        -16.8310  -14.4840   18.2350 O.2   143  TRP143     -0.2867
     32  CB       -18.4360  -14.6050   15.5040 C.3   143  TRP143      0.0550
     33  CG       -19.4320  -13.7770   14.7390 C.ar  143  TRP143      0.0003
     34  CD1      -19.6210  -13.7700   13.3850 C.ar  143  TRP143      0.0946
     35  CD2      -20.3700  -12.8260   15.2760 C.ar  143  TRP143      0.0152
     36  NE1      -20.6160  -12.8810   13.0450 N.ar  143  TRP143     -0.2442
     37  CE2      -21.0920  -12.2880   14.1840 C.ar  143  TRP143      0.0810
     38  CE3      -20.6630  -12.3730   16.5660 C.ar  143  TRP143      0.0012
     39  CZ2      -22.0950  -11.3280   14.3440 C.ar  143  TRP143      0.0191
     40  CZ3      -21.6560  -11.4210   16.7230 C.ar  143  TRP143      0.0001
     41  CH2      -22.3650  -10.9120   15.6150 C.ar  143  TRP143      0.0015
     42  N        -15.1930  -11.7150   18.7950 N.3   146  TYR146     -0.1241
     43  CA       -16.3350  -11.2000   19.5390 C.3   146  TYR146      0.1605
     44  C        -16.5420  -11.9560   20.8570 C.2   146  TYR146      0.2264
     45  O        -16.7580  -11.3340   21.9130 O.2   146  TYR146     -0.2867
     46  CB       -17.5940  -11.2780   18.6750 C.3   146  TYR146      0.0534
     47  CG       -18.8070  -10.6000   19.2630 C.ar  146  TYR146     -0.0201
     48  CD1      -19.6700  -11.2870   20.0990 C.ar  146  TYR146     -0.0009
     49  CD2      -19.1020   -9.2700   18.9630 C.ar  146  TYR146     -0.0009
     50  CE1      -20.7830  -10.6740   20.6320 C.ar  146  TYR146      0.0417
     51  CE2      -20.2330   -8.6350   19.4920 C.ar  146  TYR146      0.0417
     52  CZ       -21.0630   -9.3500   20.3270 C.ar  146  TYR146      0.1957
     53  OH       -22.1800   -8.7590   20.8670 O.3   146  TYR146     -0.2866
     54  N        -23.0340   -6.1610   17.5220 N.3   196  ALA196     -0.1245
     55  CA       -23.7470   -7.3330   16.9750 C.3   196  ALA196      0.1562
     56  C        -24.8790   -6.9530   16.0230 C.2   196  ALA196      0.2260
     57  O        -24.9660   -7.4800   14.9150 O.2   196  ALA196     -0.2867
     58  CB       -24.3080   -8.2210   18.1220 C.3   196  ALA196      0.0290
     59  N        -21.3580   -6.5440   12.5810 N.3   201  GLY201     -0.1210
     60  CA       -21.8400   -7.7960   13.1500 C.3   201  GLY201      0.1956
     61  C        -22.8380   -8.5110   12.2510 C.2   201  GLY201      0.2611
     62  O        -22.4910   -8.9850   11.1630 O.2   201  GLY201     -0.2717
     63  N        -24.0890   -8.5790   12.6970 N.am  202  LEU202     -0.1979
     64  CA       -25.1450   -9.2330   11.9220 C.3   202  LEU202      0.1596
     65  C        -25.6460   -8.3570   10.7690 C.2   202  LEU202      0.2287
     66  O        -26.0080   -8.8640    9.7120 O.2   202  LEU202     -0.2864
     67  CB       -26.3190   -9.6110   12.8330 C.3   202  LEU202      0.0297
     68  CG       -25.9970  -10.5720   13.9760 C.3   202  LEU202      0.0022
     69  CD1      -27.2000  -10.7740   14.8530 C.3   202  LEU202      0.0001
     70  CD2      -25.4880  -11.8880   13.4010 C.3   202  LEU202      0.0001
     71  N        -28.2940   -6.2230   11.0120 N.3   204  LEU204     -0.1245
     72  CA       -29.7260   -6.0160   11.0910 C.3   204  LEU204      0.1561
     73  C        -29.9940   -4.5460   10.8130 C.2   204  LEU204      0.2260
     74  O        -31.0310   -4.1670   10.2790 O.2   204  LEU204     -0.2867
     75  CB       -30.2450   -6.4280   12.4590 C.3   204  LEU204      0.0270
     76  CG       -29.9150   -7.8680   12.8780 C.3   204  LEU204      0.0019
     77  CD1      -30.4240   -8.1770   14.2760 C.3   204  LEU204      0.0001
     78  CD2      -30.4780   -8.8570   11.8800 C.3   204  LEU204      0.0001
@<TRIPOS>BOND
     1    18    17    2
     2     1     2    1
     3     8     7    2
     4    17    16    1
     5     2     3    1
     6     7    15   am
     7     7     6    1
     8    16    15    1
     9    16    19    1
    10     5     3   am
    11     5     6    1
    12     3     4    2
    13     6     9    1
    14     9    10    1
    15    11    10   ar
    16    11    13   ar
    17    10    12   ar
    18    13    14   ar
    19    12    14   ar
    20    20    21    1
    21    27    25    1
    22    24    25    1
    23    24    21    1
    24    25    26    1
    25    21    22    1
    26    66    65    2
    27    74    73    2
    28    22    23    2
    29    65    64    1
    30    73    72    1
    31    71    72    1
    32    72    75    1
    33    62    61    2
    34    78    76    1
    35    64    63    1
    36    64    67    1
    37    61    63   am
    38    61    60    1
    39    75    76    1
    40    59    60    1
    41    67    68    1
    42    76    77    1
    43    36    34   ar
    44    36    37   ar
    45    34    33   ar
    46    70    68    1
    47    68    69    1
    48    37    39   ar
    49    37    35   ar
    50    39    41   ar
    51    33    35   ar
    52    33    32    1
    53    28    29    1
    54    57    56    2
    55    35    38   ar
    56    32    29    1
    57    41    40   ar
    58    29    30    1
    59    56    55    1
    60    38    40   ar
    61    55    54    1
    62    55    58    1
    63    30    31    2
    64    46    47    1
    65    46    43    1
    66    42    43    1
    67    49    47   ar
    68    49    51   ar
    69    47    48   ar
    70    51    52   ar
    71    43    44    1
    72    48    50   ar
    73    52    50   ar
    74    52    53    1
    75    44    45    2
