@<TRIPOS>MOLECULE
tmp/5ahzA00.pdb
 186 182 0 0 0
SMALL
GASTEIGER

@<TRIPOS>ATOM
      1  N        -12.7670    1.6570   18.9760 N.3    90  TYR90      -0.1241
      2  CA       -12.2880    0.4410   19.6400 C.3    90  TYR90       0.1605
      3  C        -10.8990    0.6900   20.1940 C.2    90  TYR90       0.2264
      4  O        -10.5400    0.2220   21.2700 O.2    90  TYR90      -0.2867
      5  CB       -12.2660   -0.7520   18.6740 C.3    90  TYR90       0.0534
      6  CG       -13.4750   -0.8500   17.7600 C.ar   90  TYR90      -0.0201
      7  CD1      -14.7560   -0.7960   18.2640 C.ar   90  TYR90      -0.0009
      8  CD2      -13.3180   -0.9740   16.3880 C.ar   90  TYR90      -0.0009
      9  CE1      -15.8600   -0.8850   17.4270 C.ar   90  TYR90       0.0417
     10  CE2      -14.4030   -1.0610   15.5410 C.ar   90  TYR90       0.0417
     11  CZ       -15.6760   -1.0210   16.0670 C.ar   90  TYR90       0.1957
     12  OH       -16.7720   -1.1030   15.2350 O.3    90  TYR90      -0.2866
     13  N        -11.0400    3.2990   23.4130 N.3    93  TRP93      -0.1241
     14  CA       -11.6960    2.6650   24.5480 C.3    93  TRP93       0.1605
     15  C        -10.6520    2.0570   25.4740 C.2    93  TRP93       0.2264
     16  O        -10.7910    2.0910   26.6950 O.2    93  TRP93      -0.2867
     17  CB       -12.6750    1.5840   24.0760 C.3    93  TRP93       0.0550
     18  CG       -13.8620    2.1330   23.3520 C.ar   93  TRP93       0.0003
     19  CD1      -14.2650    3.4500   23.3020 C.ar   93  TRP93       0.0946
     20  CD2      -14.8060    1.3930   22.5640 C.ar   93  TRP93       0.0152
     21  NE1      -15.4050    3.5640   22.5360 N.ar   93  TRP93      -0.2442
     22  CE2      -15.7640    2.3200   22.0750 C.ar   93  TRP93       0.0810
     23  CE3      -14.9420    0.0350   22.2260 C.ar   93  TRP93       0.0012
     24  CZ2      -16.8430    1.9340   21.2690 C.ar   93  TRP93       0.0191
     25  CZ3      -16.0130   -0.3510   21.4170 C.ar   93  TRP93       0.0001
     26  CH2      -16.9490    0.6030   20.9450 C.ar   93  TRP93       0.0015
     27  N         -9.6290    4.9370   27.5820 N.3    96  SER96      -0.1202
     28  CA       -10.6750    5.6500   28.3050 C.3    96  SER96       0.2020
     29  C        -11.4010    4.7490   29.3140 C.2    96  SER96       0.2619
     30  O        -11.6580    5.1990   30.4310 O.2    96  SER96      -0.2717
     31  CB       -11.6870    6.2810   27.3410 C.3    96  SER96       0.2103
     32  OG       -12.4460    5.3050   26.6560 O.3    96  SER96      -0.2182
     33  N        -11.7180    3.4970   28.9470 N.am   97  THR97      -0.1952
     34  CA       -12.4170    2.6130   29.8850 C.3    97  THR97       0.1897
     35  C        -11.5390    2.2340   31.0940 C.2    97  THR97       0.2313
     36  O        -12.0540    2.0680   32.2010 O.2    97  THR97      -0.2863
     37  CB       -12.9960    1.3230   29.1910 C.3    97  THR97       0.1794
     38  OG1      -11.9670    0.5260   28.6070 O.3    97  THR97      -0.2208
     39  CG2      -13.9940    1.6910   28.1120 C.3    97  THR97       0.0378
     40  N        -12.2500    5.0990   33.5970 N.3   100  ILE100     -0.1245
     41  CA       -13.4810    4.8550   34.3330 C.3   100  ILE100      0.1561
     42  C        -13.2220    3.8900   35.4850 C.2   100  ILE100      0.2260
     43  O        -13.6100    4.1500   36.6290 O.2   100  ILE100     -0.2867
     44  CB       -14.5970    4.2880   33.4010 C.3   100  ILE100      0.0252
     45  CG1      -14.8680    5.2600   32.2290 C.3   100  ILE100      0.0019
     46  CG2      -15.8660    3.9510   34.2150 C.3   100  ILE100      0.0019
     47  CD1      -16.0280    4.8570   31.2950 C.3   100  ILE100      0.0001
     48  N        -10.4810   -6.9340   26.4660 N.3   125  MET125     -0.1230
     49  CA       -11.8120   -6.7510   25.8640 C.3   125  MET125      0.1702
     50  C        -11.7510   -5.8000   24.6540 C.2   125  MET125      0.2592
     51  O        -12.2690   -6.1100   23.5830 O.2   125  MET125     -0.2718
     52  CB       -12.8060   -6.2080   26.9110 C.3   125  MET125      0.0401
     53  CG       -14.2390   -5.9830   26.4100 C.3   125  MET125      0.0596
     54  SD       -15.2890   -5.1900   27.6490 S.3   125  MET125     -0.1393
     55  CE       -14.5940   -3.5200   27.6200 C.3   125  MET125      0.0692
     56  N        -11.1000   -4.6480   24.8390 N.am  126  CYS126     -0.1970
     57  CA       -11.0680   -3.6120   23.8240 C.3   126  CYS126      0.1712
     58  C        -10.2590   -4.0360   22.6080 C.2   126  CYS126      0.2296
     59  O        -10.6710   -3.8050   21.4660 O.2   126  CYS126     -0.2864
     60  CB       -10.5070   -2.3090   24.4090 C.3   126  CYS126      0.0983
     61  SG       -11.6160   -1.5350   25.6030 S.3   126  CYS126     -0.0798
     62  N        -11.9280   -6.7090   20.5660 N.3   129  GLY129     -0.1225
     63  CA       -12.9990   -6.0750   19.8030 C.3   129  GLY129      0.1811
     64  C        -12.5120   -5.5020   18.4760 C.2   129  GLY129      0.2280
     65  O        -13.1560   -5.6710   17.4350 O.2   129  GLY129     -0.2866
     66  N        -11.7480   -8.1880   16.0220 N.3   132  ALA132     -0.1245
     67  CA       -13.0200   -8.6180   15.4200 C.3   132  ALA132      0.1562
     68  C        -13.4400   -7.7220   14.2590 C.2   132  ALA132      0.2260
     69  O        -13.8860   -8.2070   13.2250 O.2   132  ALA132     -0.2867
     70  CB       -14.1310   -8.6580   16.4850 C.3   132  ALA132      0.0290
     71  N        -15.1930  -11.7150   18.7950 N.3   146  TYR146     -0.1241
     72  CA       -16.3350  -11.2000   19.5390 C.3   146  TYR146      0.1605
     73  C        -16.5420  -11.9560   20.8570 C.2   146  TYR146      0.2264
     74  O        -16.7580  -11.3340   21.9130 O.2   146  TYR146     -0.2867
     75  CB       -17.5940  -11.2780   18.6750 C.3   146  TYR146      0.0534
     76  CG       -18.8070  -10.6000   19.2630 C.ar  146  TYR146     -0.0201
     77  CD1      -19.6700  -11.2870   20.0990 C.ar  146  TYR146     -0.0009
     78  CD2      -19.1020   -9.2700   18.9630 C.ar  146  TYR146     -0.0009
     79  CE1      -20.7830  -10.6740   20.6320 C.ar  146  TYR146      0.0417
     80  CE2      -20.2330   -8.6350   19.4920 C.ar  146  TYR146      0.0417
     81  CZ       -21.0630   -9.3500   20.3270 C.ar  146  TYR146      0.1957
     82  OH       -22.1800   -8.7590   20.8670 O.3   146  TYR146     -0.2866
     83  N        -13.6900  -11.4350   23.4680 N.3   149  SER149     -0.1202
     84  CA       -13.9650  -10.1110   24.0020 C.3   149  SER149      0.2020
     85  C        -15.0620  -10.1320   25.0790 C.2   149  SER149      0.2619
     86  O        -14.8850   -9.5470   26.1490 O.2   149  SER149     -0.2717
     87  CB       -14.3540   -9.1670   22.8670 C.3   149  SER149      0.2103
     88  OG       -14.4670   -7.8530   23.3480 O.3   149  SER149     -0.2182
     89  N        -16.1800  -10.8140   24.8050 N.am  150  CYS150     -0.1969
     90  CA       -17.2090  -11.0270   25.8350 C.3   150  CYS150      0.1712
     91  C        -16.6620  -11.7040   27.1170 C.2   150  CYS150      0.2296
     92  O        -17.0410  -11.3230   28.2300 O.2   150  CYS150     -0.2864
     93  CB       -18.3730  -11.8640   25.2740 C.3   150  CYS150      0.0983
     94  SG       -19.4320  -11.0870   23.9960 S.3   150  CYS150     -0.0798
     95  N        -14.9990   -9.0730   29.1040 N.3   153  PHE153     -0.1241
     96  CA       -16.0560   -8.2320   29.6690 C.3   153  PHE153      0.1605
     97  C        -16.6260   -8.8480   30.9620 C.2   153  PHE153      0.2264
     98  O        -16.8050   -8.1710   31.9750 O.2   153  PHE153     -0.2867
     99  CB       -17.1640   -8.0350   28.6160 C.3   153  PHE153      0.0534
    100  CG       -18.2240   -7.0330   29.0030 C.ar  153  PHE153     -0.0203
    101  CD1      -17.9920   -6.0820   29.9840 C.ar  153  PHE153     -0.0042
    102  CD2      -19.4730   -7.0510   28.3750 C.ar  153  PHE153     -0.0042
    103  CE1      -18.9780   -5.1660   30.3230 C.ar  153  PHE153     -0.0003
    104  CE2      -20.4620   -6.1340   28.7140 C.ar  153  PHE153     -0.0003
    105  CZ       -20.2190   -5.2000   29.6930 C.ar  153  PHE153     -0.0000
    106  N        -22.5590   -0.2580   29.5770 N.3   188  TRP188     -0.1241
    107  CA       -21.4950   -0.9770   28.8650 C.3   188  TRP188      0.1605
    108  C        -22.0760   -2.1430   28.0510 C.2   188  TRP188      0.2264
    109  O        -21.5390   -2.4780   26.9960 O.2   188  TRP188     -0.2867
    110  CB       -20.4090   -1.4890   29.8130 C.3   188  TRP188      0.0550
    111  CG       -19.4630   -0.4250   30.3460 C.ar  188  TRP188      0.0003
    112  CD1      -19.7750    0.8640   30.6780 C.ar  188  TRP188      0.0946
    113  CD2      -18.0620   -0.5760   30.6080 C.ar  188  TRP188      0.0152
    114  NE1      -18.6580    1.5200   31.1310 N.ar  188  TRP188     -0.2442
    115  CE2      -17.5940    0.6570   31.1090 C.ar  188  TRP188      0.0810
    116  CE3      -17.1540   -1.6330   30.4660 C.ar  188  TRP188      0.0012
    117  CZ2      -16.2530    0.8660   31.4670 C.ar  188  TRP188      0.0191
    118  CZ3      -15.8210   -1.4260   30.8260 C.ar  188  TRP188      0.0001
    119  CH2      -15.3870   -0.1900   31.3260 C.ar  188  TRP188      0.0015
    120  N        -22.8520   -1.6310   24.2360 N.3   191  TYR191     -0.1228
    121  CA       -21.8250   -1.6170   23.1950 C.3   191  TYR191      0.1721
    122  C        -21.7380   -2.9250   22.3870 C.2   191  TYR191      0.2437
    123  O        -21.7270   -2.8830   21.1570 O.2   191  TYR191     -0.2733
    124  CB       -20.4610   -1.2850   23.8030 C.3   191  TYR191      0.0547
    125  CG       -20.3000    0.1400   24.2580 C.ar  191  TYR191     -0.0200
    126  CD1      -20.6940    0.5370   25.5310 C.ar  191  TYR191     -0.0009
    127  CD2      -19.7400    1.0910   23.4190 C.ar  191  TYR191     -0.0009
    128  CE1      -20.5390    1.8490   25.9550 C.ar  191  TYR191      0.0417
    129  CE2      -19.5820    2.4070   23.8290 C.ar  191  TYR191      0.0417
    130  CZ       -19.9770    2.7820   25.0970 C.ar  191  TYR191      0.1957
    131  OH       -19.8110    4.0990   25.4890 O.3   191  TYR191     -0.2866
    132  N        -21.6700   -4.0890   23.0580 N.am  192  PRO192     -0.2729
    133  CA       -21.6650   -5.2930   22.2150 C.3   192  PRO192      0.1401
    134  C        -23.0190   -5.5610   21.5260 C.2   192  PRO192      0.2269
    135  O        -23.0860   -6.2690   20.5120 O.2   192  PRO192     -0.2865
    136  CB       -21.2990   -6.4180   23.2030 C.3   192  PRO192      0.0296
    137  CG       -21.6150   -5.8890   24.5490 C.3   192  PRO192      0.0237
    138  CD       -21.4050   -4.4060   24.4760 C.3   192  PRO192      0.0939
    139  N        -22.6130   -3.3470   18.3630 N.3   195  TRP195     -0.1241
    140  CA       -21.7200   -4.0910   17.4590 C.3   195  TRP195      0.1605
    141  C        -22.4540   -5.2440   16.7440 C.2   195  TRP195      0.2264
    142  O        -22.4990   -5.2790   15.5130 O.2   195  TRP195     -0.2867
    143  CB       -20.5100   -4.6510   18.2200 C.3   195  TRP195      0.0550
    144  CG       -19.3260   -4.9550   17.3310 C.ar  195  TRP195      0.0003
    145  CD1      -18.2830   -4.1180   17.0450 C.ar  195  TRP195      0.0946
    146  CD2      -19.0780   -6.1680   16.5980 C.ar  195  TRP195      0.0152
    147  NE1      -17.4010   -4.7380   16.1890 N.ar  195  TRP195     -0.2442
    148  CE2      -17.8640   -5.9960   15.9020 C.ar  195  TRP195      0.0810
    149  CE3      -19.7670   -7.3760   16.4600 C.ar  195  TRP195      0.0012
    150  CZ2      -17.3210   -6.9900   15.0790 C.ar  195  TRP195      0.0191
    151  CZ3      -19.2150   -8.3750   15.6500 C.ar  195  TRP195      0.0001
    152  CH2      -18.0090   -8.1660   14.9690 C.ar  195  TRP195      0.0015
    153  N        -23.3500    4.5760   19.3000 N.3   215  TYR215     -0.1241
    154  CA       -22.1320    4.6460   20.1340 C.3   215  TYR215      0.1605
    155  C        -21.9830    6.0220   20.7780 C.2   215  TYR215      0.2264
    156  O        -21.6350    6.1330   21.9450 O.2   215  TYR215     -0.2867
    157  CB       -20.8640    4.3530   19.3080 C.3   215  TYR215      0.0534
    158  CG       -20.6680    2.9200   18.8410 C.ar  215  TYR215     -0.0201
    159  CD1      -20.7060    1.8410   19.7400 C.ar  215  TYR215     -0.0009
    160  CD2      -20.4050    2.6460   17.4980 C.ar  215  TYR215     -0.0009
    161  CE1      -20.4970    0.5420   19.3040 C.ar  215  TYR215      0.0417
    162  CE2      -20.1920    1.3530   17.0560 C.ar  215  TYR215      0.0417
    163  CZ       -20.2470    0.3100   17.9520 C.ar  215  TYR215      0.1957
    164  OH       -20.0460   -0.9600   17.4820 O.3   215  TYR215     -0.2866
    165  N        -21.7270    6.8720   24.7060 N.3   219  ASP219     -0.1239
    166  CA       -20.6380    7.6420   25.3120 C.3   219  ASP219      0.1674
    167  C        -21.1290    8.7730   26.2090 C.2   219  ASP219      0.2266
    168  O        -20.5030    9.0840   27.2310 O.2   219  ASP219     -0.2867
    169  CB       -19.7170    8.2450   24.2460 C.3   219  ASP219      0.1410
    170  CG       -18.7790    7.2380   23.6540 C.2   219  ASP219      0.3668
    171  OD1      -18.7860    6.0760   24.1130 O.co2 219  ASP219     -0.2456
    172  OD2      -18.0310    7.6150   22.7250 O.co2 219  ASP219     -0.2456
    173  N        -22.1980    6.9080   29.4590 N.3   222  ALA222     -0.1231
    174  CA       -21.1650    6.0840   30.0840 C.3   222  ALA222      0.1694
    175  C        -19.9670    6.9170   30.5020 C.2   222  ALA222      0.2591
    176  O        -19.2690    6.5770   31.4570 O.2   222  ALA222     -0.2718
    177  CB       -20.7190    4.9590   29.1480 C.3   222  ALA222      0.0304
    178  N        -19.7260    8.0120   29.7920 N.am  223  LYS223     -0.1980
    179  CA       -18.6100    8.8780   30.1560 C.3   223  LYS223      0.1596
    180  C        -19.0630   10.1660   30.8460 C.2   223  LYS223      0.2287
    181  O        -18.8170   10.3550   32.0400 O.2   223  LYS223     -0.2864
    182  CB       -17.7700    9.2070   28.9260 C.3   223  LYS223      0.0298
    183  CG       -16.9280    8.0420   28.4230 C.3   223  LYS223      0.0038
    184  CD       -16.3580    8.3140   27.0330 C.3   223  LYS223      0.0206
    185  CE       -15.3130    7.2490   26.6350 C.3   223  LYS223      0.1093
    186  NZ       -15.8460    5.9440   26.1350 N.3   223  LYS223     -0.1314
@<TRIPOS>BOND
     1    69    68    2
     2    68    67    1
     3   152   150   ar
     4   152   151   ar
     5   150   148   ar
     6    12    11    1
     7    67    66    1
     8    67    70    1
     9   142   141    2
    10    10    11   ar
    11    10     8   ar
    12   151   149   ar
    13   148   147   ar
    14   148   146   ar
    15    11     9   ar
    16   147   145   ar
    17     8     6   ar
    18   149   146   ar
    19   146   144   ar
    20   141   140    1
    21   145   144   ar
    22   162   160   ar
    23   162   163   ar
    24   144   143    1
    25     9     7   ar
    26    65    64    2
    27   140   143    1
    28   140   139    1
    29   164   163    1
    30   160   158   ar
    31     6     7   ar
    32     6     5    1
    33   163   161   ar
    34    64    63    1
    35     5     2    1
    36    75    76    1
    37    75    72    1
    38    71    72    1
    39   158   157    1
    40   158   159   ar
    41    78    76   ar
    42    78    80   ar
    43     1     2    1
    44    76    77   ar
    45   153   154    1
    46   161   159   ar
    47   157   154    1
    48    80    81   ar
    49    72    73    1
    50     2     3    1
    51    63    62    1
    52    77    79   ar
    53   154   155    1
    54     3     4    2
    55    81    79   ar
    56    81    82    1
    57   135   134    2
    58   155   156    2
    59    73    74    2
    60    26    24   ar
    61    26    25   ar
    62   123   122    2
    63    24    22   ar
    64    25    23   ar
    65    59    58    2
    66   134   133    1
    67    22    21   ar
    68    22    20   ar
    69   133   132    1
    70   133   136    1
    71    23    20   ar
    72   122   132   am
    73   122   121    1
    74    21    19   ar
    75    20    18   ar
    76    58    57    1
    77   172   170   ar
    78    87    88    1
    79    87    84    1
    80   132   138    1
    81   121   124    1
    82   121   120    1
    83   136   137    1
    84    19    18   ar
    85    18    17    1
    86    13    14    1
    87   127   129   ar
    88   127   125   ar
    89    83    84    1
    90    51    50    2
    91   170   171   ar
    92   170   169    1
    93   124   125    1
    94    57    60    1
    95    57    56    1
    96   129   130   ar
    97    94    93    1
    98    84    85    1
    99    17    14    1
   100   169   166    1
   101   125   126   ar
   102    60    61    1
   103   138   137    1
   104    14    15    1
   105    50    56   am
   106    50    49    1
   107   165   166    1
   108    89    85   am
   109    89    90    1
   110    85    86    2
   111   130   131    1
   112   130   128   ar
   113    93    90    1
   114   166   167    1
   115    15    16    2
   116   126   128   ar
   117    90    91    1
   118    49    48    1
   119    49    52    1
   120   186   185    1
   121   167   168    2
   122    53    52    1
   123    53    54    1
   124   185   184    1
   125    32    31    1
   126   109   108    2
   127   184   183    1
   128    91    92    2
   129    31    28    1
   130    27    28    1
   131    55    54    1
   132   108   107    1
   133    39    37    1
   134    28    29    1
   135   102   104   ar
   136   102   100   ar
   137   183   182    1
   138    38    37    1
   139    99   100    1
   140    99    96    1
   141   104   105   ar
   142   107   106    1
   143   107   110    1
   144   182   179    1
   145    33    29   am
   146    33    34    1
   147   100   101   ar
   148    95    96    1
   149   177   174    1
   150    37    34    1
   151    29    30    2
   152   173   174    1
   153    96    97    1
   154   105   103   ar
   155   178   179    1
   156   178   175   am
   157   110   111    1
   158    34    35    1
   159   101   103   ar
   160   174   175    1
   161   179   180    1
   162   111   113   ar
   163   111   112   ar
   164   116   113   ar
   165   116   118   ar
   166   175   176    2
   167   113   115   ar
   168   112   114   ar
   169   118   119   ar
   170   180   181    2
   171    97    98    2
   172    35    36    2
   173   115   114   ar
   174   115   117   ar
   175    47    45    1
   176   119   117   ar
   177    45    44    1
   178    44    46    1
   179    44    41    1
   180    40    41    1
   181    41    42    1
   182    42    43    2
