@<TRIPOS>MOLECULE
tmp/5ai0A02.pdb
 119 117 0 0 0
SMALL
GASTEIGER

@<TRIPOS>ATOM
      1  N         18.3330   15.6880   29.9310 N.3   309  MET309     -0.1245
      2  CA        17.5620   16.8990   29.6260 C.3   309  MET309      0.1570
      3  C         17.5420   17.9620   30.7330 C.2   309  MET309      0.2261
      4  O         17.6210   19.1460   30.4190 O.2   309  MET309     -0.2867
      5  CB        16.1530   16.5600   29.1310 C.3   309  MET309      0.0387
      6  CG        15.5230   17.7180   28.3490 C.3   309  MET309      0.0595
      7  SD        16.5310   18.2270   26.9200 S.3   309  MET309     -0.1393
      8  CE        16.1640   16.9610   25.8780 C.3   309  MET309      0.0692
      9  N         16.4580   16.2370   18.4200 N.3   335  TRP335     -0.1241
     10  CA        16.7660   16.3470   19.8570 C.3   335  TRP335      0.1605
     11  C         16.6000   17.7880   20.3700 C.2   335  TRP335      0.2264
     12  O         16.2070   17.9720   21.5350 O.2   335  TRP335     -0.2867
     13  CB        18.1720   15.8240   20.1980 C.3   335  TRP335      0.0550
     14  CG        18.1390   14.4320   20.7440 C.ar  335  TRP335      0.0003
     15  CD1       18.6460   13.3110   20.1530 C.ar  335  TRP335      0.0946
     16  CD2       17.4550   13.9880   21.9250 C.ar  335  TRP335      0.0152
     17  NE1       18.3730   12.2060   20.9210 N.ar  335  TRP335     -0.2442
     18  CE2       17.6500   12.5910   22.0200 C.ar  335  TRP335      0.0810
     19  CE3       16.7850   14.6420   22.9630 C.ar  335  TRP335      0.0012
     20  CZ2       17.1700   11.8340   23.1010 C.ar  335  TRP335      0.0191
     21  CZ3       16.2960   13.8850   24.0270 C.ar  335  TRP335      0.0001
     22  CH2       16.5050   12.5000   24.0900 C.ar  335  TRP335      0.0015
     23  N         13.0180   18.3010   21.2150 N.3   338  MET338     -0.1245
     24  CA        12.6850   17.7290   22.5100 C.3   338  MET338      0.1570
     25  C         13.1360   18.7240   23.6060 C.2   338  MET338      0.2261
     26  O         12.3730   18.9700   24.5440 O.2   338  MET338     -0.2867
     27  CB        13.4070   16.3840   22.7220 C.3   338  MET338      0.0387
     28  CG        12.8860   15.6080   23.9070 C.3   338  MET338      0.0595
     29  SD        11.1470   15.0770   23.6950 S.3   338  MET338     -0.1393
     30  CE        11.3250   14.0220   22.3610 C.3   338  MET338      0.0692
     31  N         10.7600   20.9010   26.6480 N.3   342  TYR342     -0.1241
     32  CA        11.1070   20.8360   28.0650 C.3   342  TYR342      0.1605
     33  C         11.4770   22.1990   28.6450 C.2   342  TYR342      0.2264
     34  O         11.0990   22.4840   29.7950 O.2   342  TYR342     -0.2867
     35  CB        12.0590   19.6580   28.3730 C.3   342  TYR342      0.0534
     36  CG        11.2290   18.3930   28.3800 C.ar  342  TYR342     -0.0201
     37  CD1       10.4670   18.0480   29.4970 C.ar  342  TYR342     -0.0009
     38  CD2       11.0220   17.6660   27.2080 C.ar  342  TYR342     -0.0009
     39  CE1        9.5540   16.9910   29.4600 C.ar  342  TYR342      0.0417
     40  CE2       10.1140   16.6000   27.1630 C.ar  342  TYR342      0.0417
     41  CZ         9.4030   16.2500   28.3000 C.ar  342  TYR342      0.1957
     42  OH         8.5360   15.1820   28.2850 O.3   342  TYR342     -0.2866
     43  N          5.0080   14.4930   23.5350 N.3   362  ILE362     -0.1245
     44  CA         4.2470   13.3440   24.0610 C.3   362  ILE362      0.1561
     45  C          4.5800   13.2270   25.5440 C.2   362  ILE362      0.2260
     46  O          5.7330   12.9480   25.8760 O.2   362  ILE362     -0.2867
     47  CB         4.4850   12.0070   23.2600 C.3   362  ILE362      0.0252
     48  CG1        4.0130   12.1470   21.7830 C.3   362  ILE362      0.0019
     49  CG2        3.7940   10.7950   23.9320 C.3   362  ILE362      0.0019
     50  CD1        4.6460   11.1760   20.8080 C.3   362  ILE362      0.0001
     51  N          5.3900   11.9330   29.2230 N.3   364  ALA364     -0.1231
     52  CA         5.9560   10.6680   29.6650 C.3   364  ALA364      0.1694
     53  C          4.8510    9.7750   30.2350 C.2   364  ALA364      0.2592
     54  O          3.8870   10.2640   30.8380 O.2   364  ALA364     -0.2718
     55  CB         7.0370   10.9070   30.7110 C.3   364  ALA364      0.0304
     56  N          4.9700    8.4680   29.9930 N.am  365  ASN365     -0.1974
     57  CA         4.0000    7.5140   30.5220 C.3   365  ASN365      0.1688
     58  C          4.5920    6.9780   31.8250 C.2   365  ASN365      0.2292
     59  O          5.6120    6.2870   31.7960 O.2   365  ASN365     -0.2864
     60  CB         3.7180    6.3970   29.5160 C.3   365  ASN365      0.1181
     61  CG         2.8140    5.2950   30.0360 C.2   365  ASN365      0.2629
     62  OD1        2.4550    5.2350   31.2260 O.2   365  ASN365     -0.2716
     63  ND2        2.4550    4.3800   29.1460 N.am  365  ASN365     -0.0877
     64  N         10.8330    3.8000   29.8810 N.3   370  PRO370     -0.2116
     65  CA        11.1530    4.2680   28.5190 C.3   370  PRO370      0.1372
     66  C         11.7360    3.1680   27.6140 C.2   370  PRO370      0.2244
     67  O         11.4610    3.1740   26.4160 O.2   370  PRO370     -0.2868
     68  CB        12.1110    5.4450   28.7580 C.3   370  PRO370      0.0268
     69  CG        12.6460    5.2400   30.1380 C.3   370  PRO370      0.0207
     70  CD        11.5300    4.6030   30.9070 C.3   370  PRO370      0.0892
     71  N         17.6920    7.9440   28.9680 N.3   468  MET468     -0.1245
     72  CA        16.2640    7.6180   28.9090 C.3   468  MET468      0.1570
     73  C         15.5560    7.5620   30.2410 C.2   468  MET468      0.2261
     74  O         14.5180    8.2060   30.3900 O.2   468  MET468     -0.2867
     75  CB        16.0220    6.3250   28.1290 C.3   468  MET468      0.0387
     76  CG        16.4810    6.4180   26.7050 C.3   468  MET468      0.0595
     77  SD        15.9410    5.1140   25.5800 S.3   468  MET468     -0.1393
     78  CE        14.7880    4.2470   26.5900 C.3   468  MET468      0.0692
     79  N         15.7180   11.0420   32.0400 N.3   471  ASN471     -0.1225
     80  CA        14.7950   11.9910   31.3830 C.3   471  ASN471      0.1785
     81  C         13.3550   11.6710   31.7180 C.2   471  ASN471      0.2597
     82  O         12.5610   12.5890   31.9330 O.2   471  ASN471     -0.2718
     83  CB        15.0110   12.0040   29.8610 C.3   471  ASN471      0.1169
     84  CG        16.3410   12.6060   29.4600 C.2   471  ASN471      0.2627
     85  OD1       17.0240   13.2610   30.2610 O.2   471  ASN471     -0.2716
     86  ND2       16.7080   12.4480   28.2040 N.am  471  ASN471     -0.0877
     87  N         13.0140   10.3710   31.7780 N.am  472  TRP472     -0.1976
     88  CA        11.6620    9.9080   32.0990 C.3   472  TRP472      0.1640
     89  C         11.2550   10.3340   33.5280 C.2   472  TRP472      0.2290
     90  O         10.1760   10.9180   33.6940 O.2   472  TRP472     -0.2864
     91  CB        11.5560    8.3920   31.8760 C.3   472  TRP472      0.0576
     92  CG        10.2740    7.7590   32.3360 C.ar  472  TRP472      0.0006
     93  CD1        9.0910    7.7250   31.6600 C.ar  472  TRP472      0.0946
     94  CD2       10.1140    6.8930   33.4680 C.ar  472  TRP472      0.0152
     95  NE1        8.1790    6.9600   32.3420 N.ar  472  TRP472     -0.2442
     96  CE2        8.7800    6.4290   33.4530 C.ar  472  TRP472      0.0810
     97  CE3       10.9610    6.4930   34.5160 C.ar  472  TRP472      0.0012
     98  CZ2        8.2580    5.6050   34.4610 C.ar  472  TRP472      0.0191
     99  CZ3       10.4520    5.6600   35.5080 C.ar  472  TRP472      0.0001
    100  CH2        9.1090    5.2340   35.4790 C.ar  472  TRP472      0.0015
    101  N         12.4910   12.8050   35.3310 N.3   474  TRP474     -0.1227
    102  CA        12.3750   14.2550   35.3440 C.3   474  TRP474      0.1737
    103  C         11.0620   14.6860   34.6920 C.2   474  TRP474      0.2595
    104  O         10.2950   15.4370   35.3150 O.2   474  TRP474     -0.2718
    105  CB        13.5820   14.8780   34.6340 C.3   474  TRP474      0.0564
    106  CG        13.6580   16.3660   34.7210 C.ar  474  TRP474      0.0003
    107  CD1       13.8360   17.1120   35.8510 C.ar  474  TRP474      0.0946
    108  CD2       13.7390   17.2810   33.6170 C.ar  474  TRP474      0.0152
    109  NE1       13.9410   18.4460   35.5220 N.ar  474  TRP474     -0.2442
    110  CE2       13.9170   18.5720   34.1550 C.ar  474  TRP474      0.0810
    111  CE3       13.6570   17.1330   32.2250 C.ar  474  TRP474      0.0012
    112  CZ2       14.0250   19.7100   33.3470 C.ar  474  TRP474      0.0191
    113  CZ3       13.7420   18.2630   31.4270 C.ar  474  TRP474      0.0001
    114  CH2       13.9710   19.5240   31.9820 C.ar  474  TRP474      0.0015
    115  N         10.7560   14.1530   33.4860 N.am  475  ALA475     -0.1980
    116  CA         9.5420   14.4940   32.7460 C.3   475  ALA475      0.1597
    117  C          8.2520   14.1800   33.5260 C.2   475  ALA475      0.2287
    118  O          7.2870   14.9320   33.4100 O.2   475  ALA475     -0.2864
    119  CB         9.5300   13.8060   31.3920 C.3   475  ALA475      0.0319
@<TRIPOS>BOND
     1     9    10    1
     2    10    13    1
     3    10    11    1
     4    15    14   ar
     5    15    17   ar
     6    13    14    1
     7    11    12    2
     8    14    16   ar
     9    50    48    1
    10    17    18   ar
    11    23    24    1
    12    48    47    1
    13    16    18   ar
    14    16    19   ar
    15    18    20   ar
    16    30    29    1
    17    24    27    1
    18    24    25    1
    19    27    28    1
    20    19    21   ar
    21    20    22   ar
    22    47    49    1
    23    47    44    1
    24    43    44    1
    25    25    26    2
    26    29    28    1
    27    21    22   ar
    28    44    45    1
    29    45    46    2
    30    77    78    1
    31    77    76    1
    32     8     7    1
    33    67    66    2
    34    31    32    1
    35    76    75    1
    36     7     6    1
    37    40    38   ar
    38    40    41   ar
    39    38    36   ar
    40    66    65    1
    41    32    35    1
    42    32    33    1
    43    75    72    1
    44    86    84   am
    45    42    41    1
    46    41    39   ar
    47     6     5    1
    48    35    36    1
    49    36    37   ar
    50    65    68    1
    51    65    64    1
    52    33    34    2
    53    68    69    1
    54    72    71    1
    55    72    73    1
    56     5     2    1
    57    63    61   am
    58    51    52    1
    59    39    37   ar
    60    84    83    1
    61    84    85    2
    62    60    61    1
    63    60    57    1
    64     2     1    1
    65     2     3    1
    66    52    53    1
    67    52    55    1
    68    83    80    1
    69    64    70    1
    70    56    53   am
    71    56    57    1
    72    61    62    2
    73    69    70    1
    74    53    54    2
    75    73    74    2
    76     4     3    2
    77    57    58    1
    78    80    81    1
    79    80    79    1
    80   119   116    1
    81   113   114   ar
    82   113   111   ar
    83    93    92   ar
    84    93    95   ar
    85    81    87   am
    86    81    82    2
    87    87    88    1
    88    59    58    2
    89    91    88    1
    90    91    92    1
    91   114   112   ar
    92    88    89    1
    93   111   108   ar
    94    92    94   ar
    95    95    96   ar
    96   116   115    1
    97   116   117    1
    98   112   110   ar
    99   118   117    2
   100    96    94   ar
   101    96    98   ar
   102    94    97   ar
   103   115   103   am
   104    89    90    2
   105   108   110   ar
   106   108   106   ar
   107   110   109   ar
   108    98   100   ar
   109    97    99   ar
   110   105   106    1
   111   105   102    1
   112   103   104    2
   113   103   102    1
   114   106   107   ar
   115   101   102    1
   116   100    99   ar
   117   109   107   ar
