@<TRIPOS>MOLECULE
tmp/5ai1A00.pdb
 144 135 0 0 0
SMALL
GASTEIGER

@<TRIPOS>ATOM
      1  N          2.3030   14.5160    5.2600 N.3    15  TYR15      -0.1241
      2  CA         2.8480   14.6760    3.9240 C.3    15  TYR15       0.1605
      3  C          1.7240   14.6490    2.8790 C.2    15  TYR15       0.2264
      4  O          1.6660   15.5020    1.9840 O.2    15  TYR15      -0.2867
      5  CB         3.8720   13.5800    3.6560 C.3    15  TYR15       0.0534
      6  CG         4.4000   13.5420    2.2640 C.ar   15  TYR15      -0.0201
      7  CD1        5.4560   14.3600    1.8820 C.ar   15  TYR15      -0.0009
      8  CD2        3.8640   12.6650    1.3220 C.ar   15  TYR15      -0.0009
      9  CE1        5.9500   14.3190    0.5880 C.ar   15  TYR15       0.0417
     10  CE2        4.3480   12.6160    0.0360 C.ar   15  TYR15       0.0417
     11  CZ         5.3990   13.4500   -0.3220 C.ar   15  TYR15       0.1957
     12  OH         5.8980   13.4210   -1.6030 O.3    15  TYR15      -0.2866
     13  N          0.4030   17.5550    0.1660 N.3    19  VAL19      -0.1245
     14  CA         0.4020   17.3410   -1.2800 C.3    19  VAL19       0.1561
     15  C         -0.9670   17.6560   -1.8300 C.2    19  VAL19       0.2260
     16  O         -1.0950   18.3310   -2.8510 O.2    19  VAL19      -0.2867
     17  CB         0.7820   15.8980   -1.6470 C.3    19  VAL19       0.0252
     18  CG1        0.3790   15.5830   -3.0880 C.3    19  VAL19       0.0019
     19  CG2        2.2690   15.6850   -1.4450 C.3    19  VAL19       0.0019
     20  N         11.3980    8.9810   -7.8980 N.3    39  ASN39      -0.1240
     21  CA         9.9960    9.0270   -8.2720 C.3    39  ASN39       0.1653
     22  C          9.8520    9.1110   -9.7880 C.2    39  ASN39       0.2266
     23  O         10.0940   10.1620  -10.3740 O.2    39  ASN39      -0.2867
     24  CB         9.3130   10.2150   -7.5940 C.3    39  ASN39       0.1155
     25  CG         7.7980   10.1630   -7.7010 C.2    39  ASN39       0.2627
     26  OD1        7.2530    9.5720   -8.6290 O.2    39  ASN39      -0.2716
     27  ND2        7.1120   10.8010   -6.7560 N.am   39  ASN39      -0.0877
     28  N         10.6140   19.8800   -8.4040 N.3    55  PHE55      -0.1227
     29  CA         9.8280   18.7000   -8.7610 C.3    55  PHE55       0.1736
     30  C          8.3710   18.9250   -8.3870 C.2    55  PHE55       0.2595
     31  O          7.4760   18.7670   -9.2120 O.2    55  PHE55      -0.2718
     32  CB        10.3680   17.4450   -8.0720 C.3    55  PHE55       0.0547
     33  CG         9.4640   16.2560   -8.1920 C.ar   55  PHE55      -0.0202
     34  CD1        9.4470   15.4940   -9.3540 C.ar   55  PHE55      -0.0042
     35  CD2        8.6270   15.8970   -7.1470 C.ar   55  PHE55      -0.0042
     36  CE1        8.6120   14.3890   -9.4660 C.ar   55  PHE55      -0.0003
     37  CE2        7.7930   14.7950   -7.2540 C.ar   55  PHE55      -0.0003
     38  CZ         7.7850   14.0450   -8.4170 C.ar   55  PHE55      -0.0000
     39  N          8.1390   19.3290   -7.1440 N.am   56  PHE56      -0.1976
     40  CA         6.7730   19.5330   -6.6750 C.3    56  PHE56       0.1639
     41  C          6.1070   20.6960   -7.3660 C.2    56  PHE56       0.2290
     42  O          4.8850   20.7270   -7.4830 O.2    56  PHE56      -0.2864
     43  CB         6.7500   19.7360   -5.1670 C.3    56  PHE56       0.0560
     44  CG         6.9190   18.4610   -4.4120 C.ar   56  PHE56      -0.0200
     45  CD1        5.8940   17.5350   -4.3720 C.ar   56  PHE56      -0.0042
     46  CD2        8.1090   18.1690   -3.7750 C.ar   56  PHE56      -0.0042
     47  CE1        6.0360   16.3600   -3.6870 C.ar   56  PHE56      -0.0003
     48  CE2        8.2640   16.9830   -3.0970 C.ar   56  PHE56      -0.0003
     49  CZ         7.2220   16.0720   -3.0530 C.ar   56  PHE56      -0.0000
     50  N          5.0320   19.4570  -10.6780 N.3    59  GLY59      -0.1210
     51  CA         4.1170   18.3720  -10.3990 C.3    59  GLY59       0.1956
     52  C          2.7350   18.8660  -10.0080 C.2    59  GLY59       0.2611
     53  O          1.7390   18.5270  -10.6490 O.2    59  GLY59      -0.2717
     54  N          2.6830   19.7110   -8.9830 N.am   60  LEU60      -0.1979
     55  CA         1.4140   20.1160   -8.3810 C.3    60  LEU60       0.1596
     56  C          0.8450   21.4330   -8.8910 C.2    60  LEU60       0.2287
     57  O         -0.3690   21.6430   -8.8510 O.2    60  LEU60      -0.2864
     58  CB         1.5660   20.2170   -6.8650 C.3    60  LEU60       0.0297
     59  CG         1.5920   18.9270   -6.0500 C.3    60  LEU60       0.0022
     60  CD1        2.8840   18.1770   -6.2530 C.3    60  LEU60       0.0001
     61  CD2        1.4050   19.2640   -4.5930 C.3    60  LEU60       0.0001
     62  N         -5.1800   19.0750   -8.9470 N.3    63  VAL63      -0.1245
     63  CA        -4.3390   17.9690   -8.4850 C.3    63  VAL63       0.1561
     64  C         -4.6090   17.5450   -7.0340 C.2    63  VAL63       0.2260
     65  O         -4.4350   18.3370   -6.1100 O.2    63  VAL63      -0.2867
     66  CB        -2.8590   18.3260   -8.6110 C.3    63  VAL63       0.0252
     67  CG1       -2.0040   17.2360   -7.9930 C.3    63  VAL63       0.0019
     68  CG2       -2.4940   18.5520  -10.0750 C.3    63  VAL63       0.0019
     69  N         -1.4150    5.3790   -1.6160 N.3    83  PHE83      -0.1241
     70  CA        -2.3420    6.4520   -1.8690 C.3    83  PHE83       0.1605
     71  C         -2.6380    6.5250   -3.3310 C.2    83  PHE83       0.2264
     72  O         -2.0650    5.7790   -4.1300 O.2    83  PHE83      -0.2867
     73  CB        -1.8080    7.8000   -1.3270 C.3    83  PHE83       0.0534
     74  CG        -0.4840    8.2260   -1.9050 C.ar   83  PHE83      -0.0203
     75  CD1        0.7010    7.6540   -1.4650 C.ar   83  PHE83      -0.0042
     76  CD2       -0.4170    9.2340   -2.8460 C.ar   83  PHE83      -0.0042
     77  CE1        1.9340    8.0530   -1.9800 C.ar   83  PHE83      -0.0003
     78  CE2        0.8090    9.6420   -3.3670 C.ar   83  PHE83      -0.0003
     79  CZ         1.9850    9.0440   -2.9260 C.ar   83  PHE83      -0.0000
     80  N         -3.2720    9.4250   -6.4640 N.3    85  VAL85      -0.1245
     81  CA        -3.1780   10.8020   -6.9180 C.3    85  VAL85       0.1561
     82  C         -4.1710   10.9940   -8.0410 C.2    85  VAL85       0.2260
     83  O         -4.2990   10.1250   -8.8980 O.2    85  VAL85      -0.2867
     84  CB        -1.7770   11.1370   -7.4140 C.3    85  VAL85       0.0252
     85  CG1       -1.7300   12.5650   -7.8970 C.3    85  VAL85       0.0019
     86  CG2       -0.7550   10.8960   -6.3130 C.3    85  VAL85       0.0019
     87  N         -5.7760   13.9530  -11.0580 N.3    87  MET87      -0.1245
     88  CA        -5.2050   15.0500  -11.8310 C.3    87  MET87       0.1570
     89  C         -5.8280   15.2460  -13.2050 C.2    87  MET87       0.2261
     90  O         -6.8260   14.6110  -13.5450 O.2    87  MET87      -0.2867
     91  CB        -3.7220   14.7940  -12.0150 C.3    87  MET87       0.0387
     92  CG        -3.4950   13.4640  -12.7120 C.3    87  MET87       0.0595
     93  SD        -2.0250   12.6000  -12.1680 S.3    87  MET87      -0.1393
     94  CE        -0.8090   13.8330  -12.6010 C.3    87  MET87       0.0692
     95  N         -4.0300    7.8390  -10.4270 N.3    92  LEU92      -0.1245
     96  CA        -2.8010    7.0930  -10.3510 C.3    92  LEU92       0.1561
     97  C         -2.6160    6.4690   -8.9770 C.2    92  LEU92       0.2260
     98  O         -2.5890    7.1910   -7.9860 O.2    92  LEU92      -0.2867
     99  CB        -1.6310    8.0070  -10.6660 C.3    92  LEU92       0.0270
    100  CG        -0.2850    7.3130  -10.5060 C.3    92  LEU92       0.0019
    101  CD1       -0.0860    6.2500  -11.6100 C.3    92  LEU92       0.0001
    102  CD2        0.8380    8.3290  -10.5020 C.3    92  LEU92       0.0001
    103  N         -0.4760    4.7660   -6.0800 N.3    94  VAL94      -0.1245
    104  CA         0.9140    4.9500   -5.6770 C.3    94  VAL94       0.1561
    105  C          1.1700    4.3960   -4.2890 C.2    94  VAL94       0.2260
    106  O          0.2910    4.4390   -3.4200 O.2    94  VAL94      -0.2867
    107  CB         1.3170    6.4590   -5.6500 C.3    94  VAL94       0.0252
    108  CG1        2.8270    6.6060   -5.4770 C.3    94  VAL94       0.0019
    109  CG2        0.8530    7.1970   -6.9190 C.3    94  VAL94       0.0019
    110  N          4.3230    5.1070   -1.5780 N.3    96  ASP96      -0.1239
    111  CA         5.5490    5.7920   -1.1540 C.3    96  ASP96       0.1674
    112  C          6.2540    5.0550   -0.0070 C.2    96  ASP96       0.2266
    113  O          5.6040    4.6580    0.9530 O.2    96  ASP96      -0.2867
    114  CB         5.2350    7.2130   -0.6780 C.3    96  ASP96       0.1410
    115  CG         5.4430    8.2560   -1.7490 C.2    96  ASP96       0.3668
    116  OD1        5.1070    7.9980   -2.9200 O.co2  96  ASP96      -0.2456
    117  OD2        5.9490    9.3450   -1.4090 O.co2  96  ASP96      -0.2456
    118  N         13.0670    9.1870   -0.0460 N.3   109  MET109     -0.1245
    119  CA        11.7200    8.8590   -0.4660 C.3   109  MET109      0.1570
    120  C         11.8000    8.1200   -1.8010 C.2   109  MET109      0.2261
    121  O         12.4520    8.5790   -2.7420 O.2   109  MET109     -0.2867
    122  CB        10.8690   10.1250   -0.5740 C.3   109  MET109      0.0387
    123  CG         9.3830    9.8780   -0.7050 C.3   109  MET109      0.0595
    124  SD         8.7980   10.0320   -2.4010 S.3   109  MET109     -0.1393
    125  CE         8.6100   11.8040   -2.5380 C.3   109  MET109      0.0692
    126  N          9.1000    6.3810   -4.5400 N.3   111  ALA111     -0.1245
    127  CA         7.7050    6.1620   -4.9210 C.3   111  ALA111      0.1562
    128  C          7.5930    5.0290   -5.9370 C.2   111  ALA111      0.2260
    129  O          8.2780    5.0360   -6.9620 O.2   111  ALA111     -0.2867
    130  CB         7.1030    7.4340   -5.4850 C.3   111  ALA111      0.0290
    131  N          5.3640    3.0930   -8.6590 N.3   113  TRP113     -0.1241
    132  CA         4.2320    3.1620   -9.5620 C.3   113  TRP113      0.1605
    133  C          4.7350    3.0410  -10.9790 C.2   113  TRP113      0.2264
    134  O          5.9220    3.1890  -11.2410 O.2   113  TRP113     -0.2867
    135  CB         3.4430    4.4650   -9.4100 C.3   113  TRP113      0.0550
    136  CG         4.2300    5.6780   -9.7320 C.ar  113  TRP113      0.0003
    137  CD1        5.0320    6.3900   -8.8790 C.ar  113  TRP113      0.0946
    138  CD2        4.3020    6.3410  -11.0020 C.ar  113  TRP113      0.0152
    139  NE1        5.6010    7.4480   -9.5470 N.ar  113  TRP113     -0.2442
    140  CE2        5.1650    7.4440  -10.8470 C.ar  113  TRP113      0.0810
    141  CE3        3.7140    6.1130  -12.2470 C.ar  113  TRP113      0.0012
    142  CZ2        5.4650    8.3110  -11.8960 C.ar  113  TRP113      0.0191
    143  CZ3        4.0170    6.9830  -13.3010 C.ar  113  TRP113      0.0001
    144  CH2        4.8790    8.0650  -13.1120 C.ar  113  TRP113      0.0015
@<TRIPOS>BOND
     1    90    89    2
     2   143   144   ar
     3   143   141   ar
     4    89    88    1
     5   144   142   ar
     6    92    93    1
     7    92    91    1
     8    94    93    1
     9   141   138   ar
    10    91    88    1
    11   142   140   ar
    12    88    87    1
    13   101   100    1
    14   134   133    2
    15   138   140   ar
    16   138   136   ar
    17   133   132    1
    18   140   139   ar
    19    50    51    1
    20    99   100    1
    21    99    96    1
    22    53    52    2
    23   100   102    1
    24    95    96    1
    25    51    52    1
    26    23    22    2
    27    96    97    1
    28    68    66    1
    29    52    54   am
    30    22    21    1
    31   136   135    1
    32   136   137   ar
    33   132   135    1
    34   132   131    1
    35   139   137   ar
    36    36    34   ar
    37    36    38   ar
    38    34    33   ar
    39    31    30    2
    40    54    55    1
    41    97    98    2
    42    62    63    1
    43    83    82    2
    44    56    57    2
    45    56    55    1
    46    29    28    1
    47    29    30    1
    48    29    32    1
    49    26    25    2
    50    66    63    1
    51    66    67    1
    52    63    64    1
    53    38    37   ar
    54    30    39   am
    55    55    58    1
    56    21    20    1
    57    21    24    1
    58    33    32    1
    59    33    35   ar
    60    82    81    1
    61    85    84    1
    62    25    24    1
    63    25    27   am
    64    42    41    2
    65    84    81    1
    66    84    86    1
    67    41    40    1
    68    37    35   ar
    69    39    40    1
    70    64    65    2
    71   129   128    2
    72   109   107    1
    73    81    80    1
    74    58    59    1
    75    40    43    1
    76    60    59    1
    77   103   104    1
    78    59    61    1
    79   128   127    1
    80   104   107    1
    81   104   105    1
    82   107   108    1
    83   130   127    1
    84    43    44    1
    85   127   126    1
    86    44    45   ar
    87    44    46   ar
    88    45    47   ar
    89   105   106    2
    90    72    71    2
    91    46    48   ar
    92    47    49   ar
    93    78    79   ar
    94    78    76   ar
    95    71    70    1
    96    48    49   ar
    97    18    17    1
    98    79    77   ar
    99   116   115   ar
   100    16    15    2
   101    76    74   ar
   102   121   120    2
   103   125   124    1
   104   124   123    1
   105    77    75   ar
   106    74    75   ar
   107    74    73    1
   108    70    69    1
   109    70    73    1
   110    15    14    1
   111   120   119    1
   112   115   117   ar
   113   115   114    1
   114    17    19    1
   115    17    14    1
   116    12    11    1
   117   110   111    1
   118    14    13    1
   119   111   114    1
   120   111   112    1
   121   123   122    1
   122   122   119    1
   123   119   118    1
   124    11    10   ar
   125    11     9   ar
   126   112   113    2
   127    10     8   ar
   128     9     7   ar
   129     8     6   ar
   130     7     6   ar
   131     4     3    2
   132     6     5    1
   133     3     2    1
   134     5     2    1
   135     2     1    1
