@<TRIPOS>MOLECULE
tmp/5ai4A00.pdb
 122 118 0 0 0
SMALL
GASTEIGER

@<TRIPOS>ATOM
      1  N         14.3180   17.8330   15.9570 N.3   334  ASP334     -0.1225
      2  CA        14.7770   16.5200   16.4080 C.3   334  ASP334      0.1805
      3  C         15.0470   16.5720   17.9130 C.2   334  ASP334      0.2597
      4  O         14.1450   16.9630   18.6510 O.2   334  ASP334     -0.2718
      5  CB        15.9860   16.0720   15.5410 C.3   334  ASP334      0.1424
      6  CG        16.5190   14.6990   15.8670 C.2   334  ASP334      0.3668
      7  OD1       15.8530   13.7150   15.5210 O.co2 334  ASP334     -0.2456
      8  OD2       17.5520   14.6160   16.5630 O.co2 334  ASP334     -0.2456
      9  N         16.2630   16.2110   18.3870 N.am  335  TRP335     -0.1976
     10  CA        16.6140   16.3090   19.8060 C.3   335  TRP335      0.1640
     11  C         16.4870   17.7290   20.3470 C.2   335  TRP335      0.2290
     12  O         16.1410   17.8910   21.5150 O.2   335  TRP335     -0.2864
     13  CB        18.0190   15.7620   20.0860 C.3   335  TRP335      0.0576
     14  CG        17.9920   14.3390   20.5590 C.ar  335  TRP335      0.0006
     15  CD1       18.4900   13.2550   19.9050 C.ar  335  TRP335      0.0946
     16  CD2       17.3180   13.8340   21.7170 C.ar  335  TRP335      0.0152
     17  NE1       18.2480   12.1120   20.6330 N.ar  335  TRP335     -0.2442
     18  CE2       17.4840   12.4330   21.7220 C.ar  335  TRP335      0.0810
     19  CE3       16.6170   14.4330   22.7730 C.ar  335  TRP335      0.0012
     20  CZ2       17.0040   11.6230   22.7510 C.ar  335  TRP335      0.0191
     21  CZ3       16.1080   13.6190   23.7790 C.ar  335  TRP335      0.0001
     22  CH2       16.3520   12.2370   23.7850 C.ar  335  TRP335      0.0015
     23  N         12.8760   18.2720   21.1760 N.3   338  MET338     -0.1245
     24  CA        12.5840   17.6570   22.4680 C.3   338  MET338      0.1570
     25  C         12.9880   18.6160   23.5890 C.2   338  MET338      0.2261
     26  O         12.2010   18.8320   24.5150 O.2   338  MET338     -0.2867
     27  CB        13.3000   16.3060   22.6290 C.3   338  MET338      0.0387
     28  CG        12.8650   15.5360   23.8650 C.3   338  MET338      0.0595
     29  SD        11.2850   14.6730   23.6330 S.3   338  MET338     -0.1393
     30  CE        10.1250   15.9330   24.0890 C.3   338  MET338      0.0692
     31  N          9.6690   16.9240   15.8940 N.3   359  THR359     -0.1218
     32  CA         9.5680   16.3780   17.2410 C.3   359  THR359      0.1862
     33  C          8.2540   16.7250   17.9140 C.2   359  THR359      0.2287
     34  O          7.9930   17.8970   18.1870 O.2   359  THR359     -0.2866
     35  CB        10.7800   16.7460   18.0960 C.3   359  THR359      0.1770
     36  OG1       11.9360   16.4560   17.3320 O.3   359  THR359     -0.2211
     37  CG2       10.8170   15.9740   19.4390 C.3   359  THR359      0.0375
     38  N         10.3740    2.5850   23.6650 N.3   374  ILE374     -0.1245
     39  CA        11.2450    2.6210   22.4800 C.3   374  ILE374      0.1561
     40  C         11.1620    1.2950   21.7290 C.2   374  ILE374      0.2260
     41  O         11.0390    1.2900   20.5000 O.2   374  ILE374     -0.2867
     42  CB        12.7220    2.9760   22.8510 C.3   374  ILE374      0.0252
     43  CG1       12.8510    4.3580   23.5600 C.3   374  ILE374      0.0019
     44  CG2       13.6900    2.8290   21.6540 C.3   374  ILE374      0.0019
     45  CD1       12.8070    5.6050   22.6940 C.3   374  ILE374      0.0001
     46  N         12.3020    2.9520   15.8740 N.3   380  PHE380     -0.1241
     47  CA        13.1790    3.4730   16.9300 C.3   380  PHE380      0.1605
     48  C         14.2680    2.4860   17.3080 C.2   380  PHE380      0.2264
     49  O         14.9550    2.6950   18.3060 O.2   380  PHE380     -0.2867
     50  CB        12.3660    3.9020   18.1660 C.3   380  PHE380      0.0534
     51  CG        11.6570    5.2190   17.9520 C.ar  380  PHE380     -0.0203
     52  CD1       10.4900    5.2850   17.2020 C.ar  380  PHE380     -0.0042
     53  CD2       12.1830    6.3970   18.4590 C.ar  380  PHE380     -0.0042
     54  CE1        9.8590    6.5030   16.9720 C.ar  380  PHE380     -0.0003
     55  CE2       11.5440    7.6140   18.2410 C.ar  380  PHE380     -0.0003
     56  CZ        10.3820    7.6580   17.5020 C.ar  380  PHE380     -0.0000
     57  N         17.1820    1.9720   15.9060 N.3   382  TYR382     -0.1227
     58  CA        18.4810    2.6530   15.8850 C.3   382  TYR382      0.1736
     59  C         18.8270    3.2080   17.2650 C.2   382  TYR382      0.2595
     60  O         19.9970    3.2180   17.6330 O.2   382  TYR382     -0.2718
     61  CB        18.5410    3.7420   14.7920 C.3   382  TYR382      0.0548
     62  CG        17.6890    4.9610   15.0840 C.ar  382  TYR382     -0.0200
     63  CD1       16.3210    4.9570   14.8300 C.ar  382  TYR382     -0.0009
     64  CD2       18.2540    6.1240   15.5970 C.ar  382  TYR382     -0.0009
     65  CE1       15.5300    6.0680   15.1130 C.ar  382  TYR382      0.0417
     66  CE2       17.4770    7.2520   15.8540 C.ar  382  TYR382      0.0417
     67  CZ        16.1140    7.2140   15.6230 C.ar  382  TYR382      0.1957
     68  OH        15.3460    8.3150   15.8890 O.3   382  TYR382     -0.2866
     69  N         17.8010    3.6320   18.0440 N.am  383  GLN383     -0.1979
     70  CA        18.0170    4.1660   19.3900 C.3   383  GLN383      0.1601
     71  C         18.5440    3.1070   20.3490 C.2   383  GLN383      0.2287
     72  O         19.3300    3.4430   21.2280 O.2   383  GLN383     -0.2864
     73  CB        16.7630    4.8610   19.9320 C.3   383  GLN383      0.0394
     74  CG        16.3770    6.0090   19.0230 C.3   383  GLN383      0.0908
     75  CD        15.4260    7.0120   19.5900 C.2   383  GLN383      0.2608
     76  OE1       14.8150    7.7790   18.8500 O.2   383  GLN383     -0.2717
     77  NE2       15.3700    7.1110   20.8880 N.am  383  GLN383     -0.0878
     78  N         20.8990   10.2860   23.7320 N.3   465  TYR465     -0.1241
     79  CA        20.0150    9.1030   23.7120 C.3   465  TYR465      0.1605
     80  C         20.2330    8.1640   24.9090 C.2   465  TYR465      0.2264
     81  O         19.5030    7.1840   25.0620 O.2   465  TYR465     -0.2867
     82  CB        20.3150    8.2670   22.4530 C.3   465  TYR465      0.0534
     83  CG        19.9730    8.9030   21.1300 C.ar  465  TYR465     -0.0201
     84  CD1       20.9190    9.6440   20.4320 C.ar  465  TYR465     -0.0009
     85  CD2       18.7450    8.6810   20.5230 C.ar  465  TYR465     -0.0009
     86  CE1       20.6390   10.1780   19.1830 C.ar  465  TYR465      0.0417
     87  CE2       18.4650    9.1880   19.2550 C.ar  465  TYR465      0.0417
     88  CZ        19.4160    9.9390   18.5960 C.ar  465  TYR465      0.1957
     89  OH        19.1720   10.4740   17.3720 O.3   465  TYR465     -0.2866
     90  N         17.5240    7.9160   28.8100 N.3   468  MET468     -0.1245
     91  CA        16.0980    7.5760   28.7510 C.3   468  MET468      0.1570
     92  C         15.4000    7.5110   30.1130 C.2   468  MET468      0.2261
     93  O         14.3610    8.1380   30.2700 O.2   468  MET468     -0.2867
     94  CB        15.8160    6.3230   27.8970 C.3   468  MET468      0.0387
     95  CG        16.2170    6.4670   26.4110 C.3   468  MET468      0.0595
     96  SD        15.6330    7.9910   25.5660 S.3   468  MET468     -0.1393
     97  CE        16.3320    7.7650   23.9650 C.3   468  MET468      0.0692
     98  N         10.4220    8.4450   10.8960 N.3   497  VAL497     -0.1231
     99  CA        10.7070    8.1270   12.3010 C.3   497  VAL497      0.1692
    100  C          9.8030    9.0180   13.1750 C.2   497  VAL497      0.2591
    101  O          9.0280    8.5120   13.9860 O.2   497  VAL497     -0.2718
    102  CB        12.2250    8.2710   12.6260 C.3   497  VAL497      0.0266
    103  CG1       12.4850    8.2550   14.1310 C.3   497  VAL497      0.0020
    104  CG2       13.0440    7.1870   11.9240 C.3   497  VAL497      0.0020
    105  N          9.8860   10.3430   12.9840 N.am  498  LEU498     -0.1980
    106  CA         9.0500   11.3040   13.7150 C.3   498  LEU498      0.1596
    107  C          7.8860   11.6320   12.8040 C.2   498  LEU498      0.2287
    108  O          7.8600   12.6750   12.1440 O.2   498  LEU498     -0.2864
    109  CB         9.8660   12.5490   14.1020 C.3   498  LEU498      0.0297
    110  CG        11.1560   12.2820   14.8970 C.3   498  LEU498      0.0022
    111  CD1       11.9850   13.5480   15.0220 C.3   498  LEU498      0.0001
    112  CD2       10.8560   11.7180   16.2540 C.3   498  LEU498      0.0001
    113  N         13.2520   13.9330    7.1120 N.3   523  HIS523     -0.1241
    114  CA        13.7320   14.2510    8.4590 C.3   523  HIS523      0.1621
    115  C         14.5040   15.5610    8.5670 C.2   523  HIS523      0.2264
    116  O         14.3710   16.2500    9.5730 O.2   523  HIS523     -0.2867
    117  CB        14.5930   13.1110    9.0240 C.3   523  HIS523      0.0745
    118  CG        15.0560   13.3780   10.4210 C.ar  523  HIS523      0.0817
    119  ND1       14.1710   13.3300   11.4910 N.ar  523  HIS523     -0.2268
    120  CD2       16.2610   13.8150   10.8670 C.ar  523  HIS523      0.1154
    121  CE1       14.8710   13.6960   12.5450 C.ar  523  HIS523      0.1986
    122  NE2       16.1330   13.9780   12.2300 N.ar  523  HIS523     -0.2212
@<TRIPOS>BOND
     1   113   114    1
     2   114   115    1
     3   114   117    1
     4   115   116    2
     5   117   118    1
     6   118   120   ar
     7   118   119   ar
     8   120   122   ar
     9    98    99    1
    10   119   121   ar
    11   104   102    1
    12   108   107    2
    13   122   121   ar
    14    99   102    1
    15    99   100    1
    16   102   103    1
    17   107   106    1
    18   105   100   am
    19   105   106    1
    20   100   101    2
    21   106   109    1
    22   109   110    1
    23    61    62    1
    24    61    58    1
    25    63    62   ar
    26    63    65   ar
    27   110   111    1
    28   110   112    1
    29    62    64   ar
    30    65    67   ar
    31     7     6   ar
    32     5     6    1
    33     5     2    1
    34    64    66   ar
    35    67    66   ar
    36    67    68    1
    37     6     8   ar
    38    46    47    1
    39    58    57    1
    40    58    59    1
    41    31    32    1
    42     1     2    1
    43     2     3    1
    44    47    48    1
    45    47    50    1
    46    54    52   ar
    47    54    56   ar
    48    52    51   ar
    49    32    33    1
    50    32    35    1
    51    59    60    2
    52    59    69   am
    53    48    49    2
    54    36    35    1
    55    89    88    1
    56    56    55   ar
    57     3     9   am
    58     3     4    2
    59    33    34    2
    60    51    50    1
    61    51    53   ar
    62    69    70    1
    63    35    37    1
    64    55    53   ar
    65     9    10    1
    66    88    86   ar
    67    88    87   ar
    68    76    75    2
    69    74    75    1
    70    74    73    1
    71    86    84   ar
    72    87    85   ar
    73    70    73    1
    74    70    71    1
    75    75    77   am
    76    10    13    1
    77    10    11    1
    78    15    14   ar
    79    15    17   ar
    80    13    14    1
    81    11    12    2
    82    71    72    2
    83    84    83   ar
    84    41    40    2
    85    85    83   ar
    86    14    16   ar
    87    17    18   ar
    88    83    82    1
    89    23    24    1
    90    44    42    1
    91    16    18   ar
    92    16    19   ar
    93    18    20   ar
    94    40    39    1
    95    82    79    1
    96    24    27    1
    97    24    25    1
    98    39    42    1
    99    39    38    1
   100    27    28    1
   101    45    43    1
   102    20    22   ar
   103    19    21   ar
   104    42    43    1
   105    25    26    2
   106    29    28    1
   107    29    30    1
   108    79    78    1
   109    79    80    1
   110    21    22   ar
   111    97    96    1
   112    80    81    2
   113    96    95    1
   114    95    94    1
   115    94    91    1
   116    91    90    1
   117    91    92    1
   118    92    93    2
