@<TRIPOS>MOLECULE
tmp/5ai4A01.pdb
 147 144 0 0 0
SMALL
GASTEIGER

@<TRIPOS>ATOM
      1  N         20.1840   15.6520   16.1210 N.3   266  PHE266     -0.1241
      2  CA        21.2680   14.6870   16.0070 C.3   266  PHE266      0.1605
      3  C         21.4400   14.1530   14.5850 C.2   266  PHE266      0.2264
      4  O         20.4570   13.6800   14.0030 O.2   266  PHE266     -0.2867
      5  CB        21.0630   13.4980   16.9870 C.3   266  PHE266      0.0534
      6  CG        22.0820   12.3740   16.8220 C.ar  266  PHE266     -0.0203
      7  CD1       21.8980   11.3770   15.8620 C.ar  266  PHE266     -0.0042
      8  CD2       23.2080   12.3040   17.6410 C.ar  266  PHE266     -0.0042
      9  CE1       22.8440   10.3560   15.6930 C.ar  266  PHE266     -0.0003
     10  CE2       24.1370   11.2660   17.4930 C.ar  266  PHE266     -0.0003
     11  CZ        23.9600   10.3100   16.5090 C.ar  266  PHE266     -0.0000
     12  N         14.3180   17.8330   15.9570 N.3   334  ASP334     -0.1225
     13  CA        14.7770   16.5200   16.4080 C.3   334  ASP334      0.1805
     14  C         15.0470   16.5720   17.9130 C.2   334  ASP334      0.2597
     15  O         14.1450   16.9630   18.6510 O.2   334  ASP334     -0.2718
     16  CB        15.9860   16.0720   15.5410 C.3   334  ASP334      0.1424
     17  CG        16.5190   14.6990   15.8670 C.2   334  ASP334      0.3668
     18  OD1       15.8530   13.7150   15.5210 O.co2 334  ASP334     -0.2456
     19  OD2       17.5520   14.6160   16.5630 O.co2 334  ASP334     -0.2456
     20  N         16.2630   16.2110   18.3870 N.am  335  TRP335     -0.1976
     21  CA        16.6140   16.3090   19.8060 C.3   335  TRP335      0.1640
     22  C         16.4870   17.7290   20.3470 C.2   335  TRP335      0.2290
     23  O         16.1410   17.8910   21.5150 O.2   335  TRP335     -0.2864
     24  CB        18.0190   15.7620   20.0860 C.3   335  TRP335      0.0576
     25  CG        17.9920   14.3390   20.5590 C.ar  335  TRP335      0.0006
     26  CD1       18.4900   13.2550   19.9050 C.ar  335  TRP335      0.0946
     27  CD2       17.3180   13.8340   21.7170 C.ar  335  TRP335      0.0152
     28  NE1       18.2480   12.1120   20.6330 N.ar  335  TRP335     -0.2442
     29  CE2       17.4840   12.4330   21.7220 C.ar  335  TRP335      0.0810
     30  CE3       16.6170   14.4330   22.7730 C.ar  335  TRP335      0.0012
     31  CZ2       17.0040   11.6230   22.7510 C.ar  335  TRP335      0.0191
     32  CZ3       16.1080   13.6190   23.7790 C.ar  335  TRP335      0.0001
     33  CH2       16.3520   12.2370   23.7850 C.ar  335  TRP335      0.0015
     34  N         17.1820    1.9720   15.9060 N.3   382  TYR382     -0.1241
     35  CA        18.4810    2.6530   15.8850 C.3   382  TYR382      0.1605
     36  C         18.8270    3.2080   17.2650 C.2   382  TYR382      0.2264
     37  O         19.9970    3.2180   17.6330 O.2   382  TYR382     -0.2867
     38  CB        18.5410    3.7420   14.7920 C.3   382  TYR382      0.0534
     39  CG        17.6890    4.9610   15.0840 C.ar  382  TYR382     -0.0201
     40  CD1       16.3210    4.9570   14.8300 C.ar  382  TYR382     -0.0009
     41  CD2       18.2540    6.1240   15.5970 C.ar  382  TYR382     -0.0009
     42  CE1       15.5300    6.0680   15.1130 C.ar  382  TYR382      0.0417
     43  CE2       17.4770    7.2520   15.8540 C.ar  382  TYR382      0.0417
     44  CZ        16.1140    7.2140   15.6230 C.ar  382  TYR382      0.1957
     45  OH        15.3460    8.3150   15.8890 O.3   382  TYR382     -0.2866
     46  N         22.1830    2.6580   19.6240 N.3   386  PHE386     -0.1241
     47  CA        22.9300    3.7970   20.1880 C.3   386  PHE386      0.1605
     48  C         23.2210    3.6890   21.6730 C.2   386  PHE386      0.2264
     49  O         23.9360    4.5400   22.2000 O.2   386  PHE386     -0.2867
     50  CB        22.1290    5.0900   19.9630 C.3   386  PHE386      0.0534
     51  CG        22.1060    5.6180   18.5530 C.ar  386  PHE386     -0.0203
     52  CD1       22.7850    4.9560   17.5320 C.ar  386  PHE386     -0.0042
     53  CD2       21.4540    6.8080   18.2530 C.ar  386  PHE386     -0.0042
     54  CE1       22.7900    5.4560   16.2390 C.ar  386  PHE386     -0.0003
     55  CE2       21.4420    7.2990   16.9540 C.ar  386  PHE386     -0.0003
     56  CZ        22.1160    6.6280   15.9550 C.ar  386  PHE386     -0.0000
     57  N         23.5390    9.8940    5.9190 N.3   407  LEU407     -0.1245
     58  CA        22.4410   10.4060    6.7340 C.3   407  LEU407      0.1561
     59  C         21.5970   11.4740    6.0680 C.2   407  LEU407      0.2260
     60  O         20.3720   11.3830    6.0860 O.2   407  LEU407     -0.2867
     61  CB        22.9960   10.9600    8.0520 C.3   407  LEU407      0.0270
     62  CG        23.4760    9.9320    9.0660 C.3   407  LEU407      0.0019
     63  CD1       24.2140   10.6220   10.2200 C.3   407  LEU407      0.0001
     64  CD2       22.3400    9.0990    9.5860 C.3   407  LEU407      0.0001
     65  N         19.7030    4.2000    3.7890 N.3   416  LEU416     -0.1245
     66  CA        19.5680    3.8440    5.2060 C.3   416  LEU416      0.1561
     67  C         18.2150    3.3660    5.7400 C.2   416  LEU416      0.2260
     68  O         17.2480    4.1340    5.8210 O.2   416  LEU416     -0.2867
     69  CB        20.0930    4.9910    6.0660 C.3   416  LEU416      0.0270
     70  CG        21.3410    4.7040    6.8590 C.3   416  LEU416      0.0019
     71  CD1       22.4350    4.1470    5.9840 C.3   416  LEU416      0.0001
     72  CD2       21.8230    5.9480    7.5090 C.3   416  LEU416      0.0001
     73  N         17.1080    2.1260    9.1530 N.3   418  MET418     -0.1245
     74  CA        16.6030    2.6830   10.4360 C.3   418  MET418      0.1570
     75  C         15.9020    1.6600   11.3370 C.2   418  MET418      0.2261
     76  O         15.7860    1.8610   12.5520 O.2   418  MET418     -0.2867
     77  CB        15.7230    3.9390   10.2490 C.3   418  MET418      0.0387
     78  CG        16.2760    5.1760   10.8970 C.3   418  MET418      0.0595
     79  SD        17.9820    5.5280   10.4240 S.3   418  MET418     -0.1393
     80  CE        18.5510    6.2040   11.8960 C.3   418  MET418      0.0692
     81  N         24.4950    0.5720   11.3750 N.3   427  LEU427     -0.1245
     82  CA        23.7240    1.5730   10.6590 C.3   427  LEU427      0.1561
     83  C         24.0120    1.5750    9.1820 C.2   427  LEU427      0.2260
     84  O         23.1090    1.8430    8.3900 O.2   427  LEU427     -0.2867
     85  CB        24.0310    2.9760   11.2360 C.3   427  LEU427      0.0270
     86  CG        22.9430    3.6760   12.0790 C.3   427  LEU427      0.0019
     87  CD1       21.6810    3.9380   11.2730 C.3   427  LEU427      0.0001
     88  CD2       22.5690    2.8740   13.2800 C.3   427  LEU427      0.0001
     89  N         20.8990   10.2860   23.7320 N.3   465  TYR465     -0.1241
     90  CA        20.0150    9.1030   23.7120 C.3   465  TYR465      0.1605
     91  C         20.2330    8.1640   24.9090 C.2   465  TYR465      0.2264
     92  O         19.5030    7.1840   25.0620 O.2   465  TYR465     -0.2867
     93  CB        20.3150    8.2670   22.4530 C.3   465  TYR465      0.0534
     94  CG        19.9730    8.9030   21.1300 C.ar  465  TYR465     -0.0201
     95  CD1       20.9190    9.6440   20.4320 C.ar  465  TYR465     -0.0009
     96  CD2       18.7450    8.6810   20.5230 C.ar  465  TYR465     -0.0009
     97  CE1       20.6390   10.1780   19.1830 C.ar  465  TYR465      0.0417
     98  CE2       18.4650    9.1880   19.2550 C.ar  465  TYR465      0.0417
     99  CZ        19.4160    9.9390   18.5960 C.ar  465  TYR465      0.1957
    100  OH        19.1720   10.4740   17.3720 O.3   465  TYR465     -0.2866
    101  N          8.8730   12.2610    7.2110 N.3   495  ASP495     -0.1239
    102  CA         9.8080   11.8700    8.2590 C.3   495  ASP495      0.1674
    103  C          9.2310   10.5190    8.7000 C.2   495  ASP495      0.2266
    104  O          8.1540   10.4730    9.2790 O.2   495  ASP495     -0.2867
    105  CB         9.8700   12.8500    9.4540 C.3   495  ASP495      0.1410
    106  CG        10.9680   12.4990   10.4460 C.2   495  ASP495      0.3668
    107  OD1       11.2230   11.2890   10.6530 O.co2 495  ASP495     -0.2456
    108  OD2       11.5730   13.4300   11.0110 O.co2 495  ASP495     -0.2456
    109  N         10.4220    8.4450   10.8960 N.3   497  VAL497     -0.1231
    110  CA        10.7070    8.1270   12.3010 C.3   497  VAL497      0.1692
    111  C          9.8030    9.0180   13.1750 C.2   497  VAL497      0.2591
    112  O          9.0280    8.5120   13.9860 O.2   497  VAL497     -0.2718
    113  CB        12.2250    8.2710   12.6260 C.3   497  VAL497      0.0266
    114  CG1       12.4850    8.2550   14.1310 C.3   497  VAL497      0.0020
    115  CG2       13.0440    7.1870   11.9240 C.3   497  VAL497      0.0020
    116  N          9.8860   10.3430   12.9840 N.am  498  LEU498     -0.1980
    117  CA         9.0500   11.3040   13.7150 C.3   498  LEU498      0.1596
    118  C          7.8860   11.6320   12.8040 C.2   498  LEU498      0.2287
    119  O          7.8600   12.6750   12.1440 O.2   498  LEU498     -0.2864
    120  CB         9.8660   12.5490   14.1020 C.3   498  LEU498      0.0297
    121  CG        11.1560   12.2820   14.8970 C.3   498  LEU498      0.0022
    122  CD1       11.9850   13.5480   15.0220 C.3   498  LEU498      0.0001
    123  CD2       10.8560   11.7180   16.2540 C.3   498  LEU498      0.0001
    124  N         13.2520   13.9330    7.1120 N.3   523  HIS523     -0.1226
    125  CA        13.7320   14.2510    8.4590 C.3   523  HIS523      0.1752
    126  C         14.5040   15.5610    8.5670 C.2   523  HIS523      0.2596
    127  O         14.3710   16.2500    9.5730 O.2   523  HIS523     -0.2718
    128  CB        14.5930   13.1110    9.0240 C.3   523  HIS523      0.0759
    129  CG        15.0560   13.3780   10.4210 C.ar  523  HIS523      0.0818
    130  ND1       14.1710   13.3300   11.4910 N.ar  523  HIS523     -0.2268
    131  CD2       16.2610   13.8150   10.8670 C.ar  523  HIS523      0.1154
    132  CE1       14.8710   13.6960   12.5450 C.ar  523  HIS523      0.1986
    133  NE2       16.1330   13.9780   12.2300 N.ar  523  HIS523     -0.2212
    134  N         15.3490   15.8740    7.5690 N.am  524  TRP524     -0.1976
    135  CA        16.2390   17.0470    7.5740 C.3   524  TRP524      0.1640
    136  C         15.5020   18.2650    7.0750 C.2   524  TRP524      0.2290
    137  O         15.9080   18.8930    6.0890 O.2   524  TRP524     -0.2864
    138  CB        17.4900   16.7350    6.7550 C.3   524  TRP524      0.0576
    139  CG        17.9860   15.3520    7.0350 C.ar  524  TRP524      0.0006
    140  CD1       17.7460   14.2370    6.2890 C.ar  524  TRP524      0.0946
    141  CD2       18.6080   14.9030    8.2360 C.ar  524  TRP524      0.0152
    142  NE1       18.2590   13.1320    6.9120 N.ar  524  TRP524     -0.2442
    143  CE2       18.8210   13.5160    8.1000 C.ar  524  TRP524      0.0810
    144  CE3       19.1010   15.5560    9.3810 C.ar  524  TRP524      0.0012
    145  CZ2       19.5150   12.7730    9.0460 C.ar  524  TRP524      0.0191
    146  CZ3       19.7260   14.7970   10.3580 C.ar  524  TRP524      0.0001
    147  CH2       19.9290   13.4200   10.1800 C.ar  524  TRP524      0.0015
@<TRIPOS>BOND
     1    65    66    1
     2    66    67    1
     3    66    69    1
     4    67    68    2
     5    57    58    1
     6    71    70    1
     7    69    70    1
     8    59    60    2
     9    59    58    1
    10   137   136    2
    11   140   142   ar
    12   140   139   ar
    13    58    61    1
    14   138   139    1
    15   138   135    1
    16    70    72    1
    17   142   143   ar
    18   139   141   ar
    19   136   135    1
    20   124   125    1
    21   101   102    1
    22   134   135    1
    23   134   126   am
    24    61    62    1
    25   143   141   ar
    26   143   145   ar
    27   141   144   ar
    28   102   103    1
    29   102   105    1
    30    84    83    2
    31   125   126    1
    32   125   128    1
    33   126   127    2
    34   103   104    2
    35   128   129    1
    36   145   147   ar
    37    62    64    1
    38    62    63    1
    39    73    74    1
    40    83    82    1
    41   144   146   ar
    42   105   106    1
    43   147   146   ar
    44    77    74    1
    45    77    78    1
    46   129   131   ar
    47   129   130   ar
    48    79    78    1
    49    79    80    1
    50    74    75    1
    51   106   107   ar
    52   106   108   ar
    53    82    85    1
    54    82    81    1
    55   131   133   ar
    56   109   110    1
    57    85    86    1
    58    87    86    1
    59    75    76    2
    60   130   132   ar
    61   115   113    1
    62    86    88    1
    63   119   118    2
    64   133   132   ar
    65   110   113    1
    66   110   111    1
    67   113   114    1
    68   118   117    1
    69   116   111   am
    70   116   117    1
    71   111   112    2
    72   117   120    1
    73     4     3    2
    74   120   121    1
    75     3     2    1
    76    38    39    1
    77    38    35    1
    78    40    39   ar
    79    40    42   ar
    80   121   122    1
    81   121   123    1
    82    39    41   ar
    83    42    44   ar
    84    18    17   ar
    85    16    17    1
    86    16    13    1
    87    41    43   ar
    88    44    43   ar
    89    44    45    1
    90     9     7   ar
    91     9    11   ar
    92     7     6   ar
    93    17    19   ar
    94    35    34    1
    95    35    36    1
    96    56    54   ar
    97    56    55   ar
    98    12    13    1
    99     2     1    1
   100     2     5    1
   101    54    52   ar
   102    13    14    1
   103    11    10   ar
   104     6     5    1
   105     6     8   ar
   106    55    53   ar
   107    36    37    2
   108   100    99    1
   109    10     8   ar
   110    52    51   ar
   111    14    20   am
   112    14    15    2
   113    53    51   ar
   114    20    21    1
   115    51    50    1
   116    99    97   ar
   117    99    98   ar
   118    97    95   ar
   119    98    96   ar
   120    46    47    1
   121    21    24    1
   122    21    22    1
   123    26    25   ar
   124    26    28   ar
   125    50    47    1
   126    24    25    1
   127    47    48    1
   128    22    23    2
   129    95    94   ar
   130    96    94   ar
   131    25    27   ar
   132    28    29   ar
   133    94    93    1
   134    48    49    2
   135    27    29   ar
   136    27    30   ar
   137    29    31   ar
   138    93    90    1
   139    31    33   ar
   140    30    32   ar
   141    90    89    1
   142    90    91    1
   143    32    33   ar
   144    91    92    2
