@<TRIPOS>MOLECULE
tmp/5ai6A00.pdb
 145 142 0 0 0
SMALL
GASTEIGER

@<TRIPOS>ATOM
      1  N         20.3890   15.6500   15.9840 N.3   266  PHE266     -0.1228
      2  CA        21.4930   14.7050   15.8620 C.3   266  PHE266      0.1721
      3  C         21.6360   14.1580   14.4370 C.2   266  PHE266      0.2437
      4  O         20.6400   13.6740   13.8830 O.2   266  PHE266     -0.2733
      5  CB        21.2940   13.5200   16.8580 C.3   266  PHE266      0.0547
      6  CG        22.2520   12.3630   16.6470 C.ar  266  PHE266     -0.0202
      7  CD1       21.9900   11.3840   15.6900 C.ar  266  PHE266     -0.0042
      8  CD2       23.4290   12.2730   17.3780 C.ar  266  PHE266     -0.0042
      9  CE1       22.9060   10.3520   15.4490 C.ar  266  PHE266     -0.0003
     10  CE2       24.3340   11.2250   17.1530 C.ar  266  PHE266     -0.0003
     11  CZ        24.0660   10.2720   16.1910 C.ar  266  PHE266     -0.0000
     12  N         22.8790   14.0390   13.8960 N.am  267  PRO267     -0.2729
     13  CA        24.1820   14.5180   14.3990 C.3   267  PRO267      0.1401
     14  C         24.4900   15.8140   13.6380 C.2   267  PRO267      0.2269
     15  O         25.0470   15.7870   12.5360 O.2   267  PRO267     -0.2865
     16  CB        25.1160   13.3580   14.0150 C.3   267  PRO267      0.0296
     17  CG        24.4240   12.6740   12.7900 C.3   267  PRO267      0.0237
     18  CD        23.0740   13.3620   12.6020 C.3   267  PRO267      0.0939
     19  N         14.5880   17.7710   15.8950 N.3   334  ASP334     -0.1239
     20  CA        15.0640   16.4620   16.3520 C.3   334  ASP334      0.1674
     21  C         15.3440   16.4900   17.8630 C.2   334  ASP334      0.2266
     22  O         14.4220   16.7850   18.6140 O.2   334  ASP334     -0.2867
     23  CB        16.2500   15.9630   15.4650 C.3   334  ASP334      0.1410
     24  CG        16.7380   14.5730   15.8120 C.2   334  ASP334      0.3668
     25  OD1       16.0510   13.6000   15.4540 O.co2 334  ASP334     -0.2456
     26  OD2       17.7640   14.4660   16.5170 O.co2 334  ASP334     -0.2456
     27  N         17.0980    2.2880   15.9200 N.3   382  TYR382     -0.1241
     28  CA        18.3550    3.0400   15.8530 C.3   382  TYR382      0.1605
     29  C         18.7760    3.5590   17.2450 C.2   382  TYR382      0.2264
     30  O         19.9630    3.5420   17.5570 O.2   382  TYR382     -0.2867
     31  CB        18.2680    4.1810   14.8160 C.3   382  TYR382      0.0534
     32  CG        17.4790    5.3940   15.2660 C.ar  382  TYR382     -0.0201
     33  CD1       16.0900    5.3940   15.2450 C.ar  382  TYR382     -0.0009
     34  CD2       18.1270    6.5420   15.7130 C.ar  382  TYR382     -0.0009
     35  CE1       15.3610    6.5020   15.6710 C.ar  382  TYR382      0.0417
     36  CE2       17.4070    7.6590   16.1360 C.ar  382  TYR382      0.0417
     37  CZ        16.0230    7.6430   16.0980 C.ar  382  TYR382      0.1957
     38  OH        15.3050    8.7460   16.5050 O.3   382  TYR382     -0.2866
     39  N         22.2080    2.8200   19.4770 N.3   386  PHE386     -0.1241
     40  CA        22.9370    3.9530   20.0460 C.3   386  PHE386      0.1605
     41  C         23.2350    3.8160   21.5370 C.2   386  PHE386      0.2264
     42  O         23.9890    4.6280   22.0660 O.2   386  PHE386     -0.2867
     43  CB        22.1490    5.2530   19.7930 C.3   386  PHE386      0.0534
     44  CG        22.1270    5.7820   18.3760 C.ar  386  PHE386     -0.0203
     45  CD1       22.9040    5.1960   17.3810 C.ar  386  PHE386     -0.0042
     46  CD2       21.3470    6.8810   18.0410 C.ar  386  PHE386     -0.0042
     47  CE1       22.9160    5.7130   16.0860 C.ar  386  PHE386     -0.0003
     48  CE2       21.3560    7.3970   16.7400 C.ar  386  PHE386     -0.0003
     49  CZ        22.1370    6.8070   15.7690 C.ar  386  PHE386     -0.0000
     50  N         25.6280    9.5360    3.7790 N.3   406  SER406     -0.1202
     51  CA        24.6220    8.4820    3.9740 C.3   406  SER406      0.2020
     52  C         23.3970    9.0150    4.7320 C.2   406  SER406      0.2618
     53  O         22.2620    8.7190    4.3530 O.2   406  SER406     -0.2717
     54  CB        25.2190    7.2990    4.7320 C.3   406  SER406      0.2103
     55  OG        26.4360    6.8370    4.1680 O.3   406  SER406     -0.2182
     56  N         23.6310    9.8110    5.7990 N.am  407  LEU407     -0.1979
     57  CA        22.5740   10.3920    6.6350 C.3   407  LEU407      0.1596
     58  C         21.7700   11.4910    5.9410 C.2   407  LEU407      0.2287
     59  O         20.5400   11.4170    5.9060 O.2   407  LEU407     -0.2864
     60  CB        23.1530   10.9560    7.9490 C.3   407  LEU407      0.0297
     61  CG        23.6780    9.9660    8.9650 C.3   407  LEU407      0.0022
     62  CD1       24.4970   10.6690    9.9720 C.3   407  LEU407      0.0001
     63  CD2       22.5500    9.2150    9.6610 C.3   407  LEU407      0.0001
     64  N         17.7590    6.7080    1.1070 N.3   415  VAL415     -0.1231
     65  CA        17.9100    6.9050    2.5510 C.3   415  VAL415      0.1692
     66  C         18.1370    5.6080    3.3190 C.2   415  VAL415      0.2591
     67  O         17.7180    4.5400    2.8660 O.2   415  VAL415     -0.2718
     68  CB        16.7290    7.7170    3.1630 C.3   415  VAL415      0.0266
     69  CG1       16.7850    9.1750    2.7480 C.3   415  VAL415      0.0020
     70  CG2       15.3720    7.1100    2.8090 C.3   415  VAL415      0.0020
     71  N         18.7780    5.7130    4.4960 N.am  416  LEU416     -0.1980
     72  CA        19.0330    4.5650    5.3630 C.3   416  LEU416      0.1596
     73  C         17.7330    4.1320    6.0080 C.2   416  LEU416      0.2287
     74  O         16.8840    4.9750    6.3080 O.2   416  LEU416     -0.2864
     75  CB        20.0290    4.9180    6.4830 C.3   416  LEU416      0.0297
     76  CG        21.3720    5.4940    6.0810 C.3   416  LEU416      0.0022
     77  CD1       21.9030    6.3840    7.1720 C.3   416  LEU416      0.0001
     78  CD2       22.3660    4.3950    5.7480 C.3   416  LEU416      0.0001
     79  N         15.8220    2.9410    9.2050 N.3   418  MET418     -0.1245
     80  CA        16.0100    3.0860   10.6540 C.3   418  MET418      0.1570
     81  C         15.4430    1.8670   11.3820 C.2   418  MET418      0.2261
     82  O         15.4750    1.7780   12.6170 O.2   418  MET418     -0.2867
     83  CB        15.3890    4.4050   11.1410 C.3   418  MET418      0.0387
     84  CG        16.4040    5.4250   11.6930 C.3   418  MET418      0.0595
     85  SD        18.0750    5.5650   10.9890 S.3   418  MET418     -0.1393
     86  CE        17.7140    5.9020    9.3150 C.3   418  MET418      0.0692
     87  N         20.9700   10.3040   23.5130 N.3   465  TYR465     -0.1241
     88  CA        20.1080    9.1070   23.4550 C.3   465  TYR465      0.1605
     89  C         20.3140    8.1650   24.6460 C.2   465  TYR465      0.2264
     90  O         19.5670    7.2010   24.7880 O.2   465  TYR465     -0.2867
     91  CB        20.4440    8.2900   22.1910 C.3   465  TYR465      0.0534
     92  CG        20.0750    8.9330   20.8750 C.ar  465  TYR465     -0.0201
     93  CD1       18.8160    8.7510   20.3110 C.ar  465  TYR465     -0.0009
     94  CD2       21.0130    9.6750   20.1570 C.ar  465  TYR465     -0.0009
     95  CE1       18.4930    9.2920   19.0690 C.ar  465  TYR465      0.0417
     96  CE2       20.6950   10.2410   18.9250 C.ar  465  TYR465      0.0417
     97  CZ        19.4360   10.0440   18.3820 C.ar  465  TYR465      0.1957
     98  OH        19.1320   10.6110   17.1690 O.3   465  TYR465     -0.2866
     99  N          9.1100   12.1170    7.0040 N.3   495  ASP495     -0.1239
    100  CA        10.0290   11.7430    8.0750 C.3   495  ASP495      0.1674
    101  C          9.4550   10.4170    8.5770 C.2   495  ASP495      0.2266
    102  O          8.3510   10.3930    9.1300 O.2   495  ASP495     -0.2867
    103  CB        10.0950   12.7920    9.2090 C.3   495  ASP495      0.1410
    104  CG        11.2530   12.5750   10.1820 C.2   495  ASP495      0.3668
    105  OD1       11.7560   11.4340   10.2670 O.co2 495  ASP495     -0.2456
    106  OD2       11.6600   13.5510   10.8530 O.co2 495  ASP495     -0.2456
    107  N         10.7400    8.4170   10.8490 N.3   497  VAL497     -0.1231
    108  CA        11.0900    8.2090   12.2590 C.3   497  VAL497      0.1692
    109  C         10.1950    9.1300   13.1050 C.2   497  VAL497      0.2591
    110  O          9.4380    8.6470   13.9540 O.2   497  VAL497     -0.2718
    111  CB        12.5990    8.4490   12.5170 C.3   497  VAL497      0.0266
    112  CG1       12.9420    8.3050   13.9990 C.3   497  VAL497      0.0020
    113  CG2       13.4420    7.5050   11.6760 C.3   497  VAL497      0.0020
    114  N         10.2740   10.4490   12.8570 N.am  498  LEU498     -0.1980
    115  CA         9.4470   11.4410   13.5420 C.3   498  LEU498      0.1596
    116  C          8.2480   11.7240   12.6380 C.2   498  LEU498      0.2287
    117  O          8.1740   12.7570   11.9700 O.2   498  LEU498     -0.2864
    118  CB        10.2540   12.7160   13.8940 C.3   498  LEU498      0.0297
    119  CG        11.5560   12.5130   14.6980 C.3   498  LEU498      0.0022
    120  CD1       12.3320   13.8040   14.8030 C.3   498  LEU498      0.0001
    121  CD2       11.2830   11.9580   16.1010 C.3   498  LEU498      0.0001
    122  N         13.5450   13.8610    7.0280 N.3   523  HIS523     -0.1226
    123  CA        13.9830   14.1790    8.3840 C.3   523  HIS523      0.1752
    124  C         14.7500   15.4910    8.5240 C.2   523  HIS523      0.2596
    125  O         14.5840   16.1820    9.5270 O.2   523  HIS523     -0.2718
    126  CB        14.8020   13.0350    8.9880 C.3   523  HIS523      0.0759
    127  CG        15.2800   13.3470   10.3740 C.ar  523  HIS523      0.0818
    128  ND1       14.4060   13.3700   11.4520 N.ar  523  HIS523     -0.2268
    129  CD2       16.5170   13.6880   10.8060 C.ar  523  HIS523      0.1154
    130  CE1       15.1390   13.7200   12.4940 C.ar  523  HIS523      0.1986
    131  NE2       16.4170   13.9080   12.1570 N.ar  523  HIS523     -0.2212
    132  N         15.6100   15.8150    7.5440 N.am  524  TRP524     -0.1976
    133  CA        16.4710   17.0010    7.5420 C.3   524  TRP524      0.1640
    134  C         15.7030   18.1750    6.9680 C.2   524  TRP524      0.2290
    135  O         16.0630   18.7180    5.9260 O.2   524  TRP524     -0.2864
    136  CB        17.7800   16.7000    6.7940 C.3   524  TRP524      0.0576
    137  CG        18.2810   15.3090    7.0700 C.ar  524  TRP524      0.0006
    138  CD1       18.0990   14.2080    6.2880 C.ar  524  TRP524      0.0946
    139  CD2       18.9040   14.8460    8.2800 C.ar  524  TRP524      0.0152
    140  NE1       18.6140   13.0950    6.9100 N.ar  524  TRP524     -0.2442
    141  CE2       19.1220   13.4570    8.1310 C.ar  524  TRP524      0.0810
    142  CE3       19.3290   15.4720    9.4640 C.ar  524  TRP524      0.0012
    143  CZ2       19.7580   12.6890    9.1150 C.ar  524  TRP524      0.0191
    144  CZ3       19.9670   14.7090   10.4310 C.ar  524  TRP524      0.0001
    145  CH2       20.1700   13.3350   10.2560 C.ar  524  TRP524      0.0015
@<TRIPOS>BOND
     1    64    65    1
     2    65    68    1
     3    65    66    1
     4    69    68    1
     5    70    68    1
     6    67    66    2
     7    66    71   am
     8    50    51    1
     9    51    54    1
    10    51    52    1
    11    55    54    1
    12    53    52    2
    13    71    72    1
    14    52    56   am
    15    72    73    1
    16    72    75    1
    17    78    76    1
    18    56    57    1
    19    59    58    2
    20   135   134    2
    21    58    57    1
    22    73    74    2
    23    76    75    1
    24    76    77    1
    25   138   140   ar
    26   138   137   ar
    27    57    60    1
    28   136   137    1
    29   136   133    1
    30   140   141   ar
    31   134   133    1
    32    99   100    1
    33   122   123    1
    34   137   139   ar
    35   133   132    1
    36   132   124   am
    37    60    61    1
    38   100   101    1
    39   100   103    1
    40   141   139   ar
    41   141   143   ar
    42   139   142   ar
    43   123   124    1
    44   123   126    1
    45   124   125    2
    46   101   102    2
    47    61    63    1
    48    61    62    1
    49   126   127    1
    50   143   145   ar
    51    79    80    1
    52   103   104    1
    53    86    85    1
    54   142   144   ar
    55   104   105   ar
    56   104   106   ar
    57   145   144   ar
    58   127   129   ar
    59   127   128   ar
    60    80    83    1
    61    80    81    1
    62   129   131   ar
    63   107   108    1
    64    85    84    1
    65    83    84    1
    66    81    82    2
    67   128   130   ar
    68   113   111    1
    69   117   116    2
    70   131   130   ar
    71   108   111    1
    72   108   109    1
    73   111   112    1
    74    15    14    2
    75    18    17    1
    76    18    12    1
    77   116   115    1
    78    17    16    1
    79   114   109   am
    80   114   115    1
    81   109   110    2
    82   115   118    1
    83    14    13    1
    84     4     3    2
    85   118   119    1
    86    12    13    1
    87    12     3   am
    88    16    13    1
    89     3     2    1
    90   119   120    1
    91   119   121    1
    92    31    32    1
    93    31    28    1
    94    33    32   ar
    95    33    35   ar
    96    32    34   ar
    97     9     7   ar
    98     9    11   ar
    99    25    24   ar
   100    23    24    1
   101    23    20    1
   102    35    37   ar
   103     7     6   ar
   104    34    36   ar
   105    49    47   ar
   106    49    48   ar
   107    24    26   ar
   108    28    27    1
   109    28    29    1
   110     2     1    1
   111     2     5    1
   112    19    20    1
   113    47    45   ar
   114    37    36   ar
   115    37    38    1
   116    11    10   ar
   117    20    21    1
   118     6     5    1
   119     6     8   ar
   120    48    46   ar
   121    10     8   ar
   122    98    97    1
   123    29    30    2
   124    45    44   ar
   125    21    22    2
   126    46    44   ar
   127    44    43    1
   128    97    96   ar
   129    97    95   ar
   130    96    94   ar
   131    95    93   ar
   132    39    40    1
   133    43    40    1
   134    40    41    1
   135    94    92   ar
   136    93    92   ar
   137    92    91    1
   138    41    42    2
   139    91    88    1
   140    88    87    1
   141    88    89    1
   142    89    90    2
