@<TRIPOS>MOLECULE
tmp/5ai8A00.pdb
 142 141 0 0 0
SMALL
GASTEIGER

@<TRIPOS>ATOM
      1  N         20.3160  -15.6370  -16.0700 N.3   259  PHE259     -0.1228
      2  CA        21.4100  -14.6970  -15.9210 C.3   259  PHE259      0.1721
      3  C         21.5850  -14.2190  -14.4810 C.2   259  PHE259      0.2437
      4  O         20.6010  -13.7600  -13.8890 O.2   259  PHE259     -0.2733
      5  CB        21.1680  -13.4810  -16.8490 C.3   259  PHE259      0.0547
      6  CG        22.2050  -12.3870  -16.6930 C.ar  259  PHE259     -0.0202
      7  CD1       22.0890  -11.4350  -15.6870 C.ar  259  PHE259     -0.0042
      8  CD2       23.3110  -12.3300  -17.5350 C.ar  259  PHE259     -0.0042
      9  CE1       23.0840  -10.4610  -15.4990 C.ar  259  PHE259     -0.0003
     10  CE2       24.2900  -11.3350  -17.3740 C.ar  259  PHE259     -0.0003
     11  CZ        24.1710  -10.4100  -16.3530 C.ar  259  PHE259     -0.0000
     12  N         22.8280  -14.1190  -13.9650 N.am  260  PRO260     -0.2729
     13  CA        24.1310  -14.5910  -14.5010 C.3   260  PRO260      0.1401
     14  C         24.4640  -15.8610  -13.7140 C.2   260  PRO260      0.2269
     15  O         25.0510  -15.8120  -12.6300 O.2   260  PRO260     -0.2865
     16  CB        25.0720  -13.4380  -14.1250 C.3   260  PRO260      0.0296
     17  CG        24.4060  -12.7590  -12.8860 C.3   260  PRO260      0.0237
     18  CD        23.0490  -13.4530  -12.6670 C.3   260  PRO260      0.0939
     19  N         14.4480  -17.7430  -15.8430 N.3   327  ASP327     -0.1239
     20  CA        14.9250  -16.4310  -16.3320 C.3   327  ASP327      0.1674
     21  C         15.2130  -16.5120  -17.8470 C.2   327  ASP327      0.2266
     22  O         14.3160  -16.9350  -18.5820 O.2   327  ASP327     -0.2867
     23  CB        16.1190  -15.9270  -15.4610 C.3   327  ASP327      0.1410
     24  CG        16.6710  -14.5740  -15.8780 C.2   327  ASP327      0.3668
     25  OD1       16.0360  -13.5500  -15.5510 O.co2 327  ASP327     -0.2456
     26  OD2       17.7050  -14.5460  -16.5980 O.co2 327  ASP327     -0.2456
     27  N         17.0640   -2.1370  -15.7640 N.3   375  TYR375     -0.1241
     28  CA        18.3510   -2.8460  -15.7740 C.3   375  TYR375      0.1605
     29  C         18.6790   -3.4120  -17.1720 C.2   375  TYR375      0.2264
     30  O         19.8420   -3.4290  -17.5610 O.2   375  TYR375     -0.2867
     31  CB        18.4000   -3.9270  -14.6750 C.3   375  TYR375      0.0534
     32  CG        17.6290   -5.1880  -14.9970 C.ar  375  TYR375     -0.0201
     33  CD1       16.2470   -5.2480  -14.8290 C.ar  375  TYR375     -0.0009
     34  CD2       18.2820   -6.3310  -15.4550 C.ar  375  TYR375     -0.0009
     35  CE1       15.5320   -6.4070  -15.1340 C.ar  375  TYR375      0.0417
     36  CE2       17.5780   -7.4890  -15.7730 C.ar  375  TYR375      0.0417
     37  CZ        16.2040   -7.5310  -15.5940 C.ar  375  TYR375      0.1957
     38  OH        15.5120   -8.6850  -15.9050 O.3   375  TYR375     -0.2866
     39  N         22.0480   -2.7780  -19.4490 N.3   379  PHE379     -0.1241
     40  CA        22.8270   -3.8880  -20.0180 C.3   379  PHE379      0.1605
     41  C         23.1170   -3.7390  -21.5120 C.2   379  PHE379      0.2264
     42  O         23.8900   -4.5390  -22.0440 O.2   379  PHE379     -0.2867
     43  CB        22.0960   -5.2320  -19.7610 C.3   379  PHE379      0.0534
     44  CG        22.0840   -5.7640  -18.3430 C.ar  379  PHE379     -0.0203
     45  CD1       22.8090   -5.1330  -17.3330 C.ar  379  PHE379     -0.0042
     46  CD2       21.3940   -6.9320  -18.0300 C.ar  379  PHE379     -0.0042
     47  CE1       22.8140   -5.6410  -16.0310 C.ar  379  PHE379     -0.0003
     48  CE2       21.4040   -7.4430  -16.7260 C.ar  379  PHE379     -0.0003
     49  CZ        22.1140   -6.7960  -15.7320 C.ar  379  PHE379     -0.0000
     50  N         23.5980   -9.8980   -5.7830 N.3   400  LEU400     -0.1245
     51  CA        22.5360  -10.4540   -6.6210 C.3   400  LEU400      0.1561
     52  C         21.6890  -11.5240   -5.9460 C.2   400  LEU400      0.2260
     53  O         20.4560  -11.4260   -5.9560 O.2   400  LEU400     -0.2867
     54  CB        23.1450  -11.0290   -7.9190 C.3   400  LEU400      0.0270
     55  CG        23.5890  -10.0270   -8.9760 C.3   400  LEU400      0.0019
     56  CD1       24.4250  -10.7200  -10.0250 C.3   400  LEU400      0.0001
     57  CD2       22.3990   -9.3360   -9.6210 C.3   400  LEU400      0.0001
     58  N         17.1750   -6.8550   -1.3020 N.3   408  VAL408     -0.1231
     59  CA        17.3640   -7.2280   -2.7070 C.3   408  VAL408      0.1692
     60  C         17.7160   -5.9770   -3.5030 C.2   408  VAL408      0.2591
     61  O         17.2810   -4.8930   -3.1080 O.2   408  VAL408     -0.2718
     62  CB        16.1380   -7.9800   -3.3290 C.3   408  VAL408      0.0266
     63  CG1       15.8900   -9.3220   -2.6640 C.3   408  VAL408      0.0020
     64  CG2       14.8620   -7.1420   -3.3390 C.3   408  VAL408      0.0020
     65  N         18.5170   -6.0970   -4.5780 N.am  409  LEU409     -0.1980
     66  CA        18.8840   -4.9270   -5.3840 C.3   409  LEU409      0.1596
     67  C         17.6360   -4.2390   -5.9040 C.2   409  LEU409      0.2287
     68  O         16.6390   -4.9120   -6.1680 O.2   409  LEU409     -0.2864
     69  CB        19.7210   -5.3450   -6.5950 C.3   409  LEU409      0.0297
     70  CG        21.1820   -5.6560   -6.3920 C.3   409  LEU409      0.0022
     71  CD1       21.7360   -6.2570   -7.6410 C.3   409  LEU409      0.0001
     72  CD2       21.9690   -4.4070   -6.0430 C.3   409  LEU409      0.0001
     73  N         15.8030   -2.3190   -8.9380 N.3   411  MET411     -0.1245
     74  CA        16.0660   -2.3040  -10.3730 C.3   411  MET411      0.1570
     75  C         15.4260   -1.2030  -11.1990 C.2   411  MET411      0.2261
     76  O         15.4890   -1.2360  -12.4340 O.2   411  MET411     -0.2867
     77  CB        16.0220   -3.6870  -11.0080 C.3   411  MET411      0.0387
     78  CG        17.4170   -4.2530  -11.1730 C.3   411  MET411      0.0595
     79  SD        17.6080   -5.9790  -10.7140 S.3   411  MET411     -0.1393
     80  CE        16.9210   -5.9360   -9.1230 C.3   411  MET411      0.0692
     81  N         20.9660  -10.3150  -23.5560 N.3   458  TYR458     -0.1241
     82  CA        20.0530   -9.1520  -23.5040 C.3   458  TYR458      0.1605
     83  C         20.2060   -8.2220  -24.6930 C.2   458  TYR458      0.2264
     84  O         19.4270   -7.2750  -24.8380 O.2   458  TYR458     -0.2867
     85  CB        20.3720   -8.3170  -22.2530 C.3   458  TYR458      0.0534
     86  CG        20.0150   -8.9660  -20.9360 C.ar  458  TYR458     -0.0201
     87  CD1       18.7540   -8.7970  -20.3740 C.ar  458  TYR458     -0.0009
     88  CD2       20.9540   -9.7120  -20.2310 C.ar  458  TYR458     -0.0009
     89  CE1       18.4500   -9.3210  -19.1180 C.ar  458  TYR458      0.0417
     90  CE2       20.6440  -10.2880  -19.0040 C.ar  458  TYR458      0.0417
     91  CZ        19.3910  -10.0930  -18.4510 C.ar  458  TYR458      0.1957
     92  OH        19.0960  -10.6800  -17.2510 O.3   458  TYR458     -0.2866
     93  N          8.9790  -12.2730   -6.9710 N.3   488  ASP488     -0.1225
     94  CA         9.9210  -11.8730   -8.0050 C.3   488  ASP488      0.1805
     95  C          9.3330  -10.5340   -8.4680 C.2   488  ASP488      0.2598
     96  O          8.2570  -10.5220   -9.0380 O.2   488  ASP488     -0.2718
     97  CB        10.0010  -12.8890   -9.1740 C.3   488  ASP488      0.1424
     98  CG        11.0580  -12.5380  -10.2100 C.2   488  ASP488      0.3668
     99  OD1       11.3650  -11.3230  -10.3690 O.co2 488  ASP488     -0.2456
    100  OD2       11.5790  -13.4810  -10.8810 O.co2 488  ASP488     -0.2456
    101  N          9.9990   -9.4090   -8.1420 N.am  489  PHE489     -0.1962
    102  CA         9.4740   -8.0940   -8.4960 C.3   489  PHE489      0.1771
    103  C          9.7570   -7.6200   -9.9190 C.2   489  PHE489      0.2619
    104  O          9.2990   -6.5450  -10.3080 O.2   489  PHE489     -0.2715
    105  CB         9.7690   -7.0450   -7.3940 C.3   489  PHE489      0.0574
    106  CG         9.2020   -7.4470   -6.0460 C.ar  489  PHE489     -0.0200
    107  CD1        7.8370   -7.6840   -5.8850 C.ar  489  PHE489     -0.0042
    108  CD2       10.0330   -7.6160   -4.9450 C.ar  489  PHE489     -0.0042
    109  CE1        7.3180   -8.0820   -4.6450 C.ar  489  PHE489     -0.0003
    110  CE2        9.5110   -8.0050   -3.7040 C.ar  489  PHE489     -0.0003
    111  CZ         8.1600   -8.2400   -3.5640 C.ar  489  PHE489     -0.0000
    112  N         10.4560   -8.4510  -10.7230 N.am  490  VAL490     -0.1977
    113  CA        10.7570   -8.1580  -12.1280 C.3   490  VAL490      0.1596
    114  C          9.8570   -9.0700  -12.9920 C.2   490  VAL490      0.2287
    115  O          9.0240   -8.5870  -13.7640 O.2   490  VAL490     -0.2864
    116  CB        12.2640   -8.3150  -12.4510 C.3   490  VAL490      0.0276
    117  CG1       12.5300   -8.1450  -13.9490 C.3   490  VAL490      0.0022
    118  CG2       13.1100   -7.3340  -11.6320 C.3   490  VAL490      0.0022
    119  N         13.3900  -13.8710   -6.9950 N.3   516  HIS516     -0.1226
    120  CA        13.8290  -14.2090   -8.3480 C.3   516  HIS516      0.1752
    121  C         14.6080  -15.5230   -8.4350 C.2   516  HIS516      0.2596
    122  O         14.5190  -16.1990   -9.4560 O.2   516  HIS516     -0.2718
    123  CB        14.7000  -13.0630   -8.9170 C.3   516  HIS516      0.0759
    124  CG        15.1970  -13.3460  -10.3060 C.ar  516  HIS516      0.0818
    125  ND1       14.3300  -13.3810  -11.3910 N.ar  516  HIS516     -0.2268
    126  CD2       16.4450  -13.6550  -10.7310 C.ar  516  HIS516      0.1154
    127  CE1       15.0820  -13.6830  -12.4390 C.ar  516  HIS516      0.1986
    128  NE2       16.3590  -13.8710  -12.0910 N.ar  516  HIS516     -0.2212
    129  N         15.4320  -15.8540   -7.4160 N.am  517  TRP517     -0.1976
    130  CA        16.3330  -17.0240   -7.4750 C.3   517  TRP517      0.1640
    131  C         15.6450  -18.2650   -6.9720 C.2   517  TRP517      0.2290
    132  O         16.0940  -18.8970   -6.0230 O.2   517  TRP517     -0.2864
    133  CB        17.6330  -16.7140   -6.7220 C.3   517  TRP517      0.0576
    134  CG        18.1420  -15.3360   -7.0130 C.ar  517  TRP517      0.0006
    135  CD1       17.9330  -14.2130   -6.2650 C.ar  517  TRP517      0.0946
    136  CD2       18.7640  -14.8990   -8.2270 C.ar  517  TRP517      0.0152
    137  NE1       18.4230  -13.1090   -6.9200 N.ar  517  TRP517     -0.2442
    138  CE2       18.9860  -13.5080   -8.1050 C.ar  517  TRP517      0.0810
    139  CE3       19.2280  -15.5630   -9.3800 C.ar  517  TRP517      0.0012
    140  CZ2       19.6650  -12.7700   -9.0840 C.ar  517  TRP517      0.0191
    141  CZ3       19.8900  -14.8310  -10.3500 C.ar  517  TRP517      0.0001
    142  CH2       20.0750  -13.4450  -10.2140 C.ar  517  TRP517      0.0015
@<TRIPOS>BOND
     1    84    83    2
     2    83    82    1
     3    81    82    1
     4    82    85    1
     5    85    86    1
     6    42    41    2
     7    41    40    1
     8    86    87   ar
     9    86    88   ar
    10    87    89   ar
    11    88    90   ar
    12    40    43    1
    13    40    39    1
    14    43    44    1
    15    89    91   ar
    16    90    91   ar
    17    22    21    2
    18    91    92    1
    19    44    46   ar
    20    44    45   ar
    21    46    48   ar
    22    21    20    1
    23    30    29    2
    24     8    10   ar
    25     8     6   ar
    26    10    11   ar
    27    45    47   ar
    28    29    28    1
    29     5     6    1
    30     5     2    1
    31    48    49   ar
    32     6     7   ar
    33    26    24   ar
    34    11     9   ar
    35    20    19    1
    36    20    23    1
    37     1     2    1
    38    47    49   ar
    39     2     3    1
    40    38    37    1
    41    24    25   ar
    42    24    23    1
    43    28    27    1
    44    28    31    1
    45    36    37   ar
    46    36    34   ar
    47     7     9   ar
    48    37    35   ar
    49    34    32   ar
    50    35    33   ar
    51    32    33   ar
    52    32    31    1
    53    13    16    1
    54    13    12    1
    55    13    14    1
    56     3    12   am
    57     3     4    2
    58    16    17    1
    59    12    18    1
    60   117   116    1
    61   115   114    2
    62    14    15    2
    63   114   113    1
    64    17    18    1
    65   116   113    1
    66   116   118    1
    67   127   128   ar
    68   127   125   ar
    69    76    75    2
    70   113   112    1
    71   128   126   ar
    72   125   124   ar
    73    75    74    1
    74    78    77    1
    75    78    79    1
    76    77    74    1
    77   100    98   ar
    78   126   124   ar
    79   112   103   am
    80    79    80    1
    81    74    73    1
    82    99    98   ar
    83   141   142   ar
    84   141   139   ar
    85   104   103    2
    86   124   123    1
    87   142   140   ar
    88    98    97    1
    89    56    55    1
    90   103   102    1
    91    57    55    1
    92   122   121    2
    93   139   136   ar
    94    97    94    1
    95   140   138   ar
    96    96    95    2
    97    55    54    1
    98   123   120    1
    99   102   101    1
   100   102   105    1
   101    95   101   am
   102    95    94    1
   103   121   120    1
   104   121   129   am
   105   120   119    1
   106   136   138   ar
   107   136   134   ar
   108   138   137   ar
   109    94    93    1
   110    54    51    1
   111    71    70    1
   112   130   129    1
   113   130   131    1
   114   130   133    1
   115   105   106    1
   116   134   133    1
   117   134   135   ar
   118   131   132    2
   119   137   135   ar
   120    51    52    1
   121    51    50    1
   122    69    70    1
   123    69    66    1
   124    70    72    1
   125    68    67    2
   126   106   107   ar
   127   106   108   ar
   128    53    52    2
   129    67    66    1
   130   107   109   ar
   131    66    65    1
   132   108   110   ar
   133   109   111   ar
   134    65    60   am
   135   110   111   ar
   136    60    61    2
   137    60    59    1
   138    64    62    1
   139    62    59    1
   140    62    63    1
   141    59    58    1
