@<TRIPOS>MOLECULE
tmp/5ai9A00.pdb
 212 207 0 0 0
SMALL
GASTEIGER

@<TRIPOS>ATOM
      1  N         20.3880   15.6600   15.9160 N.3   266  PHE266     -0.1228
      2  CA        21.4900   14.7090   15.8360 C.3   266  PHE266      0.1721
      3  C         21.6480   14.2110   14.3730 C.2   266  PHE266      0.2437
      4  O         20.6500   13.7630   13.7740 O.2   266  PHE266     -0.2733
      5  CB        21.1920   13.5000   16.7630 C.3   266  PHE266      0.0547
      6  CG        22.2010   12.3670   16.6290 C.ar  266  PHE266     -0.0202
      7  CD1       22.0960   11.4380   15.6010 C.ar  266  PHE266     -0.0042
      8  CD2       23.2770   12.2620   17.5110 C.ar  266  PHE266     -0.0042
      9  CE1       23.0610   10.4210   15.4430 C.ar  266  PHE266     -0.0003
     10  CE2       24.2260   11.2360   17.3720 C.ar  266  PHE266     -0.0003
     11  CZ        24.0970   10.3110   16.3440 C.ar  266  PHE266     -0.0000
     12  N         22.9090   14.1160   13.8500 N.am  267  PRO267     -0.2729
     13  CA        24.1940   14.5830   14.4070 C.3   267  PRO267      0.1401
     14  C         24.5500   15.8370   13.6150 C.2   267  PRO267      0.2269
     15  O         25.0590   15.7950   12.4860 O.2   267  PRO267     -0.2865
     16  CB        25.1200   13.3890   14.1110 C.3   267  PRO267      0.0296
     17  CG        24.5410   12.7910   12.7740 C.3   267  PRO267      0.0237
     18  CD        23.1490   13.4330   12.5640 C.3   267  PRO267      0.0939
     19  N         14.4570   17.7460   15.7140 N.3   334  ASP334     -0.1225
     20  CA        14.9590   16.4310   16.1740 C.3   334  ASP334      0.1805
     21  C         15.2390   16.4470   17.7130 C.2   334  ASP334      0.2597
     22  O         14.3250   16.7880   18.4780 O.2   334  ASP334     -0.2718
     23  CB        16.1810   15.9940   15.3020 C.3   334  ASP334      0.1424
     24  CG        16.7190   14.6120   15.6130 C.2   334  ASP334      0.3668
     25  OD1       16.0990   13.6430   15.1940 O.co2 334  ASP334     -0.2456
     26  OD2       17.7190   14.5100   16.3810 O.co2 334  ASP334     -0.2456
     27  N         16.4850   16.1330   18.1720 N.am  335  TRP335     -0.1976
     28  CA        16.7790   16.2190   19.6000 C.3   335  TRP335      0.1640
     29  C         16.6250   17.6660   20.0890 C.2   335  TRP335      0.2290
     30  O         16.2520   17.8690   21.2400 O.2   335  TRP335     -0.2864
     31  CB        18.1980   15.6930   19.9340 C.3   335  TRP335      0.0576
     32  CG        18.1920   14.3090   20.4860 C.ar  335  TRP335      0.0006
     33  CD1       18.6990   13.1860   19.8970 C.ar  335  TRP335      0.0946
     34  CD2       17.5250   13.8730   21.6760 C.ar  335  TRP335      0.0152
     35  NE1       18.4280   12.0820   20.6720 N.ar  335  TRP335     -0.2442
     36  CE2       17.7350   12.4800   21.7870 C.ar  335  TRP335      0.0810
     37  CE3       16.8470   14.5380   22.7090 C.ar  335  TRP335      0.0012
     38  CZ2       17.2240   11.7310   22.8510 C.ar  335  TRP335      0.0191
     39  CZ3       16.3940   13.8010   23.7900 C.ar  335  TRP335      0.0001
     40  CH2       16.5800   12.4130   23.8510 C.ar  335  TRP335      0.0015
     41  N         13.0490   18.1350   20.9440 N.3   338  MET338     -0.1245
     42  CA        12.6880   17.5390   22.2220 C.3   338  MET338      0.1570
     43  C         13.1260   18.5130   23.3310 C.2   338  MET338      0.2261
     44  O         12.3800   18.7440   24.2810 O.2   338  MET338     -0.2867
     45  CB        13.3900   16.1780   22.4140 C.3   338  MET338      0.0387
     46  CG        12.9910   15.4810   23.6760 C.3   338  MET338      0.0595
     47  SD        11.2810   14.8840   23.6380 S.3   338  MET338     -0.1393
     48  CE        11.5040   13.4810   22.5770 C.3   338  MET338      0.0692
     49  N          9.8130   16.8270   15.6570 N.3   359  THR359     -0.1204
     50  CA         9.7150   16.2240   16.9740 C.3   359  THR359      0.1979
     51  C          8.4120   16.5790   17.6500 C.2   359  THR359      0.2459
     52  O          8.1920   17.7320   17.9900 O.2   359  THR359     -0.2732
     53  CB        10.9120   16.5330   17.8760 C.3   359  THR359      0.1783
     54  OG1       12.0910   16.1910   17.1800 O.3   359  THR359     -0.2211
     55  CG2       10.8550   15.7790   19.2190 C.3   359  THR359      0.0376
     56  N          7.5720   15.5720   17.9000 N.am  360  PRO360     -0.2728
     57  CA         6.3040   15.8580   18.5620 C.3   360  PRO360      0.1401
     58  C          6.4850   15.9190   20.0790 C.2   360  PRO360      0.2269
     59  O          7.5170   15.4980   20.6210 O.2   360  PRO360     -0.2865
     60  CB         5.4390   14.6730   18.1540 C.3   360  PRO360      0.0296
     61  CG         6.3910   13.5310   18.0390 C.3   360  PRO360      0.0237
     62  CD         7.7000   14.1340   17.5600 C.3   360  PRO360      0.0939
     63  N         12.0510    3.0180   15.8030 N.3   380  PHE380     -0.1241
     64  CA        12.9470    3.5030   16.8560 C.3   380  PHE380      0.1605
     65  C         14.0550    2.5200   17.2020 C.2   380  PHE380      0.2264
     66  O         14.8030    2.7620   18.1550 O.2   380  PHE380     -0.2867
     67  CB        12.1630    3.9420   18.1040 C.3   380  PHE380      0.0534
     68  CG        11.4170    5.2530   17.9490 C.ar  380  PHE380     -0.0203
     69  CD1       12.0810    6.4110   17.5600 C.ar  380  PHE380     -0.0042
     70  CD2       10.0650    5.3420   18.2550 C.ar  380  PHE380     -0.0042
     71  CE1       11.3940    7.6250   17.4330 C.ar  380  PHE380     -0.0003
     72  CE2        9.3780    6.5580   18.1290 C.ar  380  PHE380     -0.0003
     73  CZ        10.0450    7.6840   17.6990 C.ar  380  PHE380     -0.0000
     74  N         16.9210    1.9740   15.8070 N.3   382  TYR382     -0.1227
     75  CA        18.2440    2.6250   15.7540 C.3   382  TYR382      0.1736
     76  C         18.6390    3.2010   17.1510 C.2   382  TYR382      0.2595
     77  O         19.8240    3.2440   17.4750 O.2   382  TYR382     -0.2718
     78  CB        18.2700    3.6980   14.6470 C.3   382  TYR382      0.0548
     79  CG        17.7740    5.0480   15.1200 C.ar  382  TYR382     -0.0200
     80  CD1       18.6250    5.9280   15.7820 C.ar  382  TYR382     -0.0009
     81  CD2       16.4290    5.4060   14.9970 C.ar  382  TYR382     -0.0009
     82  CE1       18.1670    7.1310   16.2910 C.ar  382  TYR382      0.0417
     83  CE2       15.9670    6.6300   15.4760 C.ar  382  TYR382      0.0417
     84  CZ        16.8510    7.4960   16.1080 C.ar  382  TYR382      0.1957
     85  OH        16.4740    8.7110   16.6210 O.3   382  TYR382     -0.2866
     86  N         17.6430    3.6250   17.9810 N.am  383  GLN383     -0.1979
     87  CA        17.9310    4.1510   19.3260 C.3   383  GLN383      0.1601
     88  C         18.4960    3.0640   20.2490 C.2   383  GLN383      0.2287
     89  O         19.3030    3.3750   21.1080 O.2   383  GLN383     -0.2864
     90  CB        16.6960    4.8170   19.9540 C.3   383  GLN383      0.0394
     91  CG        16.0900    5.8660   19.0310 C.3   383  GLN383      0.0908
     92  CD        15.1430    6.8050   19.7360 C.2   383  GLN383      0.2608
     93  OE1       14.6620    6.5460   20.8340 O.2   383  GLN383     -0.2717
     94  NE2       14.8560    7.9110   19.1010 N.am  383  GLN383     -0.0878
     95  N         22.1500    2.6720   19.3590 N.3   386  PHE386     -0.1241
     96  CA        22.9170    3.7810   19.9360 C.3   386  PHE386      0.1605
     97  C         23.2260    3.6440   21.4330 C.2   386  PHE386      0.2264
     98  O         23.9990    4.4310   21.9550 O.2   386  PHE386     -0.2867
     99  CB        22.1690    5.1210   19.6550 C.3   386  PHE386      0.0534
    100  CG        22.2110    5.6700   18.2470 C.ar  386  PHE386     -0.0203
    101  CD1       22.8840    4.9940   17.2280 C.ar  386  PHE386     -0.0042
    102  CD2       21.6120    6.8850   17.9400 C.ar  386  PHE386     -0.0042
    103  CE1       22.9840    5.5430   15.9530 C.ar  386  PHE386     -0.0003
    104  CE2       21.6920    7.4210   16.6490 C.ar  386  PHE386     -0.0003
    105  CZ        22.3900    6.7570   15.6630 C.ar  386  PHE386     -0.0000
    106  N         23.8100    9.9380    5.6510 N.3   407  LEU407     -0.1245
    107  CA        22.7300   10.4970    6.4780 C.3   407  LEU407      0.1561
    108  C         21.9070   11.5660    5.7880 C.2   407  LEU407      0.2260
    109  O         20.6760   11.4920    5.7870 O.2   407  LEU407     -0.2867
    110  CB        23.3230   11.0680    7.7980 C.3   407  LEU407      0.0270
    111  CG        23.8400   10.0560    8.7950 C.3   407  LEU407      0.0019
    112  CD1       24.5940   10.7590    9.9250 C.3   407  LEU407      0.0001
    113  CD2       22.7190    9.2020    9.3480 C.3   407  LEU407      0.0001
    114  N         19.5530    4.3100    3.7090 N.3   416  LEU416     -0.1245
    115  CA        19.3830    3.7220    5.0390 C.3   416  LEU416      0.1561
    116  C         17.9440    3.3540    5.3590 C.2   416  LEU416      0.2260
    117  O         17.0610    4.2140    5.3390 O.2   416  LEU416     -0.2867
    118  CB        19.8930    4.6840    6.1530 C.3   416  LEU416      0.0270
    119  CG        21.2460    5.3940    5.9860 C.3   416  LEU416      0.0019
    120  CD1       21.5440    6.2750    7.1850 C.3   416  LEU416      0.0001
    121  CD2       22.3780    4.4160    5.7410 C.3   416  LEU416      0.0001
    122  N         15.6630    2.2520    8.4870 N.3   418  MET418     -0.1245
    123  CA        15.8580    2.2950    9.9330 C.3   418  MET418      0.1570
    124  C         15.2610    1.1410   10.7310 C.2   418  MET418      0.2261
    125  O         15.3340    1.1170   11.9630 O.2   418  MET418     -0.2867
    126  CB        15.6430    3.6830   10.5250 C.3   418  MET418      0.0387
    127  CG        16.9580    4.3830   10.7480 C.3   418  MET418      0.0595
    128  SD        16.9490    6.0520   10.1360 S.3   418  MET418     -0.1393
    129  CE        16.7110    5.7800    8.3880 C.3   418  MET418      0.0692
    130  N         23.9740    1.1370   11.0960 N.3   427  LEU427     -0.1245
    131  CA        23.2090    2.0400   10.2240 C.3   427  LEU427      0.1561
    132  C         23.6370    1.9500    8.7770 C.2   427  LEU427      0.2260
    133  O         22.7960    2.1310    7.8950 O.2   427  LEU427     -0.2867
    134  CB        23.4200    3.5230   10.6400 C.3   427  LEU427      0.0270
    135  CG        22.4260    4.2020   11.5720 C.3   427  LEU427      0.0019
    136  CD1       20.9900    4.0330   11.1130 C.3   427  LEU427      0.0001
    137  CD2       22.5820    3.7070   12.9660 C.3   427  LEU427      0.0001
    138  N         21.2130   10.2330   23.6060 N.3   465  TYR465     -0.1241
    139  CA        20.3360    9.0430   23.5530 C.3   465  TYR465      0.1605
    140  C         20.4360    8.0980   24.7410 C.2   465  TYR465      0.2264
    141  O         19.6070    7.1910   24.8780 O.2   465  TYR465     -0.2867
    142  CB        20.6820    8.2170   22.2890 C.3   465  TYR465      0.0534
    143  CG        20.1720    8.7960   20.9960 C.ar  465  TYR465     -0.0201
    144  CD1       18.8680    8.5620   20.5720 C.ar  465  TYR465     -0.0009
    145  CD2       21.0050    9.5450   20.1700 C.ar  465  TYR465     -0.0009
    146  CE1       18.4160    9.0260   19.3350 C.ar  465  TYR465      0.0417
    147  CE2       20.5490   10.0580   18.9540 C.ar  465  TYR465      0.0417
    148  CZ        19.2580    9.7840   18.5370 C.ar  465  TYR465      0.1957
    149  OH        18.8120   10.2840   17.3480 O.3   465  TYR465     -0.2866
    150  N         17.7790    7.8130   28.6780 N.3   468  MET468     -0.1245
    151  CA        16.3500    7.4890   28.5780 C.3   468  MET468      0.1570
    152  C         15.6420    7.4020   29.9140 C.2   468  MET468      0.2261
    153  O         14.6350    8.0770   30.0950 O.2   468  MET468     -0.2867
    154  CB        16.0520    6.2580   27.6820 C.3   468  MET468      0.0387
    155  CG        16.4470    6.4390   26.1920 C.3   468  MET468      0.0595
    156  SD        15.8750    7.9890   25.3840 S.3   468  MET468     -0.1393
    157  CE        16.5180    7.7930   23.7290 C.3   468  MET468      0.0692
    158  N          9.1900   12.1850    6.8080 N.3   495  ASP495     -0.1239
    159  CA        10.1210   11.7750    7.8490 C.3   495  ASP495      0.1674
    160  C          9.5330   10.4260    8.2930 C.2   495  ASP495      0.2266
    161  O          8.4640   10.3920    8.8950 O.2   495  ASP495     -0.2867
    162  CB        10.1910   12.7870    9.0250 C.3   495  ASP495      0.1410
    163  CG        11.2450   12.4470   10.0440 C.2   495  ASP495      0.3668
    164  OD1       11.4900   11.2340   10.2690 O.co2 495  ASP495     -0.2456
    165  OD2       11.8300   13.3960   10.6390 O.co2 495  ASP495     -0.2456
    166  N         10.5600    8.2580   10.5080 N.3   497  VAL497     -0.1231
    167  CA        10.7190    7.9240   11.9150 C.3   497  VAL497      0.1692
    168  C          9.8000    8.8690   12.7360 C.2   497  VAL497      0.2591
    169  O          8.9200    8.3920   13.4770 O.2   497  VAL497     -0.2718
    170  CB        12.1900    7.9300   12.3830 C.3   497  VAL497      0.0266
    171  CG1       12.2920    7.7270   13.8930 C.3   497  VAL497      0.0020
    172  CG2       13.0020    6.8610   11.6360 C.3   497  VAL497      0.0020
    173  N          9.9970   10.1960   12.5730 N.am  498  LEU498     -0.1980
    174  CA         9.1660   11.2030   13.2430 C.3   498  LEU498      0.1596
    175  C          7.9820   11.4760   12.3170 C.2   498  LEU498      0.2287
    176  O          7.8860   12.5420   11.7140 O.2   498  LEU498     -0.2864
    177  CB         9.9900   12.4820   13.5680 C.3   498  LEU498      0.0297
    178  CG        11.2410   12.2470   14.4530 C.3   498  LEU498      0.0022
    179  CD1       12.0260   13.5590   14.6410 C.3   498  LEU498      0.0001
    180  CD2       10.8570   11.6310   15.8230 C.3   498  LEU498      0.0001
    181  N          2.4520   10.9160   14.6840 N.3   502  MET502     -0.1245
    182  CA         2.9670   10.8330   16.0510 C.3   502  MET502      0.1570
    183  C          2.5780   12.0970   16.8350 C.2   502  MET502      0.2261
    184  O          2.5510   12.0510   18.0730 O.2   502  MET502     -0.2867
    185  CB         4.5020   10.7720   16.0250 C.3   502  MET502      0.0387
    186  CG         5.0720    9.4090   16.1620 C.3   502  MET502      0.0595
    187  SD         6.8860    9.5550   16.2650 S.3   502  MET502     -0.1393
    188  CE         7.0930    9.7830   17.9510 C.3   502  MET502      0.0692
    189  N         13.4930   13.9350    6.8200 N.3   523  HIS523     -0.1226
    190  CA        13.9710   14.2580    8.1620 C.3   523  HIS523      0.1752
    191  C         14.7390   15.5650    8.2630 C.2   523  HIS523      0.2596
    192  O         14.6850   16.2130    9.3130 O.2   523  HIS523     -0.2718
    193  CB        14.8490   13.1130    8.7320 C.3   523  HIS523      0.0759
    194  CG        15.3060   13.3810   10.1350 C.ar  523  HIS523      0.0818
    195  ND1       14.4020   13.4430   11.1900 N.ar  523  HIS523     -0.2268
    196  CD2       16.5390   13.7200   10.5960 C.ar  523  HIS523      0.1154
    197  CE1       15.1160   13.7820   12.2570 C.ar  523  HIS523      0.1986
    198  NE2       16.4070   13.9540   11.9490 N.ar  523  HIS523     -0.2212
    199  N         15.5210   15.9130    7.2220 N.am  524  TRP524     -0.1976
    200  CA        16.4440   17.0740    7.2660 C.3   524  TRP524      0.1640
    201  C         15.7300   18.3260    6.8010 C.2   524  TRP524      0.2290
    202  O         16.1550   18.9830    5.8590 O.2   524  TRP524     -0.2864
    203  CB        17.7040   16.7500    6.4610 C.3   524  TRP524      0.0576
    204  CG        18.2290   15.3790    6.7530 C.ar  524  TRP524      0.0006
    205  CD1       18.0630   14.2570    5.9930 C.ar  524  TRP524      0.0946
    206  CD2       18.8970   14.9630    7.9450 C.ar  524  TRP524      0.0152
    207  NE1       18.5910   13.1650    6.6390 N.ar  524  TRP524     -0.2442
    208  CE2       19.1270   13.5700    7.8340 C.ar  524  TRP524      0.0810
    209  CE3       19.3530   15.6380    9.1000 C.ar  524  TRP524      0.0012
    210  CZ2       19.7630   12.8390    8.8340 C.ar  524  TRP524      0.0191
    211  CZ3       19.9710   14.9010   10.0960 C.ar  524  TRP524      0.0001
    212  CH2       20.2300   13.5330    9.9290 C.ar  524  TRP524      0.0015
@<TRIPOS>BOND
     1   114   115    1
     2   115   116    1
     3   115   118    1
     4   117   116    2
     5   106   107    1
     6   121   119    1
     7   109   108    2
     8   108   107    1
     9   202   201    2
    10   119   118    1
    11   119   120    1
    12   205   207   ar
    13   205   204   ar
    14   203   204    1
    15   203   200    1
    16   107   110    1
    17   207   208   ar
    18   204   206   ar
    19   201   200    1
    20   158   159    1
    21   189   190    1
    22   199   200    1
    23   199   191   am
    24   110   111    1
    25   208   206   ar
    26   208   210   ar
    27   159   160    1
    28   159   162    1
    29   133   132    2
    30   206   209   ar
    31   190   191    1
    32   190   193    1
    33   191   192    2
    34   160   161    2
    35   129   128    1
    36   122   123    1
    37   193   194    1
    38   132   131    1
    39   111   113    1
    40   111   112    1
    41   210   212   ar
    42   162   163    1
    43   209   211   ar
    44   212   211   ar
    45   123   126    1
    46   123   124    1
    47   163   164   ar
    48   163   165   ar
    49   194   196   ar
    50   194   195   ar
    51   128   127    1
    52   131   134    1
    53   131   130    1
    54   166   167    1
    55   126   127    1
    56   196   198   ar
    57   134   135    1
    58   124   125    2
    59   136   135    1
    60   195   197   ar
    61   135   137    1
    62   172   170    1
    63   176   175    2
    64   167   170    1
    65   167   168    1
    66   198   197   ar
    67   175   174    1
    68   170   171    1
    69    15    14    2
    70    18    17    1
    71    18    12    1
    72   173   168   am
    73   173   174    1
    74   168   169    2
    75    17    16    1
    76   174   177    1
    77   177   178    1
    78    14    13    1
    79     4     3    2
    80    12     3   am
    81    12    13    1
    82    16    13    1
    83     3     2    1
    84   178   179    1
    85   178   180    1
    86    78    79    1
    87    78    75    1
    88   181   182    1
    89    81    79   ar
    90    81    83   ar
    91    79    80   ar
    92    25    24   ar
    93    23    24    1
    94    23    20    1
    95     9     7   ar
    96     9    11   ar
    97    83    84   ar
    98     7     6   ar
    99    24    26   ar
   100    49    50    1
   101   105   103   ar
   102   105   104   ar
   103    19    20    1
   104    75    74    1
   105    75    76    1
   106    80    82   ar
   107    63    64    1
   108     2     1    1
   109     2     5    1
   110   103   101   ar
   111   185   182    1
   112   185   186    1
   113   182   183    1
   114    84    82   ar
   115    84    85    1
   116   186   187    1
   117    20    21    1
   118   187   188    1
   119    11    10   ar
   120     6     5    1
   121     6     8   ar
   122   104   102   ar
   123   183   184    2
   124    64    65    1
   125    64    67    1
   126    50    51    1
   127    50    53    1
   128    76    77    2
   129    76    86   am
   130    54    53    1
   131    65    66    2
   132   101   100   ar
   133   149   148    1
   134    10     8   ar
   135    71    69   ar
   136    71    73   ar
   137    62    56    1
   138    62    61    1
   139    69    68   ar
   140    51    56   am
   141    51    52    2
   142    73    72   ar
   143    21    27   am
   144    21    22    2
   145    53    55    1
   146    56    57    1
   147   102   100   ar
   148    68    67    1
   149    68    70   ar
   150    86    87    1
   151    61    60    1
   152    72    70   ar
   153    60    57    1
   154    27    28    1
   155   100    99    1
   156   148   147   ar
   157   148   146   ar
   158    57    58    1
   159   147   145   ar
   160    91    92    1
   161    91    90    1
   162    94    92   am
   163    87    90    1
   164    87    88    1
   165   146   144   ar
   166    95    96    1
   167    28    31    1
   168    28    29    1
   169    99    96    1
   170    92    93    2
   171    33    32   ar
   172    33    35   ar
   173    31    32    1
   174    96    97    1
   175    58    59    2
   176    29    30    2
   177   145   143   ar
   178    88    89    2
   179    32    34   ar
   180   144   143   ar
   181    35    36   ar
   182    41    42    1
   183   143   142    1
   184    97    98    2
   185    34    36   ar
   186    34    37   ar
   187    36    38   ar
   188    42    45    1
   189    42    43    1
   190   142   139    1
   191    45    46    1
   192    48    47    1
   193    37    39   ar
   194    38    40   ar
   195    43    44    2
   196   139   138    1
   197   139   140    1
   198    47    46    1
   199   157   156    1
   200    39    40   ar
   201   140   141    2
   202   156   155    1
   203   155   154    1
   204   154   151    1
   205   151   150    1
   206   151   152    1
   207   152   153    2
