@<TRIPOS>MOLECULE
tmp/5aiaA00.pdb
 184 180 0 0 0
SMALL
GASTEIGER

@<TRIPOS>ATOM
      1  N        -20.3590  -15.5700   15.9240 N.3   266  PHE266     -0.1228
      2  CA       -21.4370  -14.6060   15.7820 C.3   266  PHE266      0.1721
      3  C        -21.4910  -14.0250   14.4040 C.2   266  PHE266      0.2437
      4  O        -20.4600  -13.5060   13.9540 O.2   266  PHE266     -0.2733
      5  CB       -21.2330  -13.4500   16.7810 C.3   266  PHE266      0.0547
      6  CG       -22.2150  -12.3080   16.6500 C.ar  266  PHE266     -0.0202
      7  CD1      -23.3970  -12.3020   17.3710 C.ar  266  PHE266     -0.0042
      8  CD2      -21.9340  -11.2210   15.8450 C.ar  266  PHE266     -0.0042
      9  CE1      -24.2950  -11.2510   17.2590 C.ar  266  PHE266     -0.0003
     10  CE2      -22.8510  -10.1870   15.7100 C.ar  266  PHE266     -0.0003
     11  CZ       -24.0110  -10.1940   16.4440 C.ar  266  PHE266     -0.0000
     12  N        -22.6940  -13.9380   13.7640 N.am  267  PRO267     -0.2729
     13  CA       -24.0230  -14.4440   14.1670 C.3   267  PRO267      0.1401
     14  C        -24.2740  -15.7500   13.3990 C.2   267  PRO267      0.2269
     15  O        -24.8010  -15.7470   12.2700 O.2   267  PRO267     -0.2865
     16  CB       -24.9390  -13.2970   13.7030 C.3   267  PRO267      0.0296
     17  CG       -24.2020  -12.6770   12.4790 C.3   267  PRO267      0.0237
     18  CD       -22.7980  -13.2680   12.4550 C.3   267  PRO267      0.0939
     19  N        -14.3600  -17.7760   15.8580 N.3   334  ASP334     -0.1239
     20  CA       -14.8690  -16.4780   16.2840 C.3   334  ASP334      0.1674
     21  C        -15.1220  -16.5120   17.8100 C.2   334  ASP334      0.2266
     22  O        -14.1610  -16.7160   18.5490 O.2   334  ASP334     -0.2867
     23  CB       -16.0970  -16.0750   15.4270 C.3   334  ASP334      0.1410
     24  CG       -16.6040  -14.6730   15.6400 C.2   334  ASP334      0.3668
     25  OD1      -16.0000  -13.7330   15.0910 O.co2 334  ASP334     -0.2456
     26  OD2      -17.6050  -14.5200   16.3310 O.co2 334  ASP334     -0.2456
     27  N        -16.9790   -1.9920   15.8040 N.3   382  TYR382     -0.1241
     28  CA       -18.2400   -2.7110   15.7330 C.3   382  TYR382      0.1605
     29  C        -18.6060   -3.2930   17.1260 C.2   382  TYR382      0.2264
     30  O        -19.7710   -3.2300   17.4970 O.2   382  TYR382     -0.2867
     31  CB       -18.1870   -3.7750   14.6160 C.3   382  TYR382      0.0534
     32  CG       -17.4540   -5.0450   14.9860 C.ar  382  TYR382     -0.0201
     33  CD1      -16.0660   -5.0910   15.0070 C.ar  382  TYR382     -0.0009
     34  CD2      -18.1510   -6.2040   15.3250 C.ar  382  TYR382     -0.0009
     35  CE1      -15.3860   -6.2550   15.3600 C.ar  382  TYR382      0.0417
     36  CE2      -17.4830   -7.3690   15.6940 C.ar  382  TYR382      0.0417
     37  CZ       -16.0990   -7.3930   15.7040 C.ar  382  TYR382      0.1957
     38  OH       -15.4320   -8.5450   16.0480 O.3   382  TYR382     -0.2866
     39  N        -22.0680   -2.7310   19.5510 N.3   386  PHE386     -0.1241
     40  CA       -22.8090   -3.8760   20.0720 C.3   386  PHE386      0.1605
     41  C        -23.0410   -3.7300   21.5440 C.2   386  PHE386      0.2264
     42  O        -23.7800   -4.5350   22.1160 O.2   386  PHE386     -0.2867
     43  CB       -22.0310   -5.1730   19.8140 C.3   386  PHE386      0.0534
     44  CG       -22.0460   -5.7110   18.4060 C.ar  386  PHE386     -0.0203
     45  CD1      -22.7840   -5.0830   17.4060 C.ar  386  PHE386     -0.0042
     46  CD2      -21.3680   -6.8830   18.0870 C.ar  386  PHE386     -0.0042
     47  CE1      -22.8660   -5.6270   16.1300 C.ar  386  PHE386     -0.0003
     48  CE2      -21.4200   -7.4090   16.7900 C.ar  386  PHE386     -0.0003
     49  CZ       -22.1670   -6.7780   15.8210 C.ar  386  PHE386     -0.0000
     50  N        -23.7350   -9.9050    5.5800 N.3   407  LEU407     -0.1245
     51  CA       -22.6220  -10.4410    6.3700 C.3   407  LEU407      0.1561
     52  C        -21.8200  -11.5920    5.6970 C.2   407  LEU407      0.2260
     53  O        -20.6010  -11.4750    5.5420 O.2   407  LEU407     -0.2867
     54  CB       -23.1170  -10.8710    7.7600 C.3   407  LEU407      0.0270
     55  CG       -23.3050   -9.7580    8.7610 C.3   407  LEU407      0.0019
     56  CD1      -24.2450  -10.1950    9.8750 C.3   407  LEU407      0.0001
     57  CD2      -21.9630   -9.2770    9.3220 C.3   407  LEU407      0.0001
     58  N        -20.3060  -13.0350    3.1390 N.3   409  ARG409     -0.1231
     59  CA       -19.6820  -12.6620    1.8760 C.3   409  ARG409      0.1694
     60  C        -18.1760  -12.9430    1.9170 C.2   409  ARG409      0.2592
     61  O        -17.5570  -12.8530    2.9720 O.2   409  ARG409     -0.2718
     62  CB       -19.8950  -11.1570    1.6130 C.3   409  ARG409      0.0321
     63  CG       -21.3090  -10.6010    1.8540 C.3   409  ARG409      0.0489
     64  CD       -21.5360   -9.2540    1.1850 C.3   409  ARG409      0.2205
     65  NE       -21.4930   -9.3600   -0.2750 N.pl3 409  ARG409     -0.0865
     66  CZ       -22.5430   -9.6350   -1.0410 C.cat 409  ARG409      0.5346
     67  NH1      -23.7420   -9.8150   -0.5000 N.pl3 409  ARG409      0.1354
     68  NH2      -22.4010   -9.7380   -2.3520 N.pl3 409  ARG409      0.1354
     69  N        -17.5860  -13.2870    0.7670 N.am  410  ALA410     -0.1966
     70  CA       -16.1440  -13.5090    0.6630 C.3   410  ALA410      0.1728
     71  C        -15.3980  -12.1480    0.6270 C.2   410  ALA410      0.2616
     72  O        -15.9810  -11.1260    0.2310 O.2   410  ALA410     -0.2715
     73  CB       -15.8340  -14.3110   -0.5820 C.3   410  ALA410      0.0334
     74  N        -14.1110  -12.1540    1.0550 N.am  411  SER411     -0.1950
     75  CA       -13.2030  -11.0020    1.1730 C.3   411  SER411      0.1924
     76  C        -13.4080   -9.8650    0.1620 C.2   411  SER411      0.2314
     77  O        -13.6160   -8.7200    0.5740 O.2   411  SER411     -0.2863
     78  CB       -11.7450  -11.4540    1.2120 C.3   411  SER411      0.2116
     79  OG       -11.4480  -12.4590    0.2520 O.3   411  SER411     -0.2180
     80  N        -17.1560   -8.0600   -0.0160 N.3   414  SER414     -0.1217
     81  CA       -17.4650   -7.2800    1.1820 C.3   414  SER414      0.1889
     82  C        -18.1160   -5.9420    0.8890 C.2   414  SER414      0.2288
     83  O        -17.5850   -5.1440    0.1070 O.2   414  SER414     -0.2866
     84  CB       -16.2220   -7.1070    2.0490 C.3   414  SER414      0.2089
     85  OG       -15.1070   -6.6350    1.3070 O.3   414  SER414     -0.2183
     86  N        -19.5130   -4.2460    3.6440 N.3   416  LEU416     -0.1245
     87  CA       -19.4330   -3.6660    4.9730 C.3   416  LEU416      0.1561
     88  C        -18.3010   -2.6570    5.0980 C.2   416  LEU416      0.2260
     89  O        -17.2860   -2.7700    4.4040 O.2   416  LEU416     -0.2867
     90  CB       -19.2390   -4.7930    5.9900 C.3   416  LEU416      0.0270
     91  CG       -20.3630   -4.9340    7.0010 C.3   416  LEU416      0.0019
     92  CD1      -20.6170   -6.3790    7.3170 C.3   416  LEU416      0.0001
     93  CD2      -20.0590   -4.1600    8.2520 C.3   416  LEU416      0.0001
     94  N        -16.7200   -0.9280    8.6110 N.3   418  MET418     -0.1245
     95  CA       -15.8950   -1.2790    9.7850 C.3   418  MET418      0.1570
     96  C        -14.7040   -0.3600   10.0470 C.2   418  MET418      0.2261
     97  O        -13.5360   -0.7560   10.1180 O.2   418  MET418     -0.2867
     98  CB       -15.6120   -2.7770    9.9440 C.3   418  MET418      0.0387
     99  CG       -16.8750   -3.5750   10.1260 C.3   418  MET418      0.0595
    100  SD       -16.5620   -5.3330   10.0310 S.3   418  MET418     -0.1393
    101  CE       -16.1240   -5.6190   11.6630 C.3   418  MET418      0.0692
    102  N        -23.9820   -1.1110   11.1790 N.3   427  LEU427     -0.1245
    103  CA       -23.1840   -2.0030   10.3340 C.3   427  LEU427      0.1561
    104  C        -23.5930   -1.9570    8.8600 C.2   427  LEU427      0.2260
    105  O        -22.7380   -2.1040    8.0030 O.2   427  LEU427     -0.2867
    106  CB       -23.2970   -3.4650   10.8150 C.3   427  LEU427      0.0270
    107  CG       -22.5590   -3.8900   12.0750 C.3   427  LEU427      0.0019
    108  CD1      -23.1650   -5.1620   12.6320 C.3   427  LEU427      0.0001
    109  CD2      -21.0820   -4.1380   11.8040 C.3   427  LEU427      0.0001
    110  N        -20.7710  -10.3520   23.7100 N.3   465  TYR465     -0.1241
    111  CA       -19.9010   -9.1610   23.5900 C.3   465  TYR465      0.1605
    112  C        -20.0810   -8.1690   24.7170 C.2   465  TYR465      0.2264
    113  O        -19.3110   -7.2210   24.8390 O.2   465  TYR465     -0.2867
    114  CB       -20.2550   -8.3880   22.3320 C.3   465  TYR465      0.0534
    115  CG       -19.9100   -9.0290   21.0180 C.ar  465  TYR465     -0.0201
    116  CD1      -18.6880   -8.7700   20.3950 C.ar  465  TYR465     -0.0009
    117  CD2      -20.8620   -9.7560   20.3070 C.ar  465  TYR465     -0.0009
    118  CE1      -18.4060   -9.2580   19.1180 C.ar  465  TYR465      0.0417
    119  CE2      -20.5930  -10.2480   19.0300 C.ar  465  TYR465      0.0417
    120  CZ       -19.3680   -9.9830   18.4330 C.ar  465  TYR465      0.1957
    121  OH       -19.0860  -10.4980   17.1920 O.3   465  TYR465     -0.2866
    122  N         -7.3420  -12.9660    4.9520 N.3   494  LYS494     -0.1231
    123  CA        -8.1690  -11.7840    4.6840 C.3   494  LYS494      0.1693
    124  C         -9.2400  -11.4760    5.7410 C.2   494  LYS494      0.2592
    125  O        -10.2230  -10.7920    5.4530 O.2   494  LYS494     -0.2718
    126  CB        -8.7030  -11.8180    3.2390 C.3   494  LYS494      0.0285
    127  CG        -7.5610  -11.8610    2.2090 C.3   494  LYS494      0.0035
    128  CD        -7.9770  -11.6010    0.7730 C.3   494  LYS494      0.0206
    129  CE        -6.7420  -11.5640   -0.1100 C.3   494  LYS494      0.1093
    130  NZ        -7.0400  -11.2010   -1.5270 N.3   494  LYS494     -0.1314
    131  N         -9.0290  -11.9510    6.9790 N.am  495  ASP495     -0.1960
    132  CA        -9.9220  -11.6440    8.0960 C.3   495  ASP495      0.1840
    133  C         -9.4180  -10.3040    8.6330 C.2   495  ASP495      0.2622
    134  O         -8.3310  -10.2280    9.2080 O.2   495  ASP495     -0.2715
    135  CB        -9.8870  -12.7360    9.1820 C.3   495  ASP495      0.1450
    136  CG       -10.9310  -12.5790   10.2820 C.2   495  ASP495      0.3671
    137  OD1      -11.2120  -11.4250   10.6860 O.co2 495  ASP495     -0.2456
    138  OD2      -11.4000  -13.6080   10.7970 O.co2 495  ASP495     -0.2456
    139  N        -10.2140   -9.2580    8.4120 N.am  496  PHE496     -0.1960
    140  CA        -9.9060   -7.8730    8.7170 C.3   496  PHE496      0.1771
    141  C        -10.0220   -7.4830   10.1710 C.2   496  PHE496      0.2619
    142  O         -9.4740   -6.4510   10.5620 O.2   496  PHE496     -0.2715
    143  CB       -10.6670   -6.9210    7.7650 C.3   496  PHE496      0.0574
    144  CG       -10.4380   -7.1420    6.2780 C.ar  496  PHE496     -0.0200
    145  CD1       -9.2210   -7.6370    5.8030 C.ar  496  PHE496     -0.0042
    146  CD2      -11.4240   -6.8140    5.3470 C.ar  496  PHE496     -0.0042
    147  CE1       -9.0140   -7.8500    4.4280 C.ar  496  PHE496     -0.0003
    148  CE2      -11.2010   -6.9830    3.9690 C.ar  496  PHE496     -0.0003
    149  CZ       -10.0060   -7.5220    3.5210 C.ar  496  PHE496     -0.0000
    150  N        -10.6770   -8.3240   10.9840 N.am  497  VAL497     -0.1977
    151  CA       -10.8180   -8.1250   12.4300 C.3   497  VAL497      0.1596
    152  C         -9.8460   -9.0610   13.1650 C.2   497  VAL497      0.2287
    153  O         -8.9850   -8.5830   13.8900 O.2   497  VAL497     -0.2864
    154  CB       -12.2840   -8.3140   12.8920 C.3   497  VAL497      0.0276
    155  CG1      -12.4020   -8.3920   14.4140 C.3   497  VAL497      0.0022
    156  CG2      -13.1460   -7.1950   12.3540 C.3   497  VAL497      0.0022
    157  N        -11.3460  -15.1050    4.2020 N.3   522  GLY522     -0.1210
    158  CA       -11.9530  -14.1080    5.0660 C.3   522  GLY522      0.1956
    159  C        -12.4290  -14.7240    6.3600 C.2   522  GLY522      0.2612
    160  O        -12.0740  -15.8670    6.6650 O.2   522  GLY522     -0.2717
    161  N        -13.2420  -13.9570    7.1270 N.am  523  HIS523     -0.1961
    162  CA       -13.8160  -14.3090    8.4300 C.3   523  HIS523      0.1787
    163  C        -14.6710  -15.5880    8.4830 C.2   523  HIS523      0.2620
    164  O        -14.7440  -16.2210    9.5520 O.2   523  HIS523     -0.2715
    165  CB       -14.6380  -13.1290    8.9980 C.3   523  HIS523      0.0785
    166  CG       -15.0500  -13.3410   10.4220 C.ar  523  HIS523      0.0821
    167  ND1      -16.2990  -13.8330   10.7420 N.ar  523  HIS523     -0.2267
    168  CD2      -14.3280  -13.2080   11.5540 C.ar  523  HIS523      0.1154
    169  CE1      -16.3170  -13.9450   12.0550 C.ar  523  HIS523      0.1986
    170  NE2      -15.1530  -13.5750   12.5910 N.ar  523  HIS523     -0.2212
    171  N        -15.3440  -15.9450    7.3590 N.am  524  TRP524     -0.1974
    172  CA       -16.2600  -17.1010    7.3010 C.3   524  TRP524      0.1640
    173  C        -15.5250  -18.3510    6.8220 C.2   524  TRP524      0.2290
    174  O        -15.9470  -19.0370    5.8740 O.2   524  TRP524     -0.2864
    175  CB       -17.5160  -16.7730    6.4640 C.3   524  TRP524      0.0576
    176  CG       -17.9840  -15.3600    6.6350 C.ar  524  TRP524      0.0006
    177  CD1      -17.7910  -14.3260    5.7670 C.ar  524  TRP524      0.0946
    178  CD2      -18.6090  -14.7960    7.7990 C.ar  524  TRP524      0.0152
    179  NE1      -18.2880  -13.1640    6.2960 N.ar  524  TRP524     -0.2442
    180  CE2      -18.8000  -13.4200    7.5430 C.ar  524  TRP524      0.0810
    181  CE3      -19.0910  -15.3320    9.0050 C.ar  524  TRP524      0.0012
    182  CZ2      -19.4220  -12.5680    8.4630 C.ar  524  TRP524      0.0191
    183  CZ3      -19.7160  -14.4880    9.9060 C.ar  524  TRP524      0.0001
    184  CH2      -19.8730  -13.1240    9.6360 C.ar  524  TRP524      0.0015
@<TRIPOS>BOND
     1    68    66    1
     2   130   129    1
     3    66    67    1
     4    66    65    2
     5    73    70    1
     6    65    64    1
     7   129   128    1
     8    80    81    1
     9    83    82    2
    10    76    77    2
    11    76    75    1
    12    72    71    2
    13    79    78    1
    14    71    70    1
    15    71    74   am
    16    70    69    1
    17    69    60   am
    18   128   127    1
    19    82    81    1
    20    74    75    1
    21    75    78    1
    22    81    84    1
    23    64    63    1
    24    85    84    1
    25    62    63    1
    26    62    59    1
    27    59    60    1
    28    59    58    1
    29    60    61    2
    30   127   126    1
    31   126   123    1
    32   149   148   ar
    33   149   147   ar
    34    86    87    1
    35   148   146   ar
    36   157   158    1
    37    89    88    2
    38   147   145   ar
    39   123   122    1
    40   123   124    1
    41    87    88    1
    42    87    90    1
    43   158   159    1
    44   146   144   ar
    45   125   124    2
    46    53    52    2
    47    50    51    1
    48    52    51    1
    49   124   131   am
    50   177   179   ar
    51   177   176   ar
    52   145   144   ar
    53   174   173    2
    54    90    91    1
    55   144   143    1
    56   179   180   ar
    57   159   160    2
    58   159   161   am
    59    51    54    1
    60   175   176    1
    61   175   172    1
    62   176   178   ar
    63   173   172    1
    64   131   132    1
    65    91    92    1
    66    91    93    1
    67   161   162    1
    68   172   171    1
    69   171   163   am
    70   180   178   ar
    71   180   182   ar
    72    54    55    1
    73   143   140    1
    74   178   181   ar
    75   105   104    2
    76   132   133    1
    77   132   135    1
    78   139   133   am
    79   139   140    1
    80   162   163    1
    81   162   165    1
    82   182   184   ar
    83   163   164    2
    84    94    95    1
    85   133   134    2
    86   140   141    1
    87    55    57    1
    88    55    56    1
    89   104   103    1
    90   165   166    1
    91   181   183   ar
    92   135   136    1
    93   184   183   ar
    94    95    98    1
    95    95    96    1
    96    98    99    1
    97   100    99    1
    98   100   101    1
    99    96    97    2
   100   141   142    2
   101   141   150   am
   102   136   137   ar
   103   136   138   ar
   104   103   106    1
   105   103   102    1
   106   166   167   ar
   107   166   168   ar
   108   167   169   ar
   109   106   107    1
   110   150   151    1
   111   168   170   ar
   112   109   107    1
   113   169   170   ar
   114   107   108    1
   115    15    14    2
   116   156   154    1
   117   151   154    1
   118   151   152    1
   119    18    17    1
   120    18    12    1
   121    17    16    1
   122   154   155    1
   123   152   153    2
   124    14    13    1
   125    16    13    1
   126    12    13    1
   127    12     3   am
   128     4     3    2
   129     3     2    1
   130    31    32    1
   131    31    28    1
   132    32    33   ar
   133    32    34   ar
   134    33    35   ar
   135    25    24   ar
   136    34    36   ar
   137    35    37   ar
   138    23    24    1
   139    23    20    1
   140    24    26   ar
   141    36    37   ar
   142    37    38    1
   143    10     8   ar
   144    10    11   ar
   145    28    27    1
   146    28    29    1
   147     2     1    1
   148     2     5    1
   149    49    47   ar
   150    49    48   ar
   151     8     6   ar
   152    19    20    1
   153    47    45   ar
   154    20    21    1
   155    11     9   ar
   156     6     5    1
   157     6     7   ar
   158    48    46   ar
   159    29    30    2
   160   121   120    1
   161     9     7   ar
   162    45    44   ar
   163    21    22    2
   164    46    44   ar
   165    44    43    1
   166   120   119   ar
   167   120   118   ar
   168   119   117   ar
   169   118   116   ar
   170    39    40    1
   171    43    40    1
   172    40    41    1
   173   117   115   ar
   174   116   115   ar
   175   115   114    1
   176    41    42    2
   177   114   111    1
   178   111   110    1
   179   111   112    1
   180   112   113    2
