@<TRIPOS>MOLECULE
tmp/5aibA00.pdb
 168 164 0 0 0
SMALL
GASTEIGER

@<TRIPOS>ATOM
      1  N         20.4380  -15.7310  -16.1520 N.3   266  PHE266     -0.1228
      2  CA        21.5140  -14.7830  -16.0020 C.3   266  PHE266      0.1721
      3  C         21.6420  -14.2750  -14.5560 C.2   266  PHE266      0.2437
      4  O         20.6490  -13.7990  -13.9880 O.2   266  PHE266     -0.2733
      5  CB        21.2760  -13.5590  -16.9300 C.3   266  PHE266      0.0547
      6  CG        22.3290  -12.4780  -16.7910 C.ar  266  PHE266     -0.0202
      7  CD1       22.1890  -11.4580  -15.8490 C.ar  266  PHE266     -0.0042
      8  CD2       23.4520  -12.4680  -17.6110 C.ar  266  PHE266     -0.0042
      9  CE1       23.1890  -10.4860  -15.6890 C.ar  266  PHE266     -0.0003
     10  CE2       24.4370  -11.4760  -17.4700 C.ar  266  PHE266     -0.0003
     11  CZ        24.3040  -10.5020  -16.5050 C.ar  266  PHE266     -0.0000
     12  N         22.8690  -14.1980  -14.0050 N.am  267  PRO267     -0.2729
     13  CA        24.1830  -14.6490  -14.5230 C.3   267  PRO267      0.1401
     14  C         24.5320  -15.9130  -13.7460 C.2   267  PRO267      0.2269
     15  O         25.1210  -15.8670  -12.6560 O.2   267  PRO267     -0.2865
     16  CB        25.0940  -13.4680  -14.1550 C.3   267  PRO267      0.0296
     17  CG        24.3640  -12.7560  -12.9490 C.3   267  PRO267      0.0237
     18  CD        23.0590  -13.5190  -12.7150 C.3   267  PRO267      0.0939
     19  N         14.5160  -17.8250  -15.9550 N.3   334  ASP334     -0.1239
     20  CA        15.0130  -16.5140  -16.4110 C.3   334  ASP334      0.1674
     21  C         15.3260  -16.5410  -17.9360 C.2   334  ASP334      0.2266
     22  O         14.4130  -16.8600  -18.6860 O.2   334  ASP334     -0.2867
     23  CB        16.1720  -16.0300  -15.4980 C.3   334  ASP334      0.1410
     24  CG        16.7390  -14.6780  -15.8890 C.2   334  ASP334      0.3668
     25  OD1       16.1020  -13.6520  -15.5600 O.co2 334  ASP334     -0.2456
     26  OD2       17.7460  -14.6520  -16.6320 O.co2 334  ASP334     -0.2456
     27  N         17.2080   -2.2430  -15.8440 N.3   382  TYR382     -0.1241
     28  CA        18.4910   -2.9630  -15.7980 C.3   382  TYR382      0.1605
     29  C         18.8670   -3.5040  -17.2000 C.2   382  TYR382      0.2264
     30  O         20.0400   -3.4750  -17.5650 O.2   382  TYR382     -0.2867
     31  CB        18.4540   -4.0860  -14.7450 C.3   382  TYR382      0.0534
     32  CG        17.6720   -5.3130  -15.1550 C.ar  382  TYR382     -0.0201
     33  CD1       16.2840   -5.3510  -15.0440 C.ar  382  TYR382     -0.0009
     34  CD2       18.3210   -6.4520  -15.6260 C.ar  382  TYR382     -0.0009
     35  CE1       15.5590   -6.4850  -15.4160 C.ar  382  TYR382      0.0417
     36  CE2       17.6080   -7.5860  -16.0110 C.ar  382  TYR382      0.0417
     37  CZ        16.2280   -7.6060  -15.8940 C.ar  382  TYR382      0.1957
     38  OH        15.5320   -8.7450  -16.2560 O.3   382  TYR382     -0.2866
     39  N         22.3150   -2.8310  -19.5310 N.3   386  PHE386     -0.1241
     40  CA        23.0570   -3.9660  -20.1030 C.3   386  PHE386      0.1605
     41  C         23.3340   -3.8260  -21.6020 C.2   386  PHE386      0.2264
     42  O         24.1130   -4.6200  -22.1430 O.2   386  PHE386     -0.2867
     43  CB        22.2800   -5.2750  -19.8410 C.3   386  PHE386      0.0534
     44  CG        22.2870   -5.8190  -18.4290 C.ar  386  PHE386     -0.0203
     45  CD1       23.0380   -5.2050  -17.4260 C.ar  386  PHE386     -0.0042
     46  CD2       21.5530   -6.9540  -18.1030 C.ar  386  PHE386     -0.0042
     47  CE1       23.0510   -5.7190  -16.1280 C.ar  386  PHE386     -0.0003
     48  CE2       21.5570   -7.4600  -16.8010 C.ar  386  PHE386     -0.0003
     49  CZ        22.3050   -6.8390  -15.8190 C.ar  386  PHE386     -0.0000
     50  N         23.7620   -9.9080   -5.9380 N.3   407  LEU407     -0.1245
     51  CA        22.6440  -10.4090   -6.7650 C.3   407  LEU407      0.1561
     52  C         21.8260  -11.4890   -6.0920 C.2   407  LEU407      0.2260
     53  O         20.5870  -11.4500   -6.1270 O.2   407  LEU407     -0.2867
     54  CB        23.1930  -10.9640   -8.0980 C.3   407  LEU407      0.0270
     55  CG        23.7960   -9.9620   -9.0570 C.3   407  LEU407      0.0019
     56  CD1       24.6150  -10.6810  -10.1070 C.3   407  LEU407      0.0001
     57  CD2       22.7240   -9.1120   -9.7060 C.3   407  LEU407      0.0001
     58  N         20.2220  -12.9100   -3.3830 N.3   409  ARG409     -0.1245
     59  CA        19.6390  -12.5530   -2.0890 C.3   409  ARG409      0.1563
     60  C         18.1530  -12.8850   -2.1360 C.2   409  ARG409      0.2260
     61  O         17.5520  -12.8040   -3.2160 O.2   409  ARG409     -0.2867
     62  CB        19.7820  -11.0290   -1.8460 C.3   409  ARG409      0.0307
     63  CG        21.2030  -10.4700   -2.0470 C.3   409  ARG409      0.0489
     64  CD        21.4360   -9.1080   -1.4210 C.3   409  ARG409      0.2205
     65  NE        21.3890   -9.1580    0.0470 N.pl3 409  ARG409     -0.0865
     66  CZ        22.4300   -9.4540    0.8250 C.cat 409  ARG409      0.5346
     67  NH1       23.6170   -9.7110    0.2820 N.pl3 409  ARG409      0.1354
     68  NH2       22.2920   -9.5000    2.1440 N.pl3 409  ARG409      0.1354
     69  N         17.1330   -8.0900   -0.0620 N.3   414  SER414     -0.1217
     70  CA        17.5590   -7.2570   -1.1940 C.3   414  SER414      0.1889
     71  C         18.3710   -6.0070   -0.9020 C.2   414  SER414      0.2288
     72  O         18.1670   -5.3370    0.1120 O.2   414  SER414     -0.2866
     73  CB        16.4210   -7.0460   -2.1840 C.3   414  SER414      0.2089
     74  OG        16.2020   -8.2210   -2.9560 O.3   414  SER414     -0.2183
     75  N         19.6360   -4.5430   -4.1240 N.3   416  LEU416     -0.1245
     76  CA        19.5470   -3.9710   -5.4670 C.3   416  LEU416      0.1561
     77  C         18.1520   -3.6450   -5.9480 C.2   416  LEU416      0.2260
     78  O         17.3170   -4.5390   -6.0930 O.2   416  LEU416     -0.2867
     79  CB        20.2610   -4.8550   -6.5100 C.3   416  LEU416      0.0270
     80  CG        21.5750   -5.5230   -6.1130 C.3   416  LEU416      0.0019
     81  CD1       22.0210   -6.4870   -7.1660 C.3   416  LEU416      0.0001
     82  CD2       22.6690   -4.5030   -5.8540 C.3   416  LEU416      0.0001
     83  N         16.1630   -2.5190   -9.0810 N.3   418  MET418     -0.1245
     84  CA        16.3750   -2.5940  -10.5320 C.3   418  MET418      0.1570
     85  C         15.7150   -1.5240  -11.4170 C.2   418  MET418      0.2261
     86  O         15.7540   -1.6100  -12.6550 O.2   418  MET418     -0.2867
     87  CB        16.2340   -4.0240  -11.0570 C.3   418  MET418      0.0387
     88  CG        17.5320   -4.7810  -10.9500 C.3   418  MET418      0.0595
     89  SD        17.3050   -6.5320  -10.6740 S.3   418  MET418     -0.1393
     90  CE        16.8910   -6.5380   -8.9230 C.3   418  MET418      0.0692
     91  N         24.2940   -1.1650  -11.1930 N.3   427  LEU427     -0.1245
     92  CA        23.5180   -2.0560  -10.3170 C.3   427  LEU427      0.1561
     93  C         23.9090   -1.9360   -8.8610 C.2   427  LEU427      0.2260
     94  O         23.0560   -2.1170   -7.9960 O.2   427  LEU427     -0.2867
     95  CB        23.6930   -3.5470  -10.7280 C.3   427  LEU427      0.0270
     96  CG        22.6500   -4.2250  -11.6380 C.3   427  LEU427      0.0019
     97  CD1       21.2300   -4.0730  -11.1220 C.3   427  LEU427      0.0001
     98  CD2       22.7610   -3.7570  -13.0540 C.3   427  LEU427      0.0001
     99  N         21.1350  -10.4330  -23.6610 N.3   465  TYR465     -0.1241
    100  CA        20.2760   -9.2390  -23.6120 C.3   465  TYR465      0.1605
    101  C         20.4600   -8.3110  -24.8030 C.2   465  TYR465      0.2264
    102  O         19.6730   -7.3760  -24.9580 O.2   465  TYR465     -0.2867
    103  CB        20.6090   -8.4120  -22.3530 C.3   465  TYR465      0.0534
    104  CG        20.1880   -9.0200  -21.0420 C.ar  465  TYR465     -0.0201
    105  CD1       18.9070   -8.8200  -20.5400 C.ar  465  TYR465     -0.0009
    106  CD2       21.0820   -9.7710  -20.2800 C.ar  465  TYR465     -0.0009
    107  CE1       18.5230   -9.3500  -19.3100 C.ar  465  TYR465      0.0417
    108  CE2       20.7100  -10.3040  -19.0490 C.ar  465  TYR465      0.0417
    109  CZ        19.4330  -10.0880  -18.5670 C.ar  465  TYR465      0.1957
    110  OH        19.0710  -10.6400  -17.3690 O.3   465  TYR465     -0.2866
    111  N          9.0120  -12.3100   -7.1060 N.3   495  ASP495     -0.1225
    112  CA         9.9650  -11.9090   -8.1440 C.3   495  ASP495      0.1805
    113  C          9.3750  -10.5740   -8.6600 C.2   495  ASP495      0.2598
    114  O          8.3020  -10.5830   -9.2440 O.2   495  ASP495     -0.2718
    115  CB        10.0820  -12.9620   -9.2800 C.3   495  ASP495      0.1424
    116  CG        11.1640  -12.6410  -10.2970 C.2   495  ASP495      0.3668
    117  OD1       11.4520  -11.4420  -10.5030 O.co2 495  ASP495     -0.2456
    118  OD2       11.7080  -13.5920  -10.9110 O.co2 495  ASP495     -0.2456
    119  N         10.0410   -9.4360   -8.3860 N.am  496  PHE496     -0.1962
    120  CA         9.5150   -8.1230   -8.7690 C.3   496  PHE496      0.1771
    121  C          9.7970   -7.7000  -10.1880 C.2   496  PHE496      0.2619
    122  O          9.2670   -6.6870  -10.6420 O.2   496  PHE496     -0.2715
    123  CB         9.8540   -7.0460   -7.7180 C.3   496  PHE496      0.0574
    124  CG         9.3820   -7.4320   -6.3300 C.ar  496  PHE496     -0.0200
    125  CD1        8.0300   -7.6720   -6.0730 C.ar  496  PHE496     -0.0042
    126  CD2       10.2870   -7.5800   -5.2860 C.ar  496  PHE496     -0.0042
    127  CE1        7.5950   -8.0520   -4.7890 C.ar  496  PHE496     -0.0003
    128  CE2        9.8530   -7.9670   -4.0040 C.ar  496  PHE496     -0.0003
    129  CZ         8.5120   -8.1960   -3.7640 C.ar  496  PHE496     -0.0000
    130  N         10.5710   -8.5170  -10.9200 N.am  497  VAL497     -0.1963
    131  CA        10.8830   -8.2930  -12.3320 C.3   497  VAL497      0.1727
    132  C          9.9930   -9.2410  -13.1590 C.2   497  VAL497      0.2616
    133  O          9.1670   -8.7810  -13.9520 O.2   497  VAL497     -0.2715
    134  CB        12.3960   -8.4650  -12.6120 C.3   497  VAL497      0.0290
    135  CG1       12.6970   -8.4150  -14.1060 C.3   497  VAL497      0.0023
    136  CG2       13.2020   -7.4090  -11.8620 C.3   497  VAL497      0.0023
    137  N         10.1280  -10.5580  -12.9310 N.am  498  LEU498     -0.1977
    138  CA         9.2940  -11.5510  -13.6150 C.3   498  LEU498      0.1596
    139  C          8.1330  -11.8360  -12.6900 C.2   498  LEU498      0.2287
    140  O          8.0990  -12.8580  -12.0000 O.2   498  LEU498     -0.2864
    141  CB        10.1050  -12.8220  -13.9590 C.3   498  LEU498      0.0297
    142  CG        11.3870  -12.5920  -14.7810 C.3   498  LEU498      0.0022
    143  CD1       12.1410  -13.8950  -14.9600 C.3   498  LEU498      0.0001
    144  CD2       11.0760  -11.9800  -16.1640 C.3   498  LEU498      0.0001
    145  N         13.3770  -14.0350   -7.1120 N.3   523  HIS523     -0.1226
    146  CA        13.8500  -14.3660   -8.4550 C.3   523  HIS523      0.1752
    147  C         14.6780  -15.6260   -8.5440 C.2   523  HIS523      0.2596
    148  O         14.6190  -16.3010   -9.5680 O.2   523  HIS523     -0.2718
    149  CB        14.6630  -13.1940   -9.0430 C.3   523  HIS523      0.0759
    150  CG        15.2100  -13.4610  -10.4190 C.ar  523  HIS523      0.0818
    151  ND1       14.4060  -13.3850  -11.5420 N.ar  523  HIS523     -0.2268
    152  CD2       16.4590  -13.8400  -10.7990 C.ar  523  HIS523      0.1154
    153  CE1       15.1800  -13.7360  -12.5600 C.ar  523  HIS523      0.1986
    154  NE2       16.4260  -13.9990  -12.1640 N.ar  523  HIS523     -0.2212
    155  N         15.4840  -15.9230   -7.5170 N.am  524  TRP524     -0.1976
    156  CA        16.4050  -17.0710   -7.5320 C.3   524  TRP524      0.1640
    157  C         15.7110  -18.3100   -7.0340 C.2   524  TRP524      0.2290
    158  O         16.1610  -18.9580   -6.0960 O.2   524  TRP524     -0.2864
    159  CB        17.6700  -16.7250   -6.7420 C.3   524  TRP524      0.0576
    160  CG        18.1640  -15.3470   -7.0500 C.ar  524  TRP524      0.0006
    161  CD1       17.9920  -14.2230   -6.2950 C.ar  524  TRP524      0.0946
    162  CD2       18.8390  -14.9260   -8.2460 C.ar  524  TRP524      0.0152
    163  NE1       18.5280  -13.1320   -6.9390 N.ar  524  TRP524     -0.2442
    164  CE2       19.0850  -13.5410   -8.1250 C.ar  524  TRP524      0.0810
    165  CE3       19.2930  -15.5960   -9.3960 C.ar  524  TRP524      0.0012
    166  CZ2       19.7530  -12.8090   -9.1160 C.ar  524  TRP524      0.0191
    167  CZ3       19.9310  -14.8660  -10.3810 C.ar  524  TRP524      0.0001
    168  CH2       20.1770  -13.4970  -10.2300 C.ar  524  TRP524      0.0015
@<TRIPOS>BOND
     1   102   101    2
     2   101   100    1
     3    99   100    1
     4   100   103    1
     5   103   104    1
     6    42    41    2
     7    41    40    1
     8   104   105   ar
     9   104   106   ar
    10   105   107   ar
    11   106   108   ar
    12    40    43    1
    13    40    39    1
    14    43    44    1
    15   107   109   ar
    16   108   109   ar
    17    22    21    2
    18   109   110    1
    19    44    46   ar
    20    44    45   ar
    21    46    48   ar
    22    21    20    1
    23     8    10   ar
    24     8     6   ar
    25    30    29    2
    26    10    11   ar
    27    45    47   ar
    28    29    28    1
    29     5     6    1
    30     5     2    1
    31    48    49   ar
    32     6     7   ar
    33    26    24   ar
    34    11     9   ar
    35    20    19    1
    36    20    23    1
    37    38    37    1
    38   144   142    1
    39     1     2    1
    40    47    49   ar
    41    36    37   ar
    42    36    34   ar
    43     2     3    1
    44    37    35   ar
    45    24    25   ar
    46    24    23    1
    47     7     9   ar
    48    27    28    1
    49    28    31    1
    50    34    32   ar
    51    35    33   ar
    52    32    33   ar
    53    32    31    1
    54   143   142    1
    55   142   141    1
    56     3    12   am
    57     3     4    2
    58    13    16    1
    59    13    12    1
    60    13    14    1
    61    16    17    1
    62   135   134    1
    63    12    18    1
    64   141   138    1
    65   133   132    2
    66    14    15    2
    67   138   137    1
    68   138   139    1
    69   132   137   am
    70   132   131    1
    71    98    96    1
    72    17    18    1
    73   139   140    2
    74    86    85    2
    75   134   131    1
    76   134   136    1
    77   153   154   ar
    78   153   151   ar
    79   131   130    1
    80   154   152   ar
    81    96    97    1
    82    96    95    1
    83   151   150   ar
    84    85    84    1
    85    91    92    1
    86    87    88    1
    87    87    84    1
    88    88    89    1
    89   130   121   am
    90   118   116   ar
    91   152   150   ar
    92    95    92    1
    93    89    90    1
    94   122   121    2
    95    84    83    1
    96   117   116   ar
    97   150   149    1
    98   167   168   ar
    99   167   165   ar
   100    92    93    1
   101   116   115    1
   102   168   166   ar
   103   121   120    1
   104    56    55    1
   105    57    55    1
   106   148   147    2
   107   165   162   ar
   108   115   112    1
   109   114   113    2
   110   166   164   ar
   111    55    54    1
   112   149   146    1
   113    93    94    2
   114   120   119    1
   115   120   123    1
   116   113   119   am
   117   113   112    1
   118   147   146    1
   119   147   155   am
   120   146   145    1
   121   162   164   ar
   122   162   160   ar
   123   112   111    1
   124   164   163   ar
   125    54    51    1
   126   123   124    1
   127   156   155    1
   128   156   157    1
   129   156   159    1
   130    81    80    1
   131   160   159    1
   132   160   161   ar
   133   157   158    2
   134   163   161   ar
   135    51    52    1
   136    51    50    1
   137    79    80    1
   138    79    76    1
   139   124   125   ar
   140   124   126   ar
   141    53    52    2
   142    80    82    1
   143    78    77    2
   144   125   127   ar
   145    77    76    1
   146    76    75    1
   147   126   128   ar
   148   127   129   ar
   149   128   129   ar
   150    58    59    1
   151    61    60    2
   152    74    73    1
   153    73    70    1
   154    60    59    1
   155    59    62    1
   156    63    62    1
   157    63    64    1
   158    64    65    1
   159    70    71    1
   160    70    69    1
   161    71    72    2
   162    65    66    2
   163    67    66    1
   164    66    68    1
