@<TRIPOS>MOLECULE
tmp/5aicA01.pdb
 158 156 0 0 0
SMALL
GASTEIGER

@<TRIPOS>ATOM
      1  N         20.2760   15.4600   15.9210 N.3   266  PHE266     -0.1228
      2  CA        21.3630   14.5100   15.7860 C.3   266  PHE266      0.1721
      3  C         21.5500   14.0340   14.3500 C.2   266  PHE266      0.2437
      4  O         20.5720   13.5970   13.7380 O.2   266  PHE266     -0.2733
      5  CB        21.1020   13.2890   16.7120 C.3   266  PHE266      0.0547
      6  CG        22.1180   12.1660   16.5520 C.ar  266  PHE266     -0.0202
      7  CD1       21.9720   11.2080   15.5470 C.ar  266  PHE266     -0.0042
      8  CD2       23.2350   12.0920   17.3800 C.ar  266  PHE266     -0.0042
      9  CE1       22.9300   10.1940   15.3720 C.ar  266  PHE266     -0.0003
     10  CE2       24.1820   11.0630   17.2250 C.ar  266  PHE266     -0.0003
     11  CZ        24.0290   10.1300   16.2090 C.ar  266  PHE266     -0.0000
     12  N         22.7960   13.9210   13.8480 N.am  267  PRO267     -0.2729
     13  CA        24.0920   14.3680   14.4070 C.3   267  PRO267      0.1401
     14  C         24.4100   15.6440   13.6250 C.2   267  PRO267      0.2269
     15  O         24.9780   15.6000   12.5350 O.2   267  PRO267     -0.2865
     16  CB        25.0210   13.1980   14.0400 C.3   267  PRO267      0.0296
     17  CG        24.3640   12.5450   12.7870 C.3   267  PRO267      0.0237
     18  CD        23.0220   13.2550   12.5550 C.3   267  PRO267      0.0939
     19  N         14.4380   17.5550   15.7270 N.3   334  ASP334     -0.1239
     20  CA        14.8900   16.2240   16.1830 C.3   334  ASP334      0.1674
     21  C         15.1970   16.3030   17.7060 C.2   334  ASP334      0.2266
     22  O         14.3090   16.7380   18.4500 O.2   334  ASP334     -0.2867
     23  CB        16.0720   15.7150   15.2840 C.3   334  ASP334      0.1410
     24  CG        16.6190   14.3470   15.7030 C.2   334  ASP334      0.3668
     25  OD1       15.9590   13.3270   15.4040 O.co2 334  ASP334     -0.2456
     26  OD2       17.6490   14.3100   16.4250 O.co2 334  ASP334     -0.2456
     27  N         16.8550    2.0870   15.6770 N.3   382  TYR382     -0.1241
     28  CA        18.1560    2.7690   15.6700 C.3   382  TYR382      0.1605
     29  C         18.5280    3.3130   17.0790 C.2   382  TYR382      0.2264
     30  O         19.7030    3.3210   17.4300 O.2   382  TYR382     -0.2867
     31  CB        18.1870    3.8830   14.6170 C.3   382  TYR382      0.0534
     32  CG        17.4280    5.1370   14.9940 C.ar  382  TYR382     -0.0201
     33  CD1       16.0400    5.2020   14.8710 C.ar  382  TYR382     -0.0009
     34  CD2       18.0970    6.2670   15.4610 C.ar  382  TYR382     -0.0009
     35  CE1       15.3370    6.3540   15.2290 C.ar  382  TYR382      0.0417
     36  CE2       17.4040    7.4200   15.8270 C.ar  382  TYR382      0.0417
     37  CZ        16.0260    7.4700   15.6870 C.ar  382  TYR382      0.1957
     38  OH        15.3600    8.6330   16.0160 O.3   382  TYR382     -0.2866
     39  N         21.9230    2.6260   19.3170 N.3   386  PHE386     -0.1241
     40  CA        22.7080    3.7220   19.8950 C.3   386  PHE386      0.1605
     41  C         23.0030    3.5620   21.3910 C.2   386  PHE386      0.2264
     42  O         23.8130    4.3210   21.9120 O.2   386  PHE386     -0.2867
     43  CB        21.9980    5.0710   19.6390 C.3   386  PHE386      0.0534
     44  CG        22.0020    5.5840   18.2180 C.ar  386  PHE386     -0.0203
     45  CD1       22.7490    4.9450   17.2260 C.ar  386  PHE386     -0.0042
     46  CD2       21.2880    6.7280   17.8750 C.ar  386  PHE386     -0.0042
     47  CE1       22.7870    5.4490   15.9250 C.ar  386  PHE386     -0.0003
     48  CE2       21.3080    7.2160   16.5650 C.ar  386  PHE386     -0.0003
     49  CZ        22.0640    6.5820   15.5990 C.ar  386  PHE386     -0.0000
     50  N         23.5620    9.7480    5.6990 N.3   407  LEU407     -0.1245
     51  CA        22.4990   10.3360    6.5220 C.3   407  LEU407      0.1561
     52  C         21.6850   11.4210    5.8260 C.2   407  LEU407      0.2260
     53  O         20.4530   11.3330    5.7780 O.2   407  LEU407     -0.2867
     54  CB        23.1000   10.9260    7.8170 C.3   407  LEU407      0.0270
     55  CG        23.6320    9.9500    8.8440 C.3   407  LEU407      0.0019
     56  CD1       24.4870   10.6900    9.8520 C.3   407  LEU407      0.0001
     57  CD2       22.5050    9.1880    9.5360 C.3   407  LEU407      0.0001
     58  N         17.2130    7.9410    0.1480 N.3   414  SER414     -0.1217
     59  CA        17.7120    7.1430    1.2700 C.3   414  SER414      0.1889
     60  C         18.0570    5.6920    0.9840 C.2   414  SER414      0.2288
     61  O         17.4890    5.0700    0.0840 O.2   414  SER414     -0.2866
     62  CB        16.8200    7.2770    2.5000 C.3   414  SER414      0.2089
     63  OG        17.4580    6.6850    3.6210 O.3   414  SER414     -0.2183
     64  N         19.1010    4.1100    4.1270 N.3   416  LEU416     -0.1245
     65  CA        19.0210    3.7690    5.5410 C.3   416  LEU416      0.1561
     66  C         17.6030    3.4580    5.9890 C.2   416  LEU416      0.2260
     67  O         16.7240    4.3220    5.9270 O.2   416  LEU416     -0.2867
     68  CB        19.6280    4.8680    6.4370 C.3   416  LEU416      0.0270
     69  CG        20.9960    5.4590    6.1050 C.3   416  LEU416      0.0019
     70  CD1       21.4380    6.3910    7.2010 C.3   416  LEU416      0.0001
     71  CD2       22.0450    4.3830    5.8720 C.3   416  LEU416      0.0001
     72  N         15.8580    2.6070    9.2590 N.3   418  MET418     -0.1245
     73  CA        16.0120    2.6810   10.7150 C.3   418  MET418      0.1570
     74  C         15.2970    1.6370   11.5970 C.2   418  MET418      0.2261
     75  O         15.3430    1.7140   12.8320 O.2   418  MET418     -0.2867
     76  CB        15.9220    4.1170   11.2300 C.3   418  MET418      0.0387
     77  CG        17.2990    4.7130   11.4030 C.3   418  MET418      0.0595
     78  SD        17.5350    6.3330   10.6930 S.3   418  MET418     -0.1393
     79  CE        17.5100    5.9370    8.9990 C.3   418  MET418      0.0692
     80  N         20.9050   10.1250   23.4850 N.3   465  TYR465     -0.1241
     81  CA        20.0000    8.9640   23.4580 C.3   465  TYR465      0.1605
     82  C         20.1560    8.0260   24.6450 C.2   465  TYR465      0.2264
     83  O         19.3880    7.0640   24.7790 O.2   465  TYR465     -0.2867
     84  CB        20.2830    8.1220   22.1880 C.3   465  TYR465      0.0534
     85  CG        19.9380    8.7820   20.8780 C.ar  465  TYR465     -0.0201
     86  CD1       18.6820    8.6210   20.3040 C.ar  465  TYR465     -0.0009
     87  CD2       20.8920    9.5070   20.1710 C.ar  465  TYR465     -0.0009
     88  CE1       18.3830    9.1710   19.0590 C.ar  465  TYR465      0.0417
     89  CE2       20.5880   10.1090   18.9570 C.ar  465  TYR465      0.0417
     90  CZ        19.3380    9.9260   18.3950 C.ar  465  TYR465      0.1957
     91  OH        19.0650   10.5080   17.1870 O.3   465  TYR465     -0.2866
     92  N          7.1700   13.0320    4.9150 N.3   494  LYS494     -0.1231
     93  CA         8.0000   11.8770    4.6230 C.3   494  LYS494      0.1693
     94  C          9.0840   11.5400    5.6370 C.2   494  LYS494      0.2592
     95  O         10.0020   10.7710    5.3290 O.2   494  LYS494     -0.2718
     96  CB         8.5190   11.9760    3.1740 C.3   494  LYS494      0.0285
     97  CG         7.3860   11.7630    2.1590 C.3   494  LYS494      0.0035
     98  CD         7.7940   11.9420    0.7080 C.3   494  LYS494      0.0206
     99  CE         6.5660   11.8410   -0.1740 C.3   494  LYS494      0.1093
    100  NZ         6.8730   12.0610   -1.6160 N.3   494  LYS494     -0.1314
    101  N          8.9750   12.0810    6.8660 N.am  495  ASP495     -0.1960
    102  CA         9.9130   11.6680    7.8950 C.3   495  ASP495      0.1840
    103  C          9.3420   10.3200    8.3750 C.2   495  ASP495      0.2622
    104  O          8.2740   10.3000    8.9680 O.2   495  ASP495     -0.2715
    105  CB        10.0180   12.7050    9.0410 C.3   495  ASP495      0.1450
    106  CG        11.0580   12.3590   10.0820 C.2   495  ASP495      0.3671
    107  OD1       11.3680   11.1490   10.2410 O.co2 495  ASP495     -0.2456
    108  OD2       11.5480   13.2930   10.7700 O.co2 495  ASP495     -0.2456
    109  N         10.0270    9.1960    8.0600 N.am  496  PHE496     -0.1960
    110  CA         9.5180    7.8670    8.4120 C.3   496  PHE496      0.1771
    111  C          9.7900    7.3970    9.8290 C.2   496  PHE496      0.2619
    112  O          9.3080    6.3360   10.2330 O.2   496  PHE496     -0.2715
    113  CB         9.7980    6.8190    7.3070 C.3   496  PHE496      0.0574
    114  CG         9.1930    7.2410    5.9830 C.ar  496  PHE496     -0.0200
    115  CD1        7.8190    7.4670    5.8610 C.ar  496  PHE496     -0.0042
    116  CD2        9.9980    7.4740    4.8740 C.ar  496  PHE496     -0.0042
    117  CE1        7.2670    7.9010    4.6510 C.ar  496  PHE496     -0.0003
    118  CE2        9.4390    7.8960    3.6600 C.ar  496  PHE496     -0.0003
    119  CZ         8.0810    8.1120    3.5590 C.ar  496  PHE496     -0.0000
    120  N         10.4920    8.2300   10.6180 N.am  497  VAL497     -0.1963
    121  CA        10.7540    7.9570   12.0280 C.3   497  VAL497      0.1727
    122  C          9.8450    8.8840   12.8690 C.2   497  VAL497      0.2616
    123  O          9.0340    8.4010   13.6700 O.2   497  VAL497     -0.2715
    124  CB        12.2530    8.0810   12.3920 C.3   497  VAL497      0.0290
    125  CG1       12.4580    7.9400   13.8950 C.3   497  VAL497      0.0023
    126  CG2       13.0950    7.0420   11.6360 C.3   497  VAL497      0.0023
    127  N          9.9660   10.2140   12.6500 N.am  498  LEU498     -0.1977
    128  CA         9.1480   11.2260   13.3250 C.3   498  LEU498      0.1596
    129  C          7.9590   11.5100   12.4150 C.2   498  LEU498      0.2287
    130  O          7.8700   12.5680   11.7950 O.2   498  LEU498     -0.2864
    131  CB         9.9950   12.4860   13.6490 C.3   498  LEU498      0.0297
    132  CG        11.3010   12.2290   14.4640 C.3   498  LEU498      0.0022
    133  CD1       12.0990   13.5190   14.6650 C.3   498  LEU498      0.0001
    134  CD2       10.9950   11.6060   15.8410 C.3   498  LEU498      0.0001
    135  N         13.3020   13.7740    6.8660 N.3   523  HIS523     -0.1226
    136  CA        13.7510   14.0960    8.2140 C.3   523  HIS523      0.1752
    137  C         14.5620   15.4020    8.2970 C.2   523  HIS523      0.2596
    138  O         14.4980   16.0780    9.3150 O.2   523  HIS523     -0.2718
    139  CB        14.5930   12.9380    8.7930 C.3   523  HIS523      0.0759
    140  CG        15.0870   13.2060   10.1860 C.ar  523  HIS523      0.0818
    141  ND1       14.2180   13.2250   11.2750 N.ar  523  HIS523     -0.2268
    142  CD2       16.3330   13.5290   10.6160 C.ar  523  HIS523      0.1154
    143  CE1       14.9690   13.5220   12.3230 C.ar  523  HIS523      0.1986
    144  NE2       16.2480   13.7070   11.9780 N.ar  523  HIS523     -0.2212
    145  N         15.3610   15.7210    7.2700 N.am  524  TRP524     -0.1976
    146  CA        16.2960   16.8650    7.3150 C.3   524  TRP524      0.1640
    147  C         15.6020   18.1110    6.8200 C.2   524  TRP524      0.2290
    148  O         16.0430   18.7390    5.8670 O.2   524  TRP524     -0.2864
    149  CB        17.5660   16.5240    6.5210 C.3   524  TRP524      0.0576
    150  CG        18.0770   15.1560    6.8340 C.ar  524  TRP524      0.0006
    151  CD1       17.8830   14.0230    6.0970 C.ar  524  TRP524      0.0946
    152  CD2       18.7550   14.7490    8.0270 C.ar  524  TRP524      0.0152
    153  NE1       18.4070   12.9410    6.7480 N.ar  524  TRP524     -0.2442
    154  CE2       18.9510   13.3520    7.9380 C.ar  524  TRP524      0.0810
    155  CE3       19.2030   15.4260    9.1790 C.ar  524  TRP524      0.0012
    156  CZ2       19.6080   12.6220    8.9340 C.ar  524  TRP524      0.0191
    157  CZ3       19.8610   14.7040   10.1600 C.ar  524  TRP524      0.0001
    158  CH2       20.0620   13.3190   10.0330 C.ar  524  TRP524      0.0015
@<TRIPOS>BOND
     1   100    99    1
     2    99    98    1
     3    61    60    2
     4    58    59    1
     5    98    97    1
     6    60    59    1
     7    59    62    1
     8    97    96    1
     9    62    63    1
    10    96    93    1
    11   119   118   ar
    12   119   117   ar
    13   118   116   ar
    14    64    65    1
    15    93    92    1
    16    93    94    1
    17   117   115   ar
    18   116   114   ar
    19    95    94    2
    20    65    66    1
    21    65    68    1
    22    94   101   am
    23    50    51    1
    24    53    52    2
    25    52    51    1
    26   115   114   ar
    27   148   147    2
    28    71    69    1
    29    67    66    2
    30   114   113    1
    31   151   153   ar
    32   151   150   ar
    33    69    68    1
    34    69    70    1
    35   149   150    1
    36   149   146    1
    37    51    54    1
    38   153   154   ar
    39   147   146    1
    40   150   152   ar
    41   135   136    1
    42   101   102    1
    43   145   146    1
    44   145   137   am
    45   113   110    1
    46    54    55    1
    47   102   103    1
    48   102   105    1
    49   154   152   ar
    50   154   156   ar
    51   152   155   ar
    52   109   103   am
    53   109   110    1
    54   136   137    1
    55   136   139    1
    56   137   138    2
    57   103   104    2
    58   110   111    1
    59   139   140    1
    60    55    57    1
    61    55    56    1
    62   156   158   ar
    63    79    78    1
    64   105   106    1
    65   155   157   ar
    66    72    73    1
    67   111   112    2
    68   111   120   am
    69   158   157   ar
    70   106   107   ar
    71   106   108   ar
    72   140   142   ar
    73   140   141   ar
    74   142   144   ar
    75   120   121    1
    76    78    77    1
    77    73    76    1
    78    73    74    1
    79    76    77    1
    80   141   143   ar
    81    74    75    2
    82   126   124    1
    83   130   129    2
    84   144   143   ar
    85   121   124    1
    86   121   122    1
    87   124   125    1
    88   129   128    1
    89    15    14    2
    90    18    17    1
    91    18    12    1
    92   127   122   am
    93   127   128    1
    94    17    16    1
    95   122   123    2
    96   128   131    1
    97    14    13    1
    98   131   132    1
    99     4     3    2
   100    12     3   am
   101    12    13    1
   102    16    13    1
   103     3     2    1
   104   132   133    1
   105   132   134    1
   106    31    32    1
   107    31    28    1
   108    33    32   ar
   109    33    35   ar
   110    32    34   ar
   111    35    37   ar
   112    23    24    1
   113    23    20    1
   114     9     7   ar
   115     9    11   ar
   116    25    24   ar
   117    34    36   ar
   118     7     6   ar
   119    49    47   ar
   120    49    48   ar
   121    28    27    1
   122    28    29    1
   123    37    36   ar
   124    37    38    1
   125    24    26   ar
   126    19    20    1
   127     2     1    1
   128     2     5    1
   129    47    45   ar
   130    20    21    1
   131    11    10   ar
   132     6     5    1
   133     6     8   ar
   134    48    46   ar
   135    29    30    2
   136    91    90    1
   137    10     8   ar
   138    45    44   ar
   139    21    22    2
   140    46    44   ar
   141    44    43    1
   142    90    89   ar
   143    90    88   ar
   144    89    87   ar
   145    88    86   ar
   146    39    40    1
   147    43    40    1
   148    40    41    1
   149    87    85   ar
   150    86    85   ar
   151    85    84    1
   152    41    42    2
   153    84    81    1
   154    81    80    1
   155    81    82    1
   156    82    83    2
