@<TRIPOS>MOLECULE
tmp/5aigB00.pdb
 144 142 0 0 0
SMALL
GASTEIGER

@<TRIPOS>ATOM
      1  N         24.3310   27.5660   25.2150 N.3    32  TRP32      -0.1241
      2  CA        24.7730   26.3640   24.5160 C.3    32  TRP32       0.1605
      3  C         23.6190   25.9190   23.6510 C.2    32  TRP32       0.2264
      4  O         22.5620   25.5270   24.1260 O.2    32  TRP32      -0.2867
      5  CB        25.1140   25.2530   25.5210 C.3    32  TRP32       0.0550
      6  CG        25.6100   24.0170   24.9040 C.ar   32  TRP32       0.0003
      7  CD1       26.2340   23.8680   23.6960 C.ar   32  TRP32       0.0946
      8  CD2       25.5230   22.7120   25.4590 C.ar   32  TRP32       0.0152
      9  NE1       26.5630   22.5630   23.4900 N.ar   32  TRP32      -0.2442
     10  CE2       26.1620   21.8280   24.5620 C.ar   32  TRP32       0.0810
     11  CE3       24.9940   22.1810   26.6300 C.ar   32  TRP32       0.0012
     12  CZ2       26.2620   20.4630   24.8110 C.ar   32  TRP32       0.0191
     13  CZ3       25.0910   20.8310   26.8540 C.ar   32  TRP32       0.0001
     14  CH2       25.7270   19.9860   25.9680 C.ar   32  TRP32       0.0015
     15  N         22.7200   23.4170   20.6250 N.3    34  ASN34      -0.1240
     16  CA        22.7400   22.3590   19.6140 C.3    34  ASN34       0.1653
     17  C         21.6330   22.7030   18.6490 C.2    34  ASN34       0.2266
     18  O         20.4760   22.6680   19.0280 O.2    34  ASN34      -0.2867
     19  CB        22.5540   21.0210   20.2900 C.3    34  ASN34       0.1155
     20  CG        23.7530   20.6620   21.1360 C.2    34  ASN34       0.2627
     21  OD1       24.8520   20.6030   20.6100 O.2    34  ASN34      -0.2716
     22  ND2       23.5570   20.4650   22.4480 N.am   34  ASN34      -0.0877
     23  N         23.2310   14.6190   29.0790 N.3    53  PHE53      -0.1227
     24  CA        23.9730   14.2300   27.8890 C.3    53  PHE53       0.1736
     25  C         25.0250   13.1640   28.1970 C.2    53  PHE53       0.2595
     26  O         25.2940   12.2550   27.3820 O.2    53  PHE53      -0.2718
     27  CB        24.6240   15.5400   27.4100 C.3    53  PHE53       0.0547
     28  CG        25.5040   15.4270   26.2100 C.ar   53  PHE53      -0.0202
     29  CD1       25.2140   14.5580   25.1840 C.ar   53  PHE53      -0.0042
     30  CD2       26.5840   16.2810   26.0840 C.ar   53  PHE53      -0.0042
     31  CE1       26.0240   14.4980   24.0660 C.ar   53  PHE53      -0.0003
     32  CE2       27.4050   16.2260   24.9880 C.ar   53  PHE53      -0.0003
     33  CZ        27.1250   15.3300   23.9670 C.ar   53  PHE53      -0.0000
     34  N         25.6710   13.3460   29.3510 N.am   54  MET54      -0.1979
     35  CA        26.8410   12.5460   29.7150 C.3    54  MET54       0.1605
     36  C         26.4870   11.3340   30.5670 C.2    54  MET54       0.2287
     37  O         27.3930   10.5840   30.9900 O.2    54  MET54      -0.2864
     38  CB        27.8980   13.3960   30.4430 C.3    54  MET54       0.0413
     39  CG        28.5790   14.4360   29.5500 C.3    54  MET54       0.0598
     40  SD        29.5680   13.6760   28.2470 S.3    54  MET54      -0.1393
     41  CE        28.5560   13.9220   26.8270 C.3    54  MET54       0.0692
     42  N         36.9820   14.2350   21.1180 N.3    62  TRP62      -0.1241
     43  CA        36.5600   15.1970   20.1070 C.3    62  TRP62       0.1605
     44  C         37.7860   15.6890   19.3820 C.2    62  TRP62       0.2264
     45  O         38.7370   16.1880   19.9890 O.2    62  TRP62      -0.2867
     46  CB        35.8280   16.3600   20.7850 C.3    62  TRP62       0.0550
     47  CG        34.5630   15.9810   21.4990 C.ar   62  TRP62       0.0003
     48  CD1       34.0280   14.7430   21.6350 C.ar   62  TRP62       0.0946
     49  CD2       33.6420   16.8760   22.1500 C.ar   62  TRP62       0.0152
     50  NE1       32.8590   14.7940   22.3480 N.ar   62  TRP62      -0.2442
     51  CE2       32.6090   16.0990   22.6780 C.ar   62  TRP62       0.0810
     52  CE3       33.6060   18.2490   22.3370 C.ar   62  TRP62       0.0012
     53  CZ2       31.5540   16.6560   23.4110 C.ar   62  TRP62       0.0191
     54  CZ3       32.5710   18.7960   23.0740 C.ar   62  TRP62       0.0001
     55  CH2       31.5730   18.0020   23.6040 C.ar   62  TRP62       0.0015
     56  N         33.2010   14.5180   16.8070 N.3    80  ASP80      -0.1239
     57  CA        33.0730   14.3160   18.2570 C.3    80  ASP80       0.1674
     58  C         32.8500   12.8290   18.4990 C.2    80  ASP80       0.2266
     59  O         31.7980   12.2770   18.2200 O.2    80  ASP80      -0.2867
     60  CB        31.9410   15.1510   18.8160 C.3    80  ASP80       0.1410
     61  CG        32.2550   16.6260   18.9440 C.2    80  ASP80       0.3668
     62  OD1       33.2930   17.0990   18.4950 O.co2  80  ASP80      -0.2456
     63  OD2       31.3640   17.3520   19.5330 O.co2  80  ASP80      -0.2456
     64  N         32.7810    9.5250   21.1820 N.3    82  PHE82      -0.1241
     65  CA        32.3500    9.1710   22.5330 C.3    82  PHE82       0.1605
     66  C         32.6370    7.7120   22.7790 C.2    82  PHE82       0.2264
     67  O         32.5490    6.8940   21.8500 O.2    82  PHE82      -0.2867
     68  CB        30.8290    9.3660   22.6790 C.3    82  PHE82       0.0534
     69  CG        30.3780   10.7730   22.4130 C.ar   82  PHE82      -0.0203
     70  CD1       30.3670   11.7080   23.4410 C.ar   82  PHE82      -0.0042
     71  CD2       30.0630   11.1900   21.1250 C.ar   82  PHE82      -0.0042
     72  CE1       30.0100   13.0320   23.1810 C.ar   82  PHE82      -0.0003
     73  CE2       29.7250   12.4890   20.8840 C.ar   82  PHE82      -0.0003
     74  CZ        29.7160   13.4180   21.8880 C.ar   82  PHE82      -0.0000
     75  N         30.2470   11.6100   15.8370 N.3    92  ILE92      -0.1245
     76  CA        29.3060   12.4960   15.1660 C.3    92  ILE92       0.1561
     77  C         30.0750   13.6560   14.5800 C.2    92  ILE92       0.2260
     78  O         30.8740   14.3170   15.2380 O.2    92  ILE92      -0.2867
     79  CB        28.2170   13.0090   16.1350 C.3    92  ILE92       0.0252
     80  CG1       27.4620   11.8310   16.7580 C.3    92  ILE92       0.0019
     81  CG2       27.2730   13.9630   15.4010 C.3    92  ILE92       0.0019
     82  CD1       26.5990   12.1630   17.9590 C.3    92  ILE92       0.0001
     83  N         30.4790   17.3680   13.2080 N.3    94  VAL94      -0.1245
     84  CA        29.8770   18.6030   13.7030 C.3    94  VAL94       0.1561
     85  C         30.7400   19.7940   13.3860 C.2    94  VAL94       0.2260
     86  O         31.9700   19.7090   13.4790 O.2    94  VAL94      -0.2867
     87  CB        29.6080   18.4880   15.2350 C.3    94  VAL94       0.0252
     88  CG1       30.8330   18.0880   16.0160 C.3    94  VAL94       0.0019
     89  CG2       29.0230   19.7570   15.8230 C.3    94  VAL94       0.0019
     90  N         27.9020   29.0180   22.2230 N.3   109  TRP109     -0.1241
     91  CA        28.4350   27.8180   21.5620 C.3   109  TRP109      0.1605
     92  C         27.2860   27.2050   20.8080 C.2   109  TRP109      0.2264
     93  O         26.3220   26.7370   21.3880 O.2   109  TRP109     -0.2867
     94  CB        28.9790   26.8690   22.6510 C.3   109  TRP109      0.0550
     95  CG        29.4050   25.5240   22.1510 C.ar  109  TRP109      0.0003
     96  CD1       29.6640   25.1460   20.8480 C.ar  109  TRP109      0.0946
     97  CD2       29.5890   24.3600   22.9360 C.ar  109  TRP109      0.0152
     98  NE1       30.0140   23.8280   20.8070 N.ar  109  TRP109     -0.2442
     99  CE2       29.9700   23.3140   22.0770 C.ar  109  TRP109      0.0810
    100  CE3       29.4410   24.0910   24.3090 C.ar  109  TRP109      0.0012
    101  CZ2       30.2210   22.0250   22.5340 C.ar  109  TRP109      0.0191
    102  CZ3       29.6820   22.8140   24.7460 C.ar  109  TRP109      0.0001
    103  CH2       30.0660   21.7990   23.8990 C.ar  109  TRP109      0.0015
    104  N         26.3720   24.4130   17.8590 N.3   111  ASP111     -0.1239
    105  CA        26.8430   23.2480   17.1290 C.3   111  ASP111      0.1674
    106  C         25.8130   22.7970   16.1050 C.2   111  ASP111      0.2266
    107  O         24.6240   22.6680   16.3590 O.2   111  ASP111     -0.2867
    108  CB        27.1840   22.0670   18.0540 C.3   111  ASP111      0.1410
    109  CG        28.6180   22.0280   18.5450 C.2   111  ASP111      0.3668
    110  OD1       29.4780   22.7840   18.0750 O.co2 111  ASP111     -0.2456
    111  OD2       28.8910   21.1300   19.3900 O.co2 111  ASP111     -0.2456
    112  N         24.9200   19.9330   13.1810 N.3   113  PHE113     -0.1241
    113  CA        25.0770   18.5300   12.8790 C.3   113  PHE113      0.1605
    114  C         23.7290   17.9720   12.4500 C.2   113  PHE113      0.2264
    115  O         22.6960   18.6190   12.5670 O.2   113  PHE113     -0.2867
    116  CB        25.6120   17.7670   14.1260 C.3   113  PHE113      0.0534
    117  CG        24.7520   17.8930   15.3510 C.ar  113  PHE113     -0.0203
    118  CD1       24.9170   18.9610   16.2300 C.ar  113  PHE113     -0.0042
    119  CD2       23.7500   16.9770   15.6290 C.ar  113  PHE113     -0.0042
    120  CE1       24.1280   19.0850   17.3560 C.ar  113  PHE113     -0.0003
    121  CE2       22.9710   17.1080   16.7550 C.ar  113  PHE113     -0.0003
    122  CZ        23.1570   18.1730   17.5950 C.ar  113  PHE113     -0.0000
    123  N         23.0270   12.0510   15.3220 N.3   118  PHE118     -0.1241
    124  CA        23.0220   12.1150   16.7950 C.3   118  PHE118      0.1605
    125  C         22.0790   11.0720   17.4050 C.2   118  PHE118      0.2264
    126  O         22.4750   10.3200   18.3190 O.2   118  PHE118     -0.2867
    127  CB        22.6720   13.5260   17.2790 C.3   118  PHE118      0.0534
    128  CG        22.5580   13.6480   18.7610 C.ar  118  PHE118     -0.0203
    129  CD1       23.6920   13.7510   19.5600 C.ar  118  PHE118     -0.0042
    130  CD2       21.3200   13.6340   19.3490 C.ar  118  PHE118     -0.0042
    131  CE1       23.5720   13.8490   20.9360 C.ar  118  PHE118     -0.0003
    132  CE2       21.1920   13.7480   20.7110 C.ar  118  PHE118     -0.0003
    133  CZ        22.3190   13.8440   21.5150 C.ar  118  PHE118     -0.0000
    134  N         22.9080    8.1100   20.2060 N.3   122  PHE122     -0.1241
    135  CA        22.4880    8.4000   21.5690 C.3   122  PHE122      0.1605
    136  C         21.1280    7.7660   21.8880 C.2   122  PHE122      0.2264
    137  O         20.5630    8.0200   22.9520 O.2   122  PHE122     -0.2867
    138  CB        22.5020    9.9240   21.8360 C.3   122  PHE122      0.0534
    139  CG        23.8720   10.4660   22.2150 C.ar  122  PHE122     -0.0203
    140  CD1       24.8270   10.6630   21.2460 C.ar  122  PHE122     -0.0042
    141  CD2       24.2090   10.7100   23.5590 C.ar  122  PHE122     -0.0042
    142  CE1       26.0900   11.1180   21.5900 C.ar  122  PHE122     -0.0003
    143  CE2       25.4600   11.1730   23.8990 C.ar  122  PHE122     -0.0003
    144  CZ        26.4050   11.3670   22.8990 C.ar  122  PHE122     -0.0000
@<TRIPOS>BOND
     1   114   115    2
     2   114   113    1
     3   113   112    1
     4   113   116    1
     5    83    84    1
     6    85    86    2
     7    85    84    1
     8    84    87    1
     9   116   117    1
    10    77    76    1
    11    77    78    2
    12    76    75    1
    13    76    79    1
    14    87    89    1
    15    87    88    1
    16   123   124    1
    17   117   119   ar
    18   117   118   ar
    19    81    79    1
    20   119   121   ar
    21   106   107    2
    22   106   105    1
    23    79    80    1
    24   118   120   ar
    25   121   122   ar
    26    80    82    1
    27   124   127    1
    28   124   125    1
    29    56    57    1
    30   105   104    1
    31   105   108    1
    32   127   128    1
    33   120   122   ar
    34   125   126    2
    35   108   109    1
    36   110   109   ar
    37    59    58    2
    38    57    58    1
    39    57    60    1
    40    62    61   ar
    41   109   111   ar
    42    17    18    2
    43    17    16    1
    44   128   130   ar
    45   128   129   ar
    46    60    61    1
    47    61    63   ar
    48   130   132   ar
    49    44    45    2
    50    44    43    1
    51   129   131   ar
    52    16    19    1
    53    16    15    1
    54    43    46    1
    55    43    42    1
    56   134   135    1
    57    19    20    1
    58    21    20    2
    59   132   133   ar
    60    46    47    1
    61    98    96   ar
    62    98    99   ar
    63    92    93    2
    64    92    91    1
    65    96    95   ar
    66    73    71   ar
    67    73    74   ar
    68   131   133   ar
    69    71    69   ar
    70    20    22   am
    71    64    65    1
    72   140   142   ar
    73   140   139   ar
    74    47    48   ar
    75    47    49   ar
    76    91    90    1
    77    91    94    1
    78   135   138    1
    79   135   136    1
    80   142   144   ar
    81    48    50   ar
    82   138   139    1
    83    67    66    2
    84   136   137    2
    85    74    72   ar
    86    99   101   ar
    87    99    97   ar
    88    49    52   ar
    89    49    51   ar
    90    95    94    1
    91    95    97   ar
    92   139   141   ar
    93    52    54   ar
    94    50    51   ar
    95    69    68    1
    96    69    70   ar
    97    65    68    1
    98    65    66    1
    99   101   103   ar
   100    51    53   ar
   101   144   143   ar
   102    97   100   ar
   103    54    55   ar
   104    72    70   ar
   105    53    55   ar
   106     9     7   ar
   107     9    10   ar
   108   141   143   ar
   109     3     4    2
   110     3     2    1
   111     7     6   ar
   112   103   102   ar
   113    33    31   ar
   114    33    32   ar
   115    31    29   ar
   116   100   102   ar
   117     2     1    1
   118     2     5    1
   119    10    12   ar
   120    10     8   ar
   121    12    14   ar
   122     6     8   ar
   123     6     5    1
   124    32    30   ar
   125    29    28   ar
   126     8    11   ar
   127    14    13   ar
   128    30    28   ar
   129    28    27    1
   130    11    13   ar
   131    41    40    1
   132    26    25    2
   133    27    24    1
   134    24    25    1
   135    24    23    1
   136    25    34   am
   137    40    39    1
   138    34    35    1
   139    39    38    1
   140    35    38    1
   141    35    36    1
   142    36    37    2
