@<TRIPOS>MOLECULE
tmp/5aiiH00.pdb
 150 143 0 0 0
SMALL
GASTEIGER

@<TRIPOS>ATOM
      1  N        -22.4310   -7.3060   17.1540 N.3    32  TYR32      -0.1241
      2  CA       -23.5440   -6.5800   16.5420 C.3    32  TYR32       0.1605
      3  C        -23.5130   -6.9610   15.0550 C.2    32  TYR32       0.2264
      4  O        -22.6510   -6.5640   14.2630 O.2    32  TYR32      -0.2867
      5  CB       -23.4030   -5.0780   16.7660 C.3    32  TYR32       0.0534
      6  CG       -24.4540   -4.1940   16.0950 C.ar   32  TYR32      -0.0201
      7  CD1      -25.7700   -4.6400   15.8200 C.ar   32  TYR32      -0.0009
      8  CD2      -24.1150   -2.8820   15.7490 C.ar   32  TYR32      -0.0009
      9  CE1      -26.6930   -3.7770   15.2080 C.ar   32  TYR32       0.0417
     10  CE2      -25.0300   -2.0440   15.1360 C.ar   32  TYR32       0.0417
     11  CZ       -26.3090   -2.4830   14.8800 C.ar   32  TYR32       0.1957
     12  OH       -27.2200   -1.6400   14.3050 O.3    32  TYR32      -0.2866
     13  N        -25.5670   -7.0280   11.8100 N.3    34  ASN34      -0.1240
     14  CA       -26.5770   -6.6990   10.7620 C.3    34  ASN34       0.1653
     15  C        -26.2840   -7.7200    9.7230 C.2    34  ASN34       0.2266
     16  O        -25.2180   -7.6900    9.0910 O.2    34  ASN34      -0.2867
     17  CB       -26.3280   -5.2730   10.2360 C.3    34  ASN34       0.1155
     18  CG       -26.7910   -4.2260   11.1870 C.2    34  ASN34       0.2627
     19  OD1      -27.9740   -4.0740   11.4700 O.2    34  ASN34      -0.2716
     20  ND2      -25.7970   -3.5300   11.8050 N.am   34  ASN34      -0.0877
     21  N        -24.4590   -7.0820    6.4560 N.3    37  MET37      -0.1245
     22  CA       -23.3960   -6.0750    6.5270 C.3    37  MET37       0.1570
     23  C        -22.2160   -6.6670    7.2960 C.2    37  MET37       0.2261
     24  O        -22.3720   -7.7280    7.9160 O.2    37  MET37      -0.2867
     25  CB       -23.9100   -4.8390    7.2120 C.3    37  MET37       0.0387
     26  CG       -25.1110   -4.1670    6.5370 C.3    37  MET37       0.0595
     27  SD       -25.5520   -2.6890    7.4830 S.3    37  MET37      -0.1393
     28  CE       -26.6150   -1.7200    6.4140 C.3    37  MET37       0.0692
     29  N        -20.9620    2.9400   14.6940 N.3    49  PHE49      -0.1227
     30  CA       -21.7040    2.5150   13.5080 C.3    49  PHE49       0.1736
     31  C        -23.0670    3.1950   13.4380 C.2    49  PHE49       0.2595
     32  O        -23.4570    3.7100   12.3760 O.2    49  PHE49      -0.2718
     33  CB       -21.8260    0.9820   13.4430 C.3    49  PHE49       0.0547
     34  CG       -22.1310    0.4510   12.0680 C.ar   49  PHE49      -0.0202
     35  CD1      -21.3990    0.8820   10.9550 C.ar   49  PHE49      -0.0042
     36  CD2      -23.1510   -0.4800   11.8810 C.ar   49  PHE49      -0.0042
     37  CE1      -21.6930    0.4050    9.6800 C.ar   49  PHE49      -0.0003
     38  CE2      -23.4410   -0.9680   10.6120 C.ar   49  PHE49      -0.0003
     39  CZ       -22.7170   -0.5240    9.5140 C.ar   49  PHE49      -0.0000
     40  N        -23.7710    3.2260   14.5640 N.am   50  LEU50      -0.1980
     41  CA       -25.0990    3.7790   14.6210 C.3    50  LEU50       0.1596
     42  C        -25.0900    5.2730   14.3470 C.2    50  LEU50       0.2287
     43  O        -26.0350    5.7900   13.7370 O.2    50  LEU50      -0.2864
     44  CB       -25.7930    3.4310   15.9470 C.3    50  LEU50       0.0297
     45  CG       -26.3230    1.9950   16.1100 C.3    50  LEU50       0.0022
     46  CD1      -26.7200    1.7910   17.5580 C.3    50  LEU50       0.0001
     47  CD2      -27.5070    1.7240   15.1930 C.3    50  LEU50       0.0001
     48  N        -23.2830    6.7650   12.2120 N.3    52  GLN52      -0.1231
     49  CA       -23.0940    6.9770   10.7570 C.3    52  GLN52       0.1698
     50  C        -24.3830    7.4000   10.0590 C.2    52  GLN52       0.2592
     51  O        -24.3390    7.9280    8.9430 O.2    52  GLN52      -0.2718
     52  CB       -22.5370    5.7360   10.0640 C.3    52  GLN52       0.0381
     53  CG       -21.0660    5.4520   10.3180 C.3    52  GLN52       0.0905
     54  CD       -20.5940    4.1410    9.7070 C.2    52  GLN52       0.2608
     55  OE1      -19.5980    3.5700   10.1470 O.2    52  GLN52      -0.2717
     56  NE2      -21.3080    3.6550    8.6900 N.am   52  GLN52      -0.0878
     57  N        -25.5150    7.1400   10.7080 N.am   53  LEU53      -0.1980
     58  CA       -26.8000    7.5770   10.1990 C.3    53  LEU53       0.1596
     59  C        -27.1690    8.9060   10.8560 C.2    53  LEU53       0.2287
     60  O        -27.4440    8.9600   12.0570 O.2    53  LEU53      -0.2864
     61  CB       -27.8680    6.5050   10.4280 C.3    53  LEU53       0.0297
     62  CG       -29.0150    6.4240    9.4220 C.3    53  LEU53       0.0022
     63  CD1      -28.5270    6.1790    8.0030 C.3    53  LEU53       0.0001
     64  CD2      -29.9600    5.3090    9.8280 C.3    53  LEU53       0.0001
     65  N        -38.4900    3.3730   15.9950 N.3    60  TRP60      -0.1241
     66  CA       -38.4460    1.9440   15.7390 C.3    60  TRP60       0.1605
     67  C        -39.6610    1.3450   16.3970 C.2    60  TRP60       0.2264
     68  O        -39.7560    1.3170   17.6420 O.2    60  TRP60      -0.2867
     69  CB       -37.1720    1.3300   16.2970 C.3    60  TRP60       0.0550
     70  CG       -35.8940    1.7310   15.6150 C.ar   60  TRP60       0.0003
     71  CD1      -35.7160    2.7300   14.6440 C.ar   60  TRP60       0.0946
     72  CD2      -34.5910    1.1650   15.8440 C.ar   60  TRP60       0.0152
     73  NE1      -34.4030    2.7740   14.2850 N.ar   60  TRP60      -0.2442
     74  CE2      -33.6860    1.8320   14.9930 C.ar   60  TRP60       0.0810
     75  CE3      -34.1090    0.1260   16.6750 C.ar   60  TRP60       0.0012
     76  CZ2      -32.3050    1.5110   14.9430 C.ar   60  TRP60       0.0191
     77  CZ3      -32.7680   -0.1950   16.6300 C.ar   60  TRP60       0.0001
     78  CH2      -31.8610    0.5030   15.7770 C.ar   60  TRP60       0.0015
     79  N        -38.2240   -0.0790   11.4880 N.3    82  ASP82      -0.1239
     80  CA       -37.2600    0.9110   11.9930 C.3    82  ASP82       0.1674
     81  C        -37.3110    2.1870   11.1320 C.2    82  ASP82       0.2266
     82  O        -36.8530    2.1850    9.9780 O.2    82  ASP82      -0.2867
     83  CB       -35.8370    0.3930   12.0270 C.3    82  ASP82       0.1410
     84  CG       -35.5840   -0.6250   13.1690 C.2    82  ASP82       0.3668
     85  OD1      -36.5600   -0.9880   13.8740 O.co2  82  ASP82      -0.2456
     86  OD2      -34.3740   -0.9810   13.2660 O.co2  82  ASP82      -0.2456
     87  N        -36.5000    6.2330   10.4990 N.3    84  PHE84      -0.1241
     88  CA       -35.5340    7.3310   10.7620 C.3    84  PHE84       0.1605
     89  C        -35.9030    8.5410    9.9140 C.2    84  PHE84       0.2264
     90  O        -36.3550    8.3870    8.7600 O.2    84  PHE84      -0.2867
     91  CB       -34.0980    7.0050   10.3870 C.3    84  PHE84       0.0534
     92  CG       -33.5460    5.7140   10.9470 C.ar   84  PHE84      -0.0203
     93  CD1      -33.8660    4.4840   10.3570 C.ar   84  PHE84      -0.0042
     94  CD2      -32.5850    5.7380   11.9690 C.ar   84  PHE84      -0.0042
     95  CE1      -33.3000    3.3070   10.8250 C.ar   84  PHE84      -0.0003
     96  CE2      -32.0240    4.5490   12.4440 C.ar   84  PHE84      -0.0003
     97  CZ       -32.3700    3.3260   11.8600 C.ar   84  PHE84      -0.0000
     98  N        -37.5040    0.7550    7.5000 N.3    94  ILE94      -0.1245
     99  CA       -36.9130   -0.5380    7.1640 C.3    94  ILE94       0.1561
    100  C        -37.5530   -1.5960    8.0350 C.2    94  ILE94       0.2260
    101  O        -37.4200   -1.5270    9.2730 O.2    94  ILE94      -0.2867
    102  CB       -35.3890   -0.5530    7.3870 C.3    94  ILE94       0.0252
    103  CG1      -34.7110    0.6050    6.6180 C.3    94  ILE94       0.0019
    104  CG2      -34.7750   -1.9040    6.9740 C.3    94  ILE94       0.0019
    105  CD1      -34.9390    0.5780    5.1040 C.3    94  ILE94       0.0001
    106  N        -37.6760   -5.0990    9.7600 N.3    96  VAL96      -0.1245
    107  CA       -36.5120   -5.8450   10.2810 C.3    96  VAL96       0.1561
    108  C        -37.0110   -6.7360   11.4090 C.2    96  VAL96       0.2260
    109  O        -37.9050   -6.3540   12.1700 O.2    96  VAL96      -0.2867
    110  CB       -35.4360   -4.8540   10.8320 C.3    96  VAL96       0.0252
    111  CG1      -36.0210   -3.8180   11.8200 C.3    96  VAL96       0.0019
    112  CG2      -34.1980   -5.5860   11.4190 C.3    96  VAL96       0.0019
    113  N        -29.6670   -8.4240   13.4920 N.3   112  ASP112     -0.1239
    114  CA       -30.8530   -7.8120   12.8140 C.3   112  ASP112      0.1674
    115  C        -30.8730   -8.2990   11.3780 C.2   112  ASP112      0.2266
    116  O        -29.8300   -8.3370   10.7080 O.2   112  ASP112     -0.2867
    117  CB       -30.7480   -6.2680   12.7990 C.3   112  ASP112      0.1410
    118  CG       -31.5110   -5.6030   13.9190 C.2   112  ASP112      0.3668
    119  OD1      -32.2630   -6.2600   14.6800 O.co2 112  ASP112     -0.2456
    120  OD2      -31.4520   -4.3430   14.0560 O.co2 112  ASP112     -0.2456
    121  N        -32.6690   -8.0380    7.7590 N.3   114  PHE114     -0.1241
    122  CA       -33.4070   -7.0950    6.8760 C.3   114  PHE114      0.1605
    123  C        -32.7300   -7.1950    5.5310 C.2   114  PHE114      0.2264
    124  O        -31.7110   -7.8540    5.3480 O.2   114  PHE114     -0.2867
    125  CB       -33.3600   -5.6430    7.3950 C.3   114  PHE114      0.0534
    126  CG       -31.9730   -5.0870    7.5090 C.ar  114  PHE114     -0.0203
    127  CD1      -31.2020   -5.3010    8.6690 C.ar  114  PHE114     -0.0042
    128  CD2      -31.4480   -4.2980    6.4670 C.ar  114  PHE114     -0.0042
    129  CE1      -29.9000   -4.8140    8.7210 C.ar  114  PHE114     -0.0003
    130  CE2      -30.1470   -3.7700    6.5320 C.ar  114  PHE114     -0.0003
    131  CZ       -29.3670   -4.0340    7.6760 C.ar  114  PHE114     -0.0000
    132  N        -32.5770   -1.0090    2.0860 N.3   119  PHE119     -0.1241
    133  CA       -31.8910    0.0150    2.8340 C.3   119  PHE119      0.1605
    134  C        -31.0990    0.9460    1.9070 C.2   119  PHE119      0.2264
    135  O        -31.2530    2.1880    2.0200 O.2   119  PHE119     -0.2867
    136  CB       -31.0110   -0.6290    3.9300 C.3   119  PHE119      0.0534
    137  CG       -30.2020    0.3600    4.7120 C.ar  119  PHE119     -0.0203
    138  CD1      -30.8180    1.2560    5.5940 C.ar  119  PHE119     -0.0042
    139  CD2      -28.8260    0.3910    4.5770 C.ar  119  PHE119     -0.0042
    140  CE1      -30.0490    2.1810    6.3340 C.ar  119  PHE119     -0.0003
    141  CE2      -28.0570    1.3020    5.3160 C.ar  119  PHE119     -0.0003
    142  CZ       -28.6740    2.1870    6.1890 C.ar  119  PHE119     -0.0000
    143  N        -31.6390    5.0780    0.9890 N.3   123  MET123     -0.1245
    144  CA       -30.5390    5.9930    1.2810 C.3   123  MET123      0.1570
    145  C        -30.1100    6.8210    0.0510 C.2   123  MET123      0.2261
    146  O        -29.4520    7.8540    0.2110 O.2   123  MET123     -0.2867
    147  CB       -29.3330    5.2250    1.8590 C.3   123  MET123      0.0387
    148  CG       -29.5400    4.7390    3.2870 C.3   123  MET123      0.0595
    149  SD       -29.5910    6.0930    4.4740 S.3   123  MET123     -0.1393
    150  CE       -27.8400    6.5150    4.5200 C.3   123  MET123      0.0692
@<TRIPOS>BOND
     1   145   146    2
     2   145   144    1
     3   143   144    1
     4   144   147    1
     5   147   148    1
     6   134   135    2
     7   134   133    1
     8   132   133    1
     9   133   136    1
    10   148   149    1
    11   136   137    1
    12   149   150    1
    13   139   137   ar
    14   139   141   ar
    15   137   138   ar
    16   105   103    1
    17   141   142   ar
    18   124   123    2
    19   123   122    1
    20   138   140   ar
    21   142   140   ar
    22    28    27    1
    23    21    22    1
    24   128   130   ar
    25   128   126   ar
    26    22    25    1
    27    22    23    1
    28   130   131   ar
    29    26    25    1
    30    26    27    1
    31   103   102    1
    32   122   125    1
    33   122   121    1
    34   104   102    1
    35    99   102    1
    36    99    98    1
    37    99   100    1
    38    23    24    2
    39   125   126    1
    40   126   127   ar
    41   131   129   ar
    42    63    62    1
    43   100   101    2
    44   127   129   ar
    45    56    54   am
    46    90    89    2
    47    51    50    2
    48    16    15    2
    49    62    64    1
    50    62    61    1
    51    39    37   ar
    52    39    38   ar
    53    37    35   ar
    54    54    55    2
    55    54    53    1
    56    15    14    1
    57   106   107    1
    58    89    88    1
    59    82    81    2
    60    50    57   am
    61    50    49    1
    62    52    53    1
    63    52    49    1
    64    58    61    1
    65    58    57    1
    66    58    59    1
    67    17    14    1
    68    17    18    1
    69   107   110    1
    70   107   108    1
    71    93    95   ar
    72    93    92   ar
    73    91    88    1
    74    91    92    1
    75    87    88    1
    76    38    36   ar
    77   116   115    2
    78    49    48    1
    79    14    13    1
    80    95    97   ar
    81   110   112    1
    82   110   111    1
    83    59    60    2
    84    92    94   ar
    85    35    34   ar
    86    81    80    1
    87    18    19    2
    88    18    20   am
    89   115   114    1
    90   108   109    2
    91    79    80    1
    92    97    96   ar
    93    36    34   ar
    94    94    96   ar
    95    80    83    1
    96    83    84    1
    97    34    33    1
    98    32    31    2
    99   117   114    1
   100   117   118    1
   101   114   113    1
   102    84    86   ar
   103    84    85   ar
   104    31    30    1
   105    31    40   am
   106    33    30    1
   107    30    29    1
   108    43    42    2
   109   118   120   ar
   110   118   119   ar
   111     4     3    2
   112    73    71   ar
   113    73    74   ar
   114    12    11    1
   115    42    41    1
   116    40    41    1
   117    41    44    1
   118    71    70   ar
   119    11    10   ar
   120    11     9   ar
   121    76    74   ar
   122    76    78   ar
   123    74    72   ar
   124     3     2    1
   125    10     8   ar
   126    47    45    1
   127     9     7   ar
   128    70    72   ar
   129    70    69    1
   130    66    65    1
   131    66    69    1
   132    66    67    1
   133     8     6   ar
   134    78    77   ar
   135     7     6   ar
   136    72    75   ar
   137    44    45    1
   138     6     5    1
   139    45    46    1
   140    67    68    2
   141     2     5    1
   142     2     1    1
   143    77    75   ar
