@<TRIPOS>MOLECULE
tmp/5aikC00.pdb
 159 149 0 0 0
SMALL
GASTEIGER

@<TRIPOS>ATOM
      1  N          1.3450   81.2490   15.5390 N.3    32  ILE32      -0.1231
      2  CA         0.8630   80.6140   14.2840 C.3    32  ILE32       0.1692
      3  C          0.1010   79.2890   14.4620 C.2    32  ILE32       0.2593
      4  O         -0.3700   78.7190   13.4870 O.2    32  ILE32      -0.2718
      5  CB         2.0220   80.3780   13.2820 C.3    32  ILE32       0.0266
      6  CG1        3.0100   79.3310   13.8040 C.3    32  ILE32       0.0019
      7  CG2        2.7120   81.6990   12.9850 C.3    32  ILE32       0.0020
      8  CD1        4.2110   79.1240   12.9170 C.3    32  ILE32       0.0001
      9  N          0.0080   78.7880   15.6890 N.am   33  GLY33      -0.1942
     10  CA        -0.4940   77.4400   15.9160 C.3    33  GLY33       0.2014
     11  C         -0.8400   77.2180   17.3600 C.2    33  GLY33       0.2638
     12  O         -0.1840   77.7550   18.2510 O.2    33  GLY33      -0.2714
     13  N         -1.9030   76.4500   17.5770 N.am   34  LYS34      -0.1977
     14  CA        -2.3710   76.1240   18.9080 C.3    34  LYS34       0.1596
     15  C         -2.7290   74.6330   18.9560 C.2    34  LYS34       0.2287
     16  O         -3.0420   74.0130   17.9340 O.2    34  LYS34      -0.2864
     17  CB        -3.5660   76.9990   19.2750 C.3    34  LYS34       0.0298
     18  CG        -3.6100   77.3940   20.7390 C.3    34  LYS34       0.0038
     19  CD        -4.9730   77.9710   21.1260 C.3    34  LYS34       0.0206
     20  CE        -5.0260   78.3730   22.6040 C.3    34  LYS34       0.1093
     21  NZ        -4.1800   79.5800   22.8610 N.3    34  LYS34      -0.1314
     22  N         -0.8130   70.0370   24.5350 N.3    37  PHE37      -0.1241
     23  CA         0.3910   70.3340   23.7420 C.3    37  PHE37       0.1605
     24  C          0.9460   71.7390   24.0470 C.2    37  PHE37       0.2264
     25  O          1.9370   71.8400   24.7820 O.2    37  PHE37      -0.2867
     26  CB         0.3990   69.7700   22.2990 C.3    37  PHE37       0.0534
     27  CG         0.7960   70.7410   21.2340 C.ar   37  PHE37      -0.0203
     28  CD1        1.8620   71.6220   21.3990 C.ar   37  PHE37      -0.0042
     29  CD2        0.0640   70.7780   20.0460 C.ar   37  PHE37      -0.0042
     30  CE1        2.1550   72.5410   20.4190 C.ar   37  PHE37      -0.0003
     31  CE2        0.3680   71.6950   19.0670 C.ar   37  PHE37      -0.0003
     32  CZ         1.4210   72.5690   19.2470 C.ar   37  PHE37      -0.0000
     33  N          2.5950   77.0870   18.9350 N.3    40  VAL40      -0.1245
     34  CA         3.6750   77.2340   17.9640 C.3    40  VAL40       0.1561
     35  C          3.8200   78.7040   17.5650 C.2    40  VAL40       0.2260
     36  O          2.8270   79.3570   17.2620 O.2    40  VAL40      -0.2867
     37  CB         3.3940   76.4310   16.6850 C.3    40  VAL40       0.0252
     38  CG1        4.5940   76.5120   15.7480 C.3    40  VAL40       0.0019
     39  CG2        3.0940   74.9860   17.0340 C.3    40  VAL40       0.0019
     40  N         10.1220   77.8070   13.2510 N.3    53  ALA53      -0.1245
     41  CA         8.8770   77.5720   13.9610 C.3    53  ALA53       0.1562
     42  C          9.2420   76.9690   15.3090 C.2    53  ALA53       0.2260
     43  O          9.9510   75.9590   15.3460 O.2    53  ALA53      -0.2867
     44  CB         8.0070   76.6200   13.1700 C.3    53  ALA53       0.0290
     45  N          7.9550   75.2070   18.8060 N.3    55  LYS55      -0.1245
     46  CA         6.8720   74.5420   19.4910 C.3    55  LYS55       0.1561
     47  C          7.0880   74.6980   20.9980 C.2    55  LYS55       0.2260
     48  O          7.9620   74.0470   21.5680 O.2    55  LYS55      -0.2867
     49  CB         6.8350   73.0690   19.0780 C.3    55  LYS55       0.0271
     50  CG         5.5310   72.3590   19.3690 C.3    55  LYS55       0.0035
     51  CD         5.5400   70.9310   18.8060 C.3    55  LYS55       0.0206
     52  CE         4.2860   70.1410   19.1570 C.3    55  LYS55       0.1093
     53  NZ         4.2820   68.7840   18.5350 N.3    55  LYS55      -0.1314
     54  N          8.4310   62.8350   21.4360 N.3    70  GLU70      -0.1245
     55  CA         8.6070   63.4610   20.1270 C.3    70  GLU70       0.1567
     56  C         10.0800   63.7900   19.8400 C.2    70  GLU70       0.2260
     57  O         10.5800   63.5040   18.7630 O.2    70  GLU70      -0.2867
     58  CB         7.7200   64.7050   19.9430 C.3    70  GLU70       0.0388
     59  CG         7.8510   65.2920   18.5450 C.3    70  GLU70       0.1160
     60  CD         6.8360   66.3650   18.1790 C.2    70  GLU70       0.3649
     61  OE1        6.3150   67.0660   19.0590 O.co2  70  GLU70      -0.2457
     62  OE2        6.5730   66.5190   16.9590 O.co2  70  GLU70      -0.2457
     63  N          9.5490   66.6540    8.8070 N.3    89  VAL89      -0.1245
     64  CA         9.9470   67.9730    9.3130 C.3    89  VAL89       0.1561
     65  C         11.1680   67.8570   10.2270 C.2    89  VAL89       0.2260
     66  O         11.2510   66.9440   11.0520 O.2    89  VAL89      -0.2867
     67  CB         8.7900   68.7110   10.0040 C.3    89  VAL89       0.0252
     68  CG1        8.4200   68.0680   11.3330 C.3    89  VAL89       0.0019
     69  CG2        9.1530   70.1680   10.1950 C.3    89  VAL89       0.0019
     70  N         11.9440   73.9650   14.9410 N.3   105  PHE105     -0.1227
     71  CA        11.7880   73.3260   13.6270 C.3   105  PHE105      0.1736
     72  C         12.0440   74.3100   12.5260 C.2   105  PHE105      0.2595
     73  O         11.8520   75.5110   12.7000 O.2   105  PHE105     -0.2718
     74  CB        10.3560   72.8110   13.4270 C.3   105  PHE105      0.0547
     75  CG         9.9790   71.6750   14.3310 C.ar  105  PHE105     -0.0202
     76  CD1       10.3010   70.3680   14.0080 C.ar  105  PHE105     -0.0042
     77  CD2        9.3010   71.9120   15.5050 C.ar  105  PHE105     -0.0042
     78  CE1        9.9540   69.3160   14.8360 C.ar  105  PHE105     -0.0003
     79  CE2        8.9390   70.8590   16.3370 C.ar  105  PHE105     -0.0003
     80  CZ         9.2750   69.5580   16.0050 C.ar  105  PHE105     -0.0000
     81  N         12.4680   73.8010   11.3790 N.am  106  GLU106     -0.1965
     82  CA        12.4690   74.5830   10.1350 C.3   106  GLU106      0.1733
     83  C         11.0630   75.1520    9.9040 C.2   106  GLU106      0.2616
     84  O         10.0560   74.5290   10.3040 O.2   106  GLU106     -0.2715
     85  CB        12.9050   73.7300    8.9460 C.3   106  GLU106      0.0429
     86  CG        11.9980   72.5310    8.6620 C.3   106  GLU106      0.1163
     87  CD        12.4150   71.7000    7.4570 C.2   106  GLU106      0.3649
     88  OE1       12.9130   72.2730    6.4540 O.co2 106  GLU106     -0.2457
     89  OE2       12.2470   70.4590    7.5220 O.co2 106  GLU106     -0.2457
     90  N         10.9870   76.3340    9.3020 N.am  107  MET107     -0.1963
     91  CA         9.6910   77.0010    9.0670 C.3   107  MET107      0.1736
     92  C          9.0640   76.4710    7.7800 C.2   107  MET107      0.2616
     93  O          9.7350   76.4500    6.7630 O.2   107  MET107     -0.2715
     94  CB         9.8940   78.5180    8.9720 C.3   107  MET107      0.0427
     95  CG         8.6300   79.3290    8.7600 C.3   107  MET107      0.0599
     96  SD         7.5170   79.3040   10.1820 S.3   107  MET107     -0.1393
     97  CE         6.1790   80.2550    9.4890 C.3   107  MET107      0.0692
     98  N          7.7960   76.0530    7.8360 N.am  108  LEU108     -0.1963
     99  CA         7.0530   75.5100    6.6810 C.3   108  LEU108      0.1728
    100  C          5.8410   76.4020    6.2710 C.2   108  LEU108      0.2616
    101  O          5.6000   77.4480    6.8950 O.2   108  LEU108     -0.2715
    102  CB         6.6080   74.0680    6.9830 C.3   108  LEU108      0.0311
    103  CG         7.7100   73.0210    7.2500 C.3   108  LEU108      0.0022
    104  CD1        7.0590   71.7180    7.6610 C.3   108  LEU108      0.0001
    105  CD2        8.6140   72.7630    6.0510 C.3   108  LEU108      0.0001
    106  N          5.1350   76.0200    5.2000 N.am  109  SER109     -0.1950
    107  CA         3.9870   76.7780    4.6840 C.3   109  SER109      0.1924
    108  C          2.6520   76.1690    5.1670 C.2   109  SER109      0.2314
    109  O          2.6000   75.6190    6.2820 O.2   109  SER109     -0.2863
    110  CB         4.0720   76.8610    3.1610 C.3   109  SER109      0.2116
    111  OG         3.1960   77.8510    2.6670 O.3   109  SER109     -0.2180
    112  N         -0.7970   73.6450    5.3310 N.3   111  ASN111     -0.1240
    113  CA        -1.1120   72.2410    5.2520 C.3   111  ASN111      0.1653
    114  C         -2.1150   71.9030    4.1680 C.2   111  ASN111      0.2266
    115  O         -2.7430   72.7680    3.5770 O.2   111  ASN111     -0.2867
    116  CB        -1.5730   71.7000    6.6290 C.3   111  ASN111      0.1155
    117  CG        -2.9100   72.2610    7.0770 C.2   111  ASN111      0.2627
    118  OD1       -3.8830   72.2220    6.3440 O.2   111  ASN111     -0.2716
    119  ND2       -2.9630   72.7590    8.2940 N.am  111  ASN111     -0.0877
    120  N         -4.3440   67.8720    7.6100 N.3   158  GLU158     -0.1231
    121  CA        -3.8080   68.8090    8.6480 C.3   158  GLU158      0.1699
    122  C         -2.3160   68.6430    9.0070 C.2   158  GLU158      0.2592
    123  O         -1.6470   69.6280    9.2620 O.2   158  GLU158     -0.2718
    124  CB        -4.5730   68.6960    9.9770 C.3   158  GLU158      0.0402
    125  CG        -5.4260   69.9220   10.3160 C.3   158  GLU158      0.1161
    126  CD        -5.8550   70.0190   11.8280 C.2   158  GLU158      0.3649
    127  OE1       -4.9180   70.2220   12.6570 O.co2 158  GLU158     -0.2457
    128  OE2       -7.0750   69.9390   12.2490 O.co2 158  GLU158     -0.2457
    129  N         -1.8270   67.3960    9.0490 N.am  159  ASN159     -0.1974
    130  CA        -0.4540   67.0860    9.4540 C.3   159  ASN159      0.1688
    131  C          0.5450   66.8740    8.3130 C.2   159  ASN159      0.2292
    132  O          1.6170   66.3250    8.5290 O.2   159  ASN159     -0.2864
    133  CB        -0.4680   65.8460   10.3520 C.3   159  ASN159      0.1181
    134  CG        -1.0040   66.1250   11.7490 C.2   159  ASN159      0.2629
    135  OD1       -1.0160   67.2440   12.2190 O.2   159  ASN159     -0.2716
    136  ND2       -1.4190   65.0620   12.4310 N.am  159  ASN159     -0.0877
    137  N          2.3300   69.2780    5.4780 N.3   161  LEU161     -0.1245
    138  CA         2.5100   70.6900    5.1220 C.3   161  LEU161      0.1561
    139  C          3.3470   70.8800    3.8750 C.2   161  LEU161      0.2260
    140  O          4.2640   70.1170    3.6250 O.2   161  LEU161     -0.2867
    141  CB         3.1710   71.4410    6.2610 C.3   161  LEU161      0.0270
    142  CG         2.2550   71.8740    7.4070 C.3   161  LEU161      0.0019
    143  CD1        1.6800   70.6820    8.1630 C.3   161  LEU161      0.0001
    144  CD2        3.0200   72.7690    8.3640 C.3   161  LEU161      0.0001
    145  N          4.3580   66.3150    9.8120 N.3   173  VAL173     -0.1231
    146  CA         4.6420   66.9480   11.1090 C.3   173  VAL173      0.1692
    147  C          3.9590   66.1970   12.2540 C.2   173  VAL173      0.2592
    148  O          3.0500   65.4000   12.0280 O.2   173  VAL173     -0.2718
    149  CB         4.2360   68.4440   11.1310 C.3   173  VAL173      0.0266
    150  CG1        4.9900   69.2110   10.0600 C.3   173  VAL173      0.0020
    151  CG2        2.7470   68.6150   10.9340 C.3   173  VAL173      0.0020
    152  N          4.4010   66.5180   13.4700 N.am  174  ASP174     -0.1974
    153  CA         3.7780   66.1150   14.7250 C.3   174  ASP174      0.1709
    154  C          3.9140   64.6220   15.0020 C.2   174  ASP174      0.2293
    155  O          3.0330   63.8390   14.6730 O.2   174  ASP174     -0.2864
    156  CB         2.3130   66.5660   14.8030 C.3   174  ASP174      0.1436
    157  CG         1.6980   66.3370   16.1700 C.2   174  ASP174      0.3671
    158  OD1        2.4540   66.1180   17.1520 O.co2 174  ASP174     -0.2456
    159  OD2        0.4520   66.4350   16.2910 O.co2 174  ASP174     -0.2456
@<TRIPOS>BOND
     1   111   110    1
     2   110   107    1
     3   115   114    2
     4   140   139    2
     5   139   138    1
     6   114   113    1
     7   107   108    1
     8   107   106    1
     9   138   137    1
    10   138   141    1
    11   108   109    2
    12   106   100   am
    13   113   112    1
    14   113   116    1
    15   105   103    1
    16   141   142    1
    17   100    99    1
    18   100   101    2
    19   118   117    2
    20    88    87   ar
    21   116   117    1
    22    99   102    1
    23    99    98    1
    24    93    92    2
    25   102   103    1
    26   117   119   am
    27   103   104    1
    28   142   143    1
    29   142   144    1
    30    87    89   ar
    31    87    86    1
    32   120   121    1
    33    92    98   am
    34    92    91    1
    35   131   132    2
    36   131   130    1
    37   121   122    1
    38   121   124    1
    39    86    85    1
    40    95    94    1
    41    95    96    1
    42    63    64    1
    43    85    82    1
    44    94    91    1
    45   122   129   am
    46   122   123    2
    47   129   130    1
    48    91    90    1
    49    90    83   am
    50    64    67    1
    51    64    65    1
    52   130   133    1
    53    97    96    1
    54   145   146    1
    55    83    82    1
    56    83    84    2
    57   124   125    1
    58    67    69    1
    59    67    68    1
    60   150   149    1
    61    82    81    1
    62    65    66    2
    63   125   126    1
    64   133   134    1
    65   151   149    1
    66   146   149    1
    67   146   147    1
    68    81    72   am
    69   134   135    2
    70   134   136   am
    71   126   128   ar
    72   126   127   ar
    73   148   147    2
    74   147   152   am
    75    72    73    2
    76    72    71    1
    77     8     6    1
    78     7     5    1
    79    44    41    1
    80    40    41    1
    81     5     6    1
    82     5     2    1
    83    74    71    1
    84    74    75    1
    85   152   153    1
    86     4     3    2
    87    71    70    1
    88    41    42    1
    89    76    75   ar
    90    76    78   ar
    91     2     3    1
    92     2     1    1
    93    75    77   ar
    94     3     9   am
    95   155   154    2
    96   153   156    1
    97   153   154    1
    98   156   157    1
    99    78    80   ar
   100    42    43    2
   101    77    79   ar
   102     9    10    1
   103    38    37    1
   104    10    11    1
   105    80    79   ar
   106   157   159   ar
   107   157   158   ar
   108    37    39    1
   109    37    34    1
   110    62    60   ar
   111    36    35    2
   112    11    13   am
   113    11    12    2
   114    35    34    1
   115    13    14    1
   116    16    15    2
   117    34    33    1
   118    60    59    1
   119    60    61   ar
   120    53    52    1
   121    59    58    1
   122    57    56    2
   123    51    52    1
   124    51    50    1
   125    45    46    1
   126    14    15    1
   127    14    17    1
   128    31    32   ar
   129    31    29   ar
   130    49    50    1
   131    49    46    1
   132    32    30   ar
   133    17    18    1
   134    46    47    1
   135    56    55    1
   136    58    55    1
   137    29    27   ar
   138    55    54    1
   139    30    28   ar
   140    18    19    1
   141    47    48    2
   142    19    20    1
   143    27    28   ar
   144    27    26    1
   145    26    23    1
   146    20    21    1
   147    23    24    1
   148    23    22    1
   149    24    25    2
