@<TRIPOS>MOLECULE
tmp/5aipB00.pdb
 108 102 0 0 0
SMALL
GASTEIGER

@<TRIPOS>ATOM
      1  N         29.6440   20.4050   25.8070 N.3    10  ARG10      -0.1245
      2  CA        29.9450   19.6270   24.6100 C.3    10  ARG10       0.1563
      3  C         28.7090   18.9650   24.0230 C.2    10  ARG10       0.2260
      4  O         28.5160   18.9590   22.8120 O.2    10  ARG10      -0.2867
      5  CB        30.9740   18.5420   24.9230 C.3    10  ARG10       0.0307
      6  CG        31.4200   17.8040   23.6890 C.3    10  ARG10       0.0489
      7  CD        32.2590   16.5910   24.0300 C.3    10  ARG10       0.2205
      8  NE        32.2800   15.6390   22.9180 N.pl3  10  ARG10      -0.0865
      9  CZ        32.5090   14.3370   23.0500 C.cat  10  ARG10       0.5346
     10  NH1       32.7430   13.8100   24.2500 N.pl3  10  ARG10       0.1354
     11  NH2       32.5030   13.5610   21.9800 N.pl3  10  ARG10       0.1354
     12  N         26.8020   21.4840   22.0790 N.3    13  LEU13      -0.1245
     13  CA        27.3830   21.7730   20.7660 C.3    13  LEU13       0.1561
     14  C         27.0370   20.7100   19.7510 C.2    13  LEU13       0.2260
     15  O         26.7140   20.9990   18.5960 O.2    13  LEU13      -0.2867
     16  CB        28.8940   21.8790   20.8500 C.3    13  LEU13       0.0270
     17  CG        29.4820   23.1570   21.4070 C.3    13  LEU13       0.0019
     18  CD1       30.9910   23.0660   21.2250 C.3    13  LEU13       0.0001
     19  CD2       28.8900   24.3480   20.6790 C.3    13  LEU13       0.0001
     20  N         24.4330   18.8450   19.5420 N.3    14  THR14      -0.1218
     21  CA        23.0680   18.9550   19.0340 C.3    14  THR14       0.1862
     22  C         22.9650   20.0220   17.9550 C.2    14  THR14       0.2287
     23  O         22.1660   19.9080   17.0340 O.2    14  THR14      -0.2866
     24  CB        22.0710   19.3020   20.1470 C.3    14  THR14       0.1770
     25  OG1       22.1970   20.6880   20.4830 O.3    14  THR14      -0.2211
     26  CG2       22.3420   18.4720   21.3780 C.3    14  THR14       0.0375
     27  N         25.4640   20.7610   15.8970 N.3    16  PHE16      -0.1227
     28  CA        26.2410   20.3630   14.7240 C.3    16  PHE16       0.1736
     29  C         25.8660   19.0110   14.1600 C.2    16  PHE16       0.2595
     30  O         26.2270   18.6960   13.0280 O.2    16  PHE16      -0.2718
     31  CB        27.7350   20.4210   15.0320 C.3    16  PHE16       0.0547
     32  CG        28.2360   21.8180   15.2130 C.ar   16  PHE16      -0.0202
     33  CD1       28.6190   22.5660   14.1150 C.ar   16  PHE16      -0.0042
     34  CD2       28.2910   22.3960   16.4660 C.ar   16  PHE16      -0.0042
     35  CE1       29.0730   23.8490   14.2700 C.ar   16  PHE16      -0.0003
     36  CE2       28.7440   23.6830   16.6260 C.ar   16  PHE16      -0.0003
     37  CZ        29.1260   24.4180   15.5290 C.ar   16  PHE16      -0.0000
     38  N         25.1080   18.2360   14.9300 N.am   17  ARG17      -0.1980
     39  CA        24.6640   16.9120   14.4930 C.3    17  ARG17       0.1597
     40  C         24.0110   16.9100   13.1230 C.2    17  ARG17       0.2287
     41  O         24.3490   16.0660   12.2980 O.2    17  ARG17      -0.2864
     42  CB        23.6650   16.3170   15.4920 C.3    17  ARG17       0.0334
     43  CG        23.1890   14.9200   15.1110 C.3    17  ARG17       0.0492
     44  CD        22.4950   14.2020   16.2510 C.3    17  ARG17       0.2205
     45  NE        23.4400   13.7670   17.2710 N.pl3  17  ARG17      -0.0865
     46  CZ        23.1100   13.4920   18.5280 C.cat  17  ARG17       0.5346
     47  NH1       21.8480   13.5980   18.9280 N.pl3  17  ARG17       0.1354
     48  NH2       24.0450   13.1040   19.3850 N.pl3  17  ARG17       0.1354
     49  N         26.7420   17.2350   10.3970 N.3    20  LEU20      -0.1245
     50  CA        27.5860   16.0560   10.2040 C.3    20  LEU20       0.1561
     51  C         26.8040   14.8680    9.6280 C.2    20  LEU20       0.2260
     52  O         27.3280   14.1330    8.8020 O.2    20  LEU20      -0.2867
     53  CB        28.2680   15.6400   11.5100 C.3    20  LEU20       0.0270
     54  CG        29.3170   16.5880   12.0890 C.3    20  LEU20       0.0019
     55  CD1       30.0500   15.9070   13.2380 C.3    20  LEU20       0.0001
     56  CD2       30.2950   17.0730   11.0340 C.3    20  LEU20       0.0001
     57  N         30.9590   12.2650   14.6700 N.3    27  ASP27      -0.1239
     58  CA        31.7000   13.2720   15.4450 C.3    27  ASP27       0.1674
     59  C         33.2010   12.9430   15.4850 C.2    27  ASP27       0.2266
     60  O         34.0460   13.8270   15.3330 O.2    27  ASP27      -0.2867
     61  CB        31.1440   13.3970   16.8780 C.3    27  ASP27       0.1410
     62  CG        32.0050   14.3170   17.7820 C.2    27  ASP27       0.3668
     63  OD1       32.6450   15.2720   17.2800 O.co2  27  ASP27      -0.2456
     64  OD2       32.0430   14.0800   19.0070 O.co2  27  ASP27      -0.2456
     65  N         34.8590   13.4490   12.0680 N.3    30  TRP30      -0.1241
     66  CA        35.0120   14.8730   11.8200 C.3    30  TRP30       0.1605
     67  C         36.1270   15.4490   12.6790 C.2    30  TRP30       0.2264
     68  O         36.8960   16.3090   12.2350 O.2    30  TRP30      -0.2867
     69  CB        33.6990   15.6080   12.0900 C.3    30  TRP30       0.0550
     70  CG        33.8290   17.1040   12.0160 C.ar   30  TRP30       0.0003
     71  CD1       33.5930   17.9960   13.0190 C.ar   30  TRP30       0.0946
     72  CD2       34.2880   17.8710   10.8940 C.ar   30  TRP30       0.0152
     73  NE1       33.8330   19.2780   12.5770 N.ar   30  TRP30      -0.2442
     74  CE2       34.2640   19.2270   11.2760 C.ar   30  TRP30       0.0810
     75  CE3       34.6860   17.5420    9.5890 C.ar   30  TRP30       0.0012
     76  CZ2       34.6350   20.2600   10.4070 C.ar   30  TRP30       0.0191
     77  CZ3       35.0620   18.5630    8.7310 C.ar   30  TRP30       0.0001
     78  CH2       35.0320   19.9070    9.1440 C.ar   30  TRP30       0.0015
     79  N         39.4090   17.2890   11.0830 N.3    34  ARG34      -0.1245
     80  CA        39.8240   18.6400   11.4690 C.3    34  ARG34       0.1563
     81  C         41.2600   18.6840   11.9710 C.2    34  ARG34       0.2260
     82  O         42.0100   19.6000   11.6280 O.2    34  ARG34      -0.2867
     83  CB        38.9220   19.2200   12.5510 C.3    34  ARG34       0.0307
     84  CG        37.5290   19.4870   12.1270 C.3    34  ARG34       0.0489
     85  CD        36.9040   20.4570   13.1000 C.3    34  ARG34       0.2205
     86  NE        37.6240   21.7170   13.0780 N.pl3  34  ARG34      -0.0865
     87  CZ        37.0750   22.8890   13.3600 C.cat  34  ARG34       0.5346
     88  NH1       35.7930   22.9550   13.7030 N.pl3  34  ARG34       0.1354
     89  NH2       37.8140   23.9860   13.3050 N.pl3  34  ARG34       0.1354
     90  N         29.9710   24.3340    9.2200 N.3    97  VAL97      -0.1245
     91  CA        30.3110   24.3200   10.6360 C.3    97  VAL97       0.1561
     92  C         30.5950   25.7530   11.1130 C.2    97  VAL97       0.2260
     93  O         30.1630   26.1330   12.2050 O.2    97  VAL97      -0.2867
     94  CB        31.5410   23.3950   10.9260 C.3    97  VAL97       0.0252
     95  CG1       32.0650   23.6140   12.3470 C.3    97  VAL97       0.0019
     96  CG2       31.1500   21.9390   10.7750 C.3    97  VAL97       0.0019
     97  N         28.5670   28.0190   14.0040 N.3   101  TYR101     -0.1241
     98  CA        29.3130   28.7470   15.0340 C.3   101  TYR101      0.1605
     99  C         28.9880   30.2440   15.0490 C.2   101  TYR101      0.2264
    100  O         28.9370   30.8460   16.1160 O.2   101  TYR101     -0.2867
    101  CB        30.8260   28.5640   14.8730 C.3   101  TYR101      0.0534
    102  CG        31.3970   27.3760   15.6030 C.ar  101  TYR101     -0.0201
    103  CD1       31.2780   27.2830   16.9830 C.ar  101  TYR101     -0.0009
    104  CD2       32.0900   26.3730   14.9330 C.ar  101  TYR101     -0.0009
    105  CE1       31.8080   26.2050   17.6820 C.ar  101  TYR101      0.0417
    106  CE2       32.6280   25.2910   15.6230 C.ar  101  TYR101      0.0417
    107  CZ        32.4840   25.2100   17.0010 C.ar  101  TYR101      0.1957
    108  OH        33.0090   24.1370   17.7050 O.3   101  TYR101     -0.2866
@<TRIPOS>BOND
     1    77    78   ar
     2    77    75   ar
     3    52    51    2
     4    78    76   ar
     5    90    91    1
     6    75    72   ar
     7    51    50    1
     8    50    49    1
     9    50    53    1
    10    76    74   ar
    11    91    94    1
    12    91    92    1
    13    96    94    1
    14    72    74   ar
    15    72    70   ar
    16    94    95    1
    17    56    54    1
    18    79    80    1
    19    92    93    2
    20    74    73   ar
    21    80    81    1
    22    80    83    1
    23    53    54    1
    24    82    81    2
    25    66    65    1
    26    66    69    1
    27    66    67    1
    28    70    69    1
    29    70    71   ar
    30    54    55    1
    31    84    83    1
    32    84    85    1
    33    68    67    2
    34    41    40    2
    35    73    71   ar
    36    30    29    2
    37    86    85    1
    38    86    87    2
    39    40    39    1
    40    89    87    1
    41    87    88    1
    42    97    98    1
    43    33    35   ar
    44    33    32   ar
    45    29    28    1
    46    29    38   am
    47    35    37   ar
    48    39    38    1
    49    39    42    1
    50    57    58    1
    51    28    31    1
    52    28    27    1
    53   101    98    1
    54   101   102    1
    55   104   102   ar
    56   104   106   ar
    57    31    32    1
    58    98    99    1
    59    99   100    2
    60    43    42    1
    61    43    44    1
    62    32    34   ar
    63    60    59    2
    64    58    59    1
    65    58    61    1
    66    37    36   ar
    67   102   103   ar
    68   106   107   ar
    69    44    45    1
    70    34    36   ar
    71    61    62    1
    72   103   105   ar
    73   107   105   ar
    74   107   108    1
    75    23    22    2
    76    45    46    2
    77    63    62   ar
    78    62    64   ar
    79    22    21    1
    80    46    47    1
    81    46    48    1
    82    15    14    2
    83    21    20    1
    84    21    24    1
    85    14    13    1
    86    24    25    1
    87    24    26    1
    88    19    17    1
    89    13    16    1
    90    13    12    1
    91    16    17    1
    92    18    17    1
    93    11     9    1
    94     4     3    2
    95     8     9    2
    96     8     7    1
    97     9    10    1
    98     6     7    1
    99     6     5    1
   100     3     2    1
   101     2     5    1
   102     2     1    1
