@<TRIPOS>MOLECULE
tmp/5aisA00.pdb
 151 146 0 0 0
SMALL
GASTEIGER

@<TRIPOS>ATOM
      1  N         26.5970  -16.5490   -7.3080 N.3     7  TYR7       -0.1227
      2  CA        27.5060  -16.6570   -6.1640 C.3     7  TYR7        0.1736
      3  C         27.6260  -18.1260   -5.7470 C.2     7  TYR7        0.2595
      4  O         26.9280  -18.9790   -6.2890 O.2     7  TYR7       -0.2718
      5  CB        26.9890  -15.8020   -4.9970 C.3     7  TYR7        0.0548
      6  CG        27.9820  -15.6020   -3.8690 C.ar    7  TYR7       -0.0200
      7  CD1       29.1730  -14.9130   -4.0770 C.ar    7  TYR7       -0.0009
      8  CD2       27.7260  -16.0930   -2.5910 C.ar    7  TYR7       -0.0009
      9  CE1       30.0820  -14.7270   -3.0500 C.ar    7  TYR7        0.0417
     10  CE2       28.6280  -15.9090   -1.5580 C.ar    7  TYR7        0.0417
     11  CZ        29.8040  -15.2250   -1.7910 C.ar    7  TYR7        0.1957
     12  OH        30.7010  -15.0400   -0.7650 O.3     7  TYR7       -0.2866
     13  N         28.5150  -18.4210   -4.8020 N.am    8  PHE8       -0.1976
     14  CA        28.6180  -19.7670   -4.2330 C.3     8  PHE8        0.1639
     15  C         27.3560  -20.1220   -3.4510 C.2     8  PHE8        0.2290
     16  O         26.5510  -19.2430   -3.1250 O.2     8  PHE8       -0.2864
     17  CB        29.8230  -19.8740   -3.2970 C.3     8  PHE8        0.0560
     18  CG        31.1440  -19.6210   -3.9660 C.ar    8  PHE8       -0.0200
     19  CD1       31.6270  -20.4960   -4.9310 C.ar    8  PHE8       -0.0042
     20  CD2       31.9130  -18.5180   -3.6200 C.ar    8  PHE8       -0.0042
     21  CE1       32.8470  -20.2680   -5.5460 C.ar    8  PHE8       -0.0003
     22  CE2       33.1330  -18.2850   -4.2310 C.ar    8  PHE8       -0.0003
     23  CZ        33.6020  -19.1620   -5.1940 C.ar    8  PHE8       -0.0000
     24  N         26.2210  -20.2820   -0.4730 N.3    10  MET10      -0.1245
     25  CA        26.4530  -19.8050    0.8870 C.3    10  MET10       0.1570
     26  C         25.8740  -18.4000    1.0140 C.2    10  MET10       0.2261
     27  O         25.5310  -17.7760    0.0090 O.2    10  MET10      -0.2867
     28  CB        27.9510  -19.7860    1.2080 C.3    10  MET10       0.0387
     29  CG        28.7490  -18.7610    0.4150 C.3    10  MET10       0.0595
     30  SD        30.4980  -19.1690    0.2600 S.3    10  MET10      -0.1393
     31  CE        30.9260  -19.5160    1.9610 C.3    10  MET10       0.0692
     32  N         27.5580  -15.5890    2.6860 N.3    12  GLY12      -0.1210
     33  CA        28.7440  -14.8310    2.2760 C.3    12  GLY12       0.1956
     34  C         28.4880  -13.3810    1.8990 C.2    12  GLY12       0.2611
     35  O         27.6590  -12.7070    2.5130 O.2    12  GLY12      -0.2717
     36  N         29.2040  -12.9070    0.8790 N.am   13  ARG13      -0.1979
     37  CA        29.0810  -11.5280    0.4040 C.3    13  ARG13       0.1597
     38  C         27.7850  -11.2540   -0.3700 C.2    13  ARG13       0.2287
     39  O         27.4100  -10.0960   -0.5590 O.2    13  ARG13      -0.2864
     40  CB        30.2760  -11.1630   -0.4850 C.3    13  ARG13       0.0334
     41  CG        31.6110  -11.0850    0.2420 C.3    13  ARG13       0.0492
     42  CD        32.7160  -10.6470   -0.7090 C.3    13  ARG13       0.2205
     43  NE        33.8770  -10.0780   -0.0160 N.pl3  13  ARG13      -0.0865
     44  CZ        35.0150  -10.7200    0.2570 C.cat  13  ARG13       0.5346
     45  NH1       35.1930  -11.9950   -0.0790 N.pl3  13  ARG13       0.1354
     46  NH2       35.9910  -10.0750    0.8870 N.pl3  13  ARG13       0.1354
     47  N         32.1390  -25.4750   -7.2180 N.3    35  GLN35      -0.1245
     48  CA        33.5080  -25.1620   -7.6470 C.3    35  GLN35       0.1566
     49  C         33.7840  -25.5590   -9.1020 C.2    35  GLN35       0.2260
     50  O         34.5940  -24.9200   -9.7740 O.2    35  GLN35      -0.2867
     51  CB        34.5400  -25.8340   -6.7280 C.3    35  GLN35       0.0367
     52  CG        34.9260  -25.0170   -5.5020 C.3    35  GLN35       0.0905
     53  CD        33.8330  -24.9380   -4.4500 C.2    35  GLN35       0.2608
     54  OE1       32.7240  -25.4400   -4.6390 O.2    35  GLN35      -0.2717
     55  NE2       34.1470  -24.3010   -3.3250 N.am   35  GLN35      -0.0878
     56  N         32.9980  -22.8070  -11.6680 N.3    38  TRP38      -0.1241
     57  CA        33.5540  -21.4980  -11.3100 C.3    38  TRP38       0.1605
     58  C         34.6310  -21.0160  -12.3030 C.2    38  TRP38       0.2264
     59  O         34.5660  -19.8720  -12.7540 O.2    38  TRP38      -0.2867
     60  CB        34.0510  -21.5030   -9.8500 C.3    38  TRP38       0.0550
     61  CG        34.8230  -20.2810   -9.4120 C.ar   38  TRP38       0.0003
     62  CD1       36.0070  -20.2670   -8.7320 C.ar   38  TRP38       0.0946
     63  CD2       34.4620  -18.9070   -9.6140 C.ar   38  TRP38       0.0152
     64  NE1       36.4080  -18.9740   -8.5010 N.ar   38  TRP38      -0.2442
     65  CE2       35.4790  -18.1190   -9.0330 C.ar   38  TRP38       0.0810
     66  CE3       33.3820  -18.2650  -10.2340 C.ar   38  TRP38       0.0012
     67  CZ2       35.4480  -16.7220   -9.0520 C.ar   38  TRP38       0.0191
     68  CZ3       33.3530  -16.8770  -10.2520 C.ar   38  TRP38       0.0001
     69  CH2       34.3810  -16.1210   -9.6640 C.ar   38  TRP38       0.0015
     70  N         32.2890   -4.2240    6.5470 N.3    95  ASP95      -0.1239
     71  CA        32.9120   -4.9330    5.4350 C.3    95  ASP95       0.1674
     72  C         34.4290   -5.0270    5.6080 C.2    95  ASP95       0.2266
     73  O         35.0190   -6.0780    5.3500 O.2    95  ASP95      -0.2867
     74  CB        32.5790   -4.2450    4.1120 C.3    95  ASP95       0.1410
     75  CG        32.7700   -5.1550    2.9260 C.2    95  ASP95       0.3668
     76  OD1       32.0240   -6.1510    2.8230 O.co2  95  ASP95      -0.2456
     77  OD2       33.6550   -4.8770    2.0960 O.co2  95  ASP95      -0.2456
     78  N         35.0950   -7.8270    8.2440 N.3    98  MET98      -0.1230
     79  CA        34.8310   -9.1650    7.7050 C.3    98  MET98       0.1702
     80  C         35.8930   -9.5700    6.6820 C.2    98  MET98       0.2593
     81  O         36.2250  -10.7520    6.5600 O.2    98  MET98      -0.2718
     82  CB        33.4440   -9.2290    7.0610 C.3    98  MET98       0.0401
     83  CG        32.2790   -9.0330    8.0210 C.3    98  MET98       0.0596
     84  SD        32.1740  -10.2690    9.3280 S.3    98  MET98      -0.1393
     85  CE        31.6620  -11.7100    8.4000 C.3    98  MET98       0.0692
     86  N         36.4290   -8.5870    5.9630 N.am   99  SER99      -0.1952
     87  CA        37.4910   -8.8260    4.9820 C.3    99  SER99       0.1924
     88  C         38.8290   -9.2490    5.6020 C.2    99  SER99       0.2314
     89  O         39.6750   -9.8050    4.9060 O.2    99  SER99      -0.2863
     90  CB        37.6940   -7.5850    4.1090 C.3    99  SER99       0.2116
     91  OG        36.5450   -7.3460    3.3160 O.3    99  SER99      -0.2180
     92  N         39.2840  -16.2800    4.8040 N.3   103  TRP103     -0.1227
     93  CA        38.2300  -17.2230    4.4260 C.3   103  TRP103      0.1737
     94  C         38.7260  -18.3380    3.5000 C.2   103  TRP103      0.2595
     95  O         38.1760  -19.4370    3.5100 O.2   103  TRP103     -0.2718
     96  CB        37.0570  -16.4880    3.7630 C.3   103  TRP103      0.0564
     97  CG        36.4220  -15.4390    4.6330 C.ar  103  TRP103      0.0003
     98  CD1       36.5450  -14.0860    4.5040 C.ar  103  TRP103      0.0946
     99  CD2       35.5710  -15.6580    5.7660 C.ar  103  TRP103      0.0152
    100  NE1       35.8230  -13.4480    5.4850 N.ar  103  TRP103     -0.2442
    101  CE2       35.2150  -14.3890    6.2720 C.ar  103  TRP103      0.0810
    102  CE3       35.0730  -16.8020    6.4000 C.ar  103  TRP103      0.0012
    103  CZ2       34.3870  -14.2320    7.3870 C.ar  103  TRP103      0.0191
    104  CZ3       34.2500  -16.6450    7.5090 C.ar  103  TRP103      0.0001
    105  CH2       33.9160  -15.3690    7.9890 C.ar  103  TRP103      0.0015
    106  N         39.7610  -18.0530    2.7110 N.am  104  ALA104     -0.1980
    107  CA        40.2750  -19.0060    1.7190 C.3   104  ALA104      0.1597
    108  C         41.5880  -19.6760    2.1360 C.2   104  ALA104      0.2287
    109  O         42.2510  -20.3060    1.3070 O.2   104  ALA104     -0.2864
    110  CB        40.4500  -18.3090    0.3760 C.3   104  ALA104      0.0319
    111  N         22.9490   -5.4200    7.0630 N.3   151  TYR151     -0.1241
    112  CA        24.3400   -5.8470    6.9610 C.3   151  TYR151      0.1605
    113  C         24.9160   -6.2400    8.3160 C.2   151  TYR151      0.2264
    114  O         25.6650   -7.2110    8.4110 O.2   151  TYR151     -0.2867
    115  CB        25.2000   -4.7600    6.3080 C.3   151  TYR151      0.0534
    116  CG        26.4330   -5.3050    5.6250 C.ar  151  TYR151     -0.0201
    117  CD1       26.3240   -6.2730    4.6300 C.ar  151  TYR151     -0.0009
    118  CD2       27.7040   -4.8520    5.9640 C.ar  151  TYR151     -0.0009
    119  CE1       27.4460   -6.7800    3.9980 C.ar  151  TYR151      0.0417
    120  CE2       28.8320   -5.3520    5.3330 C.ar  151  TYR151      0.0417
    121  CZ        28.6970   -6.3160    4.3520 C.ar  151  TYR151      0.1957
    122  OH        29.8080   -6.8200    3.7200 O.3   151  TYR151     -0.2866
    123  N         23.5490   -9.7000    9.0860 N.3   154  ILE154     -0.1231
    124  CA        24.2160  -10.6860    8.2340 C.3   154  ILE154      0.1692
    125  C         25.6370  -10.9680    8.7270 C.2   154  ILE154      0.2592
    126  O         26.0140  -12.1230    8.9120 O.2   154  ILE154     -0.2718
    127  CB        24.2390  -10.2250    6.7560 C.3   154  ILE154      0.0266
    128  CG1       22.8220  -10.2670    6.1720 C.3   154  ILE154      0.0019
    129  CG2       25.1720  -11.0950    5.9180 C.3   154  ILE154      0.0020
    130  CD1       22.6300   -9.3610    4.9760 C.3   154  ILE154      0.0001
    131  N         26.4190   -9.9140    8.9420 N.am  155  CYS155     -0.1970
    132  CA        27.7960  -10.0800    9.4040 C.3   155  CYS155      0.1712
    133  C         27.8510  -10.7690   10.7670 C.2   155  CYS155      0.2296
    134  O         28.6290  -11.7030   10.9570 O.2   155  CYS155     -0.2864
    135  CB        28.5190   -8.7340    9.4580 C.3   155  CYS155      0.0983
    136  SG        28.7890   -8.0060    7.8280 S.3   155  CYS155     -0.0798
    137  N         27.2880  -14.6440   10.8090 N.3   158  THR158     -0.1218
    138  CA        28.4810  -15.4240   10.4740 C.3   158  THR158      0.1862
    139  C         29.5070  -15.3950   11.6130 C.2   158  THR158      0.2287
    140  O         30.1090  -16.4200   11.9300 O.2   158  THR158     -0.2866
    141  CB        29.1120  -14.9400    9.1510 C.3   158  THR158      0.1770
    142  OG1       28.2150  -15.2250    8.0720 O.3   158  THR158     -0.2211
    143  CG2       30.4460  -15.6280    8.8810 C.3   158  THR158      0.0375
    144  N         28.3600  -20.9120    6.2650 N.3   198  LEU198     -0.1245
    145  CA        28.7820  -19.5450    5.9560 C.3   198  LEU198      0.1561
    146  C         27.8320  -18.8820    4.9630 C.2   198  LEU198      0.2260
    147  O         26.8230  -19.4550    4.5530 O.2   198  LEU198     -0.2867
    148  CB        30.2010  -19.5550    5.3790 C.3   198  LEU198      0.0270
    149  CG        31.2970  -20.1060    6.2920 C.3   198  LEU198      0.0019
    150  CD1       32.6340  -20.1270    5.5670 C.3   198  LEU198      0.0001
    151  CD2       31.3880  -19.2860    7.5710 C.3   198  LEU198      0.0001
@<TRIPOS>BOND
     1    59    58    2
     2    58    57    1
     3    56    57    1
     4    57    60    1
     5    68    66   ar
     6    68    69   ar
     7    66    63   ar
     8    60    61    1
     9    50    49    2
    10    69    67   ar
    11    63    61   ar
    12    63    65   ar
    13    61    62   ar
    14    49    48    1
    15    67    65   ar
    16    65    64   ar
    17    62    64   ar
    18    48    47    1
    19    48    51    1
    20     1     2    1
    21    51    52    1
    22     4     3    2
    23     2     3    1
    24     2     5    1
    25     3    13   am
    26    21    23   ar
    27    21    19   ar
    28    52    53    1
    29    23    22   ar
    30     5     6    1
    31    19    18   ar
    32    13    14    1
    33    54    53    2
    34    53    55   am
    35    14    15    1
    36    14    17    1
    37    22    20   ar
    38     7     6   ar
    39     7     9   ar
    40    18    20   ar
    41    18    17    1
    42     6     8   ar
    43    15    16    2
    44     9    11   ar
    45     8    10   ar
    46    11    10   ar
    47    11    12    1
    48    42    43    1
    49    42    41    1
    50    39    38    2
    51    40    41    1
    52    40    37    1
    53    24    25    1
    54    38    37    1
    55    45    44    1
    56    43    44    2
    57    27    26    2
    58    44    46    1
    59    30    29    1
    60    30    31    1
    61   110   107    1
    62    37    36    1
    63    29    28    1
    64    36    34   am
    65    25    26    1
    66    25    28    1
    67   109   108    2
    68   107   108    1
    69   107   106    1
    70    34    33    1
    71    34    35    2
    72    77    75   ar
    73    33    32    1
    74   106    94   am
    75    76    75   ar
    76    75    74    1
    77    91    90    1
    78    94    95    2
    79    94    93    1
    80   122   121    1
    81    96    93    1
    82    96    97    1
    83   119   121   ar
    84   119   117   ar
    85    90    87    1
    86    74    71    1
    87   121   120   ar
    88    93    92    1
    89    98    97   ar
    90    98   100   ar
    91   147   146    2
    92   117   116   ar
    93    97    99   ar
    94    89    88    2
    95   146   145    1
    96   130   128    1
    97    87    88    1
    98    87    86    1
    99   120   118   ar
   100    73    72    2
   101   148   145    1
   102   148   149    1
   103    71    72    1
   104    71    70    1
   105   100   101   ar
   106   150   149    1
   107   116   118   ar
   108   116   115    1
   109    99   101   ar
   110    99   102   ar
   111   129   127    1
   112   145   144    1
   113    86    80   am
   114   128   127    1
   115   101   103   ar
   116   149   151    1
   117   115   112    1
   118   102   104   ar
   119    81    80    2
   120    80    79    1
   121   127   124    1
   122   112   111    1
   123   112   113    1
   124    82    79    1
   125    82    83    1
   126   103   105   ar
   127   104   105   ar
   128    79    78    1
   129   136   135    1
   130    83    84    1
   131   142   141    1
   132   124   125    1
   133   124   123    1
   134   113   114    2
   135    85    84    1
   136   125   126    2
   137   125   131   am
   138   143   141    1
   139   131   132    1
   140   141   138    1
   141   132   135    1
   142   132   133    1
   143   138   137    1
   144   138   139    1
   145   133   134    2
   146   139   140    2
