@<TRIPOS>MOLECULE
tmp/5aivC00.pdb
 146 139 0 0 0
SMALL
GASTEIGER

@<TRIPOS>ATOM
      1  N         20.3980   24.0580  -25.2580 N.3     7  TYR7       -0.1227
      2  CA        19.5720   25.2090  -24.8690 C.3     7  TYR7        0.1736
      3  C         20.4580   26.2250  -24.1490 C.2     7  TYR7        0.2595
      4  O         21.6340   25.9610  -23.9350 O.2     7  TYR7       -0.2718
      5  CB        18.4170   24.7520  -23.9670 C.3     7  TYR7        0.0548
      6  CG        17.3260   25.7730  -23.7100 C.ar    7  TYR7       -0.0200
      7  CD1       16.5710   26.3140  -24.7560 C.ar    7  TYR7       -0.0009
      8  CD2       17.0260   26.1740  -22.4050 C.ar    7  TYR7       -0.0009
      9  CE1       15.5490   27.2480  -24.5050 C.ar    7  TYR7        0.0417
     10  CE2       16.0130   27.0870  -22.1430 C.ar    7  TYR7        0.0417
     11  CZ        15.2770   27.6260  -23.1910 C.ar    7  TYR7        0.1957
     12  OH        14.2760   28.5430  -22.9030 O.3     7  TYR7       -0.2866
     13  N         19.9070   27.3850  -23.7870 N.am    8  PHE8       -0.1976
     14  CA        20.6490   28.3500  -22.9800 C.3     8  PHE8        0.1639
     15  C         20.8660   27.7880  -21.5780 C.2     8  PHE8        0.2290
     16  O         20.2450   26.7830  -21.2020 O.2     8  PHE8       -0.2864
     17  CB        19.9090   29.6880  -22.9040 C.3     8  PHE8        0.0560
     18  CG        19.7350   30.3650  -24.2300 C.ar    8  PHE8       -0.0200
     19  CD1       20.8400   30.7290  -24.9970 C.ar    8  PHE8       -0.0042
     20  CD2       18.4610   30.6560  -24.7110 C.ar    8  PHE8       -0.0042
     21  CE1       20.6770   31.3590  -26.2250 C.ar    8  PHE8       -0.0003
     22  CE2       18.2890   31.2890  -25.9370 C.ar    8  PHE8       -0.0003
     23  CZ        19.4020   31.6360  -26.6980 C.ar    8  PHE8       -0.0000
     24  N         19.6480   27.9630  -18.6500 N.3    10  MET10      -0.1245
     25  CA        18.4550   28.3170  -17.8880 C.3    10  MET10       0.1570
     26  C         17.4760   27.1590  -17.9860 C.2    10  MET10       0.2261
     27  O         17.6430   26.2690  -18.8230 O.2    10  MET10      -0.2867
     28  CB        17.8090   29.6130  -18.4050 C.3    10  MET10       0.0387
     29  CG        17.3450   29.5820  -19.8620 C.3    10  MET10       0.0595
     30  SD        16.4140   31.0510  -20.3660 S.3    10  MET10      -0.1393
     31  CE        17.6150   32.3470  -20.0830 C.3    10  MET10       0.0692
     32  N         13.9330   27.4570  -18.5730 N.3    12  GLY12      -0.1210
     33  CA        13.1860   27.8720  -19.7610 C.3    12  GLY12       0.1956
     34  C         12.3860   26.7790  -20.4390 C.2    12  GLY12       0.2611
     35  O         11.7380   25.9640  -19.7770 O.2    12  GLY12      -0.2717
     36  N         12.4640   26.7550  -21.7650 N.am   13  ARG13      -0.1979
     37  CA        11.7090   25.8130  -22.5830 C.3    13  ARG13       0.1597
     38  C         12.2700   24.3890  -22.5920 C.2    13  ARG13       0.2287
     39  O         11.5520   23.4410  -22.9250 O.2    13  ARG13      -0.2864
     40  CB        11.5760   26.3440  -24.0070 C.3    13  ARG13       0.0334
     41  CG        10.5750   27.4740  -24.1540 C.3    13  ARG13       0.0492
     42  CD        10.5660   27.9830  -25.5720 C.3    13  ARG13       0.2205
     43  NE         9.2890   28.6010  -25.9320 N.pl3  13  ARG13      -0.0865
     44  CZ         9.0950   29.9030  -26.1040 C.cat  13  ARG13       0.5346
     45  NH1       10.0920   30.7630  -25.9360 N.pl3  13  ARG13       0.1354
     46  NH2        7.8930   30.3460  -26.4360 N.pl3  13  ARG13       0.1354
     47  N         24.9470   33.3820  -24.4740 N.3    35  GLN35      -0.1245
     48  CA        24.2770   34.2670  -25.4310 C.3    35  GLN35       0.1566
     49  C         25.1770   34.7020  -26.5880 C.2    35  GLN35       0.2260
     50  O         24.7210   34.8050  -27.7330 O.2    35  GLN35      -0.2867
     51  CB        23.6980   35.4830  -24.7050 C.3    35  GLN35       0.0367
     52  CG        22.2920   35.2640  -24.1610 C.3    35  GLN35       0.0905
     53  CD        21.2110   35.8930  -25.0330 C.2    35  GLN35       0.2608
     54  OE1       20.2670   36.4940  -24.5220 O.2    35  GLN35      -0.2717
     55  NE2       21.3500   35.7650  -26.3490 N.am   35  GLN35      -0.0878
     56  N          1.5480   26.5020  -22.2210 N.3    95  ASP95      -0.1239
     57  CA         2.5100   27.0550  -23.1680 C.3    95  ASP95       0.1674
     58  C          2.0170   28.3410  -23.8260 C.2    95  ASP95       0.2266
     59  O          2.7990   29.2780  -24.0020 O.2    95  ASP95      -0.2867
     60  CB         2.8910   26.0380  -24.2390 C.3    95  ASP95       0.1410
     61  CG         4.2450   26.3360  -24.8650 C.2    95  ASP95       0.3668
     62  OD1        5.2270   26.4720  -24.1060 O.co2  95  ASP95      -0.2456
     63  OD2        4.3380   26.4130  -26.1060 O.co2  95  ASP95      -0.2456
     64  N          2.5530   31.1800  -21.2610 N.3    98  MET98      -0.1230
     65  CA         3.9910   31.3910  -21.1140 C.3    98  MET98       0.1702
     66  C          4.6060   32.0510  -22.3470 C.2    98  MET98       0.2593
     67  O          5.5520   32.8370  -22.2270 O.2    98  MET98      -0.2718
     68  CB         4.7090   30.0730  -20.8390 C.3    98  MET98       0.0401
     69  CG         4.4060   29.4350  -19.4980 C.3    98  MET98       0.0596
     70  SD         4.7340   30.5000  -18.0920 S.3    98  MET98      -0.1393
     71  CE         6.5010   30.3380  -17.8680 C.3    98  MET98       0.0692
     72  N          4.0670   31.7290  -23.5230 N.am   99  SER99      -0.1952
     73  CA         4.5810   32.2600  -24.7920 C.3    99  SER99       0.1924
     74  C          4.1430   33.6930  -25.0670 C.2    99  SER99       0.2314
     75  O          4.6940   34.3410  -25.9540 O.2    99  SER99      -0.2863
     76  CB         4.1710   31.3670  -25.9710 C.3    99  SER99       0.2116
     77  OG         4.7500   30.0820  -25.8620 O.3    99  SER99      -0.2180
     78  N          9.8880   37.6420  -23.5520 N.3   103  TRP103     -0.1227
     79  CA        11.1290   37.2370  -22.8700 C.3   103  TRP103      0.1737
     80  C         12.4070   37.8760  -23.4310 C.2   103  TRP103      0.2595
     81  O         13.3630   38.0970  -22.6840 O.2   103  TRP103     -0.2718
     82  CB        11.2900   35.7110  -22.8800 C.3   103  TRP103      0.0564
     83  CG        10.1340   34.9660  -22.2820 C.ar  103  TRP103      0.0003
     84  CD1        9.1120   34.3630  -22.9580 C.ar  103  TRP103      0.0946
     85  CD2        9.8800   34.7440  -20.8880 C.ar  103  TRP103      0.0152
     86  NE1        8.2380   33.7790  -22.0710 N.ar  103  TRP103     -0.2442
     87  CE2        8.6860   33.9960  -20.7950 C.ar  103  TRP103      0.0810
     88  CE3       10.5480   35.1040  -19.7080 C.ar  103  TRP103      0.0012
     89  CZ2        8.1400   33.6050  -19.5680 C.ar  103  TRP103      0.0191
     90  CZ3       10.0040   34.7120  -18.4880 C.ar  103  TRP103      0.0001
     91  CH2        8.8130   33.9700  -18.4290 C.ar  103  TRP103      0.0015
     92  N         12.4210   38.1630  -24.7320 N.am  104  ALA104     -0.1980
     93  CA        13.6170   38.7140  -25.3870 C.3   104  ALA104      0.1597
     94  C         13.5530   40.2270  -25.6380 C.2   104  ALA104      0.2287
     95  O         14.4580   40.7980  -26.2570 O.2   104  ALA104     -0.2864
     96  CB        13.9120   37.9600  -26.6830 C.3   104  ALA104      0.0319
     97  N          9.1340   45.6900  -21.6290 N.3   111  LYS111     -0.1245
     98  CA         9.1210   44.3470  -21.0570 C.3   111  LYS111      0.1561
     99  C          8.4140   44.3130  -19.6960 C.2   111  LYS111      0.2260
    100  O          7.5270   43.4870  -19.4810 O.2   111  LYS111     -0.2867
    101  CB        10.5470   43.8050  -20.9430 C.3   111  LYS111      0.0271
    102  CG        10.6340   42.3220  -20.6260 C.3   111  LYS111      0.0035
    103  CD        12.0630   41.8990  -20.3220 C.3   111  LYS111      0.0206
    104  CE        12.1660   40.3870  -20.1840 C.3   111  LYS111      0.1093
    105  NZ        13.5780   39.9210  -20.1820 N.3   111  LYS111     -0.1314
    106  N          4.8030   19.8980  -16.2940 N.3   151  TYR151     -0.1241
    107  CA         4.7890   21.2070  -16.9400 C.3   151  TYR151      0.1605
    108  C          4.1290   22.2880  -16.0820 C.2   151  TYR151      0.2264
    109  O          4.5610   23.4370  -16.1020 O.2   151  TYR151     -0.2867
    110  CB         4.1420   21.1290  -18.3260 C.3   151  TYR151      0.0534
    111  CG         4.6390   22.1830  -19.2960 C.ar  151  TYR151     -0.0201
    112  CD1        6.0060   22.3450  -19.5530 C.ar  151  TYR151     -0.0009
    113  CD2        3.7460   23.0000  -19.9810 C.ar  151  TYR151     -0.0009
    114  CE1        6.4620   23.3120  -20.4610 C.ar  151  TYR151      0.0417
    115  CE2        4.1920   23.9660  -20.8870 C.ar  151  TYR151      0.0417
    116  CZ         5.5470   24.1130  -21.1200 C.ar  151  TYR151      0.1957
    117  OH         5.9760   25.0730  -22.0060 O.3   151  TYR151     -0.2866
    118  N          6.7290   23.3390  -13.6000 N.3   154  ILE154     -0.1231
    119  CA         7.7940   24.0480  -14.3060 C.3   154  ILE154      0.1692
    120  C          7.3890   25.4910  -14.6130 C.2   154  ILE154      0.2592
    121  O          8.1380   26.4240  -14.3160 O.2   154  ILE154     -0.2718
    122  CB         8.2110   23.2830  -15.5950 C.3   154  ILE154      0.0266
    123  CG1        9.0990   22.0940  -15.2100 C.3   154  ILE154      0.0019
    124  CG2        8.9210   24.2180  -16.6160 C.3   154  ILE154      0.0020
    125  CD1        9.4100   21.1370  -16.3420 C.3   154  ILE154      0.0001
    126  N          6.2060   25.6610  -15.1980 N.am  155  CYS155     -0.1970
    127  CA         5.7340   26.9820  -15.6030 C.3   155  CYS155      0.1712
    128  C          5.4370   27.8660  -14.3940 C.2   155  CYS155      0.2296
    129  O          5.7950   29.0470  -14.3810 O.2   155  CYS155     -0.2864
    130  CB         4.5000   26.8670  -16.4940 C.3   155  CYS155      0.0983
    131  SG         4.8310   26.1360  -18.1010 S.3   155  CYS155     -0.0798
    132  N          8.5540   29.4520  -12.5880 N.3   158  THR158     -0.1218
    133  CA         9.0020   30.7000  -13.2130 C.3   158  THR158      0.1862
    134  C          8.0440   31.8850  -12.9790 C.2   158  THR158      0.2287
    135  O          8.4910   33.0160  -12.7340 O.2   158  THR158     -0.2866
    136  CB         9.2790   30.5020  -14.7250 C.3   158  THR158      0.1770
    137  OG1       10.4320   29.6630  -14.8880 O.3   158  THR158     -0.2211
    138  CG2        9.5400   31.8290  -15.4130 C.3   158  THR158      0.0375
    139  N         15.7990   31.8030  -14.5100 N.3   198  LEU198     -0.1245
    140  CA        14.7560   31.3890  -15.4390 C.3   198  LEU198      0.1561
    141  C         15.0080   29.9780  -15.9550 C.2   198  LEU198      0.2260
    142  O         15.9610   29.3010  -15.5580 O.2   198  LEU198     -0.2867
    143  CB        14.6850   32.3650  -16.6190 C.3   198  LEU198      0.0270
    144  CG        14.3260   33.8270  -16.3410 C.3   198  LEU198      0.0019
    145  CD1       14.6790   34.6980  -17.5380 C.3   198  LEU198      0.0001
    146  CD2       12.8550   33.9800  -15.9770 C.3   198  LEU198      0.0001
@<TRIPOS>BOND
     1    50    49    2
     2    23    21   ar
     3    23    22   ar
     4    96    93    1
     5    49    48    1
     6    46    44    1
     7    55    53   am
     8    95    94    2
     9    21    19   ar
    10    63    61   ar
    11    44    45    1
    12    44    43    2
    13    76    77    1
    14    76    73    1
    15    75    74    2
    16    22    20   ar
    17    43    42    1
    18    94    93    1
    19    42    41    1
    20    48    51    1
    21    48    47    1
    22    93    92    1
    23     1     2    1
    24    74    73    1
    25    53    54    2
    26    53    52    1
    27    19    18   ar
    28     2     3    1
    29     2     5    1
    30    61    60    1
    31    61    62   ar
    32    73    72    1
    33     7     9   ar
    34     7     6   ar
    35    92    80   am
    36    20    18   ar
    37    51    52    1
    38     9    11   ar
    39    60    57    1
    40    18    17    1
    41    41    40    1
    42     3     4    2
    43     3    13   am
    44    40    37    1
    45    59    58    2
    46     5     6    1
    47    58    57    1
    48    13    14    1
    49     6     8   ar
    50    78    79    1
    51    72    66   am
    52    80    79    1
    53    80    81    2
    54    11    12    1
    55    11    10   ar
    56    57    56    1
    57    14    17    1
    58    14    15    1
    59    84    83   ar
    60    84    86   ar
    61    39    38    2
    62    82    79    1
    63    82    83    1
    64    38    37    1
    65    37    36    1
    66     8    10   ar
    67    66    67    2
    68    66    65    1
    69    83    85   ar
    70    86    87   ar
    71   117   116    1
    72    36    34   am
    73    97    98    1
    74    15    16    2
    75    64    65    1
    76   116   115   ar
    77   116   114   ar
    78    65    68    1
    79    98   101    1
    80    98    99    1
    81   101   102    1
    82    85    87   ar
    83    85    88   ar
    84   115   113   ar
    85    68    69    1
    86    87    89   ar
    87   102   103    1
    88   114   112   ar
    89    34    35    2
    90    34    33    1
    91    30    31    1
    92    30    29    1
    93   103   104    1
    94   104   105    1
    95   113   111   ar
    96    29    28    1
    97    33    32    1
    98    88    90   ar
    99    99   100    2
   100    89    91   ar
   101   112   111   ar
   102    69    70    1
   103   111   110    1
   104    27    26    2
   105    24    25    1
   106    90    91   ar
   107    28    25    1
   108   110   107    1
   109   131   130    1
   110    70    71    1
   111    26    25    1
   112   145   144    1
   113   107   106    1
   114   107   108    1
   115   143   144    1
   116   143   140    1
   117   124   122    1
   118   130   127    1
   119   125   123    1
   120   144   146    1
   121   109   108    2
   122   141   142    2
   123   141   140    1
   124   127   126    1
   125   127   128    1
   126   122   123    1
   127   122   119    1
   128   140   139    1
   129   138   136    1
   130   126   120   am
   131   137   136    1
   132   136   133    1
   133   120   121    2
   134   120   119    1
   135   128   129    2
   136   119   118    1
   137   133   134    1
   138   133   132    1
   139   134   135    2
