@<TRIPOS>MOLECULE
tmp/5aixB01.pdb
 164 159 0 0 0
SMALL
GASTEIGER

@<TRIPOS>ATOM
      1  N         18.3740   13.8000   -9.1400 N.3     7  TYR7       -0.1227
      2  CA        17.5720   12.6610   -8.6460 C.3     7  TYR7        0.1736
      3  C         16.0990   12.9080   -8.9660 C.2     7  TYR7        0.2595
      4  O         15.7420   13.9900   -9.4740 O.2     7  TYR7       -0.2718
      5  CB        17.7220   12.5340   -7.1220 C.3     7  TYR7        0.0548
      6  CG        17.2430   11.2080   -6.5210 C.ar    7  TYR7       -0.0200
      7  CD1       17.7960    9.9900   -6.9340 C.ar    7  TYR7       -0.0009
      8  CD2       16.2540   11.1810   -5.5070 C.ar    7  TYR7       -0.0009
      9  CE1       17.3870    8.7780   -6.3670 C.ar    7  TYR7        0.0417
     10  CE2       15.8360    9.9730   -4.9250 C.ar    7  TYR7        0.0417
     11  CZ        16.4110    8.7860   -5.3650 C.ar    7  TYR7        0.1957
     12  OH        16.0230    7.5950   -4.8280 O.3     7  TYR7       -0.2866
     13  N         15.2420   11.9300   -8.6520 N.am    8  PHE8       -0.1976
     14  CA        13.7920   12.1180   -8.7800 C.3     8  PHE8        0.1639
     15  C         13.2780   12.9940   -7.6390 C.2     8  PHE8        0.2290
     16  O         13.9920   13.2360   -6.6650 O.2     8  PHE8       -0.2864
     17  CB        13.0370   10.7590   -8.8070 C.3     8  PHE8        0.0560
     18  CG        13.5630    9.8090   -9.8400 C.ar    8  PHE8       -0.0200
     19  CD1       14.7030    9.0530   -9.5830 C.ar    8  PHE8       -0.0042
     20  CD2       12.9810    9.7460  -11.0970 C.ar    8  PHE8       -0.0042
     21  CE1       15.2400    8.2250  -10.5460 C.ar    8  PHE8       -0.0003
     22  CE2       13.5030    8.9070  -12.0780 C.ar    8  PHE8       -0.0003
     23  CZ        14.6300    8.1350  -11.8010 C.ar    8  PHE8       -0.0000
     24  N         11.9380   12.9520   -4.7800 N.3    10  MET10      -0.1230
     25  CA        11.8000   12.0240   -3.6500 C.3    10  MET10       0.1702
     26  C         12.9940   12.2090   -2.7580 C.2    10  MET10       0.2592
     27  O         14.0680   12.5140   -3.2350 O.2    10  MET10      -0.2718
     28  CB        11.8780   10.5720   -4.1290 C.3    10  MET10       0.0401
     29  CG        10.6120    9.9850   -4.6610 C.3    10  MET10       0.0596
     30  SD        10.8920    8.3260   -5.3770 S.3    10  MET10      -0.1393
     31  CE        12.6860    8.2600   -5.4010 C.3    10  MET10       0.0692
     32  N         12.8180   11.9580   -1.4720 N.am   11  ARG11      -0.1966
     33  CA        13.9660   11.8560   -0.5730 C.3    11  ARG11       0.1729
     34  C         14.9190   10.7680   -1.0800 C.2    11  ARG11       0.2617
     35  O         16.0660   11.0760   -1.4610 O.2    11  ARG11      -0.2715
     36  CB        13.4930   11.5700    0.8610 C.3    11  ARG11       0.0348
     37  CG        12.3220   12.5000    1.2580 C.3    11  ARG11       0.0492
     38  CD        11.9750   12.4490    2.7240 C.3    11  ARG11       0.2205
     39  NE        11.7510   11.0800    3.1500 N.pl3  11  ARG11      -0.0865
     40  CZ        10.6050   10.4330    3.0200 C.cat  11  ARG11       0.5346
     41  NH1        9.5490   11.0390    2.4790 N.pl3  11  ARG11       0.1354
     42  NH2       10.5350    9.1640    3.4090 N.pl3  11  ARG11       0.1354
     43  N         14.4320    9.5120   -1.0770 N.am   12  GLY12      -0.1940
     44  CA        15.1280    8.3600   -1.6280 C.3    12  GLY12       0.2014
     45  C         16.5840    8.3100   -1.2510 C.2    12  GLY12       0.2638
     46  O         16.9520    8.5630   -0.1090 O.2    12  GLY12      -0.2714
     47  N         17.4150    7.9960   -2.2270 N.am   13  ARG13      -0.1977
     48  CA        18.8300    7.8670   -1.9940 C.3    13  ARG13       0.1597
     49  C         19.5160    9.2160   -2.1300 C.2    13  ARG13       0.2287
     50  O         20.7220    9.3250   -1.9920 O.2    13  ARG13      -0.2864
     51  CB        19.4290    6.8760   -2.9770 C.3    13  ARG13       0.0334
     52  CG        18.7880    5.5050   -2.9540 C.3    13  ARG13       0.0492
     53  CD        19.2230    4.7280   -4.1780 C.3    13  ARG13       0.2205
     54  NE        19.0540    3.2800   -4.0430 N.pl3  13  ARG13      -0.0865
     55  CZ        19.7650    2.5090   -3.2230 C.cat  13  ARG13       0.5346
     56  NH1       20.6850    3.0460   -2.4020 N.pl3  13  ARG13       0.1354
     57  NH2       19.5390    1.1970   -3.2160 N.pl3  13  ARG13       0.1354
     58  N         20.2010   11.5010    1.9020 N.3    16  ILE16      -0.1245
     59  CA        21.4880   11.5070    2.6010 C.3    16  ILE16       0.1561
     60  C         22.4270   12.6090    2.0940 C.2    16  ILE16       0.2260
     61  O         23.2060   13.1510    2.8670 O.2    16  ILE16      -0.2867
     62  CB        22.1880   10.1060    2.6660 C.3    16  ILE16       0.0252
     63  CG1       23.2760   10.0790    3.7560 C.3    16  ILE16       0.0019
     64  CG2       22.7460    9.6600    1.2920 C.3    16  ILE16       0.0019
     65  CD1       22.9640   10.8550    5.0060 C.3    16  ILE16       0.0001
     66  N          9.5600   11.5680  -13.7980 N.3    35  GLN35      -0.1245
     67  CA         9.7420   10.1790  -14.2470 C.3    35  GLN35       0.1566
     68  C          9.8130   10.0940  -15.7650 C.2    35  GLN35       0.2260
     69  O         10.3510    9.1450  -16.2950 O.2    35  GLN35      -0.2867
     70  CB         8.6410    9.2680  -13.7260 C.3    35  GLN35       0.0367
     71  CG         9.0850    8.2830  -12.6580 C.3    35  GLN35       0.0905
     72  CD         8.6150    6.8810  -12.9930 C.2    35  GLN35       0.2608
     73  OE1        9.0960    6.2650  -13.9570 O.2    35  GLN35      -0.2717
     74  NE2        7.6540    6.3770  -12.2270 N.am   35  GLN35      -0.0878
     75  N         13.4170   11.1720  -17.4980 N.3    38  TRP38      -0.1241
     76  CA        14.5050   10.2800  -17.0420 C.3    38  TRP38       0.1605
     77  C         15.3150    9.5810  -18.1420 C.2    38  TRP38       0.2264
     78  O         16.5280    9.7400  -18.1540 O.2    38  TRP38      -0.2867
     79  CB        14.0300    9.2970  -15.9300 C.3    38  TRP38       0.0550
     80  CG        14.9610    8.1220  -15.5700 C.ar   38  TRP38       0.0003
     81  CD1       14.6300    6.7960  -15.5330 C.ar   38  TRP38       0.0946
     82  CD2       16.3500    8.1890  -15.2000 C.ar   38  TRP38       0.0152
     83  NE1       15.7230    6.0310  -15.1580 N.ar   38  TRP38      -0.2442
     84  CE2       16.7910    6.8660  -14.9630 C.ar   38  TRP38       0.0810
     85  CE3       17.2780    9.2460  -15.0720 C.ar   38  TRP38       0.0012
     86  CZ2       18.1070    6.5670  -14.5830 C.ar   38  TRP38       0.0191
     87  CZ3       18.5870    8.9420  -14.7000 C.ar   38  TRP38       0.0001
     88  CH2       18.9840    7.6100  -14.4510 C.ar   38  TRP38       0.0015
     89  N         21.8150    0.2570    4.2020 N.3    95  ASP95      -0.1239
     90  CA        21.6430    0.2670    2.7440 C.3    95  ASP95       0.1674
     91  C         21.3540   -1.1230    2.2810 C.2    95  ASP95       0.2266
     92  O         20.5090   -1.3240    1.4260 O.2    95  ASP95      -0.2867
     93  CB        22.8540    0.8020    2.0000 C.3    95  ASP95       0.1410
     94  CG        22.4760    1.3930    0.6510 C.2    95  ASP95       0.3668
     95  OD1       21.4680    2.1470    0.5650 O.co2  95  ASP95      -0.2456
     96  OD2       23.2000    1.1490   -0.3200 O.co2  95  ASP95      -0.2456
     97  N         17.5540   -1.5400    2.9540 N.3    98  MET98      -0.1245
     98  CA        16.8720   -0.6200    2.0640 C.3    98  MET98       0.1570
     99  C         17.0330   -1.0260    0.6090 C.2    98  MET98       0.2261
    100  O         16.0520   -1.0290   -0.1530 O.2    98  MET98      -0.2867
    101  CB        17.3650    0.8160    2.2830 C.3    98  MET98       0.0387
    102  CG        17.1820    1.2910    3.6660 C.3    98  MET98       0.0595
    103  SD        15.4690    1.0850    4.2020 S.3    98  MET98      -0.1393
    104  CE        14.6050    2.3260    3.2160 C.3    98  MET98       0.0692
    105  N         11.7270   -1.4310   -5.2430 N.3   103  TRP103     -0.1227
    106  CA        11.2110   -0.0720   -5.3910 C.3   103  TRP103      0.1737
    107  C         10.5660    0.1930   -6.7430 C.2   103  TRP103      0.2595
    108  O          9.5610    0.9040   -6.8210 O.2   103  TRP103     -0.2718
    109  CB        12.3420    0.9350   -5.1820 C.3   103  TRP103      0.0564
    110  CG        13.0050    0.9120   -3.8370 C.ar  103  TRP103      0.0003
    111  CD1       14.2750    0.4840   -3.5480 C.ar  103  TRP103      0.0946
    112  CD2       12.4620    1.3920   -2.6200 C.ar  103  TRP103      0.0152
    113  NE1       14.5410    0.6490   -2.2060 N.ar  103  TRP103     -0.2442
    114  CE2       13.4350    1.1990   -1.6160 C.ar  103  TRP103      0.0810
    115  CE3       11.2370    1.9630   -2.2680 C.ar  103  TRP103      0.0012
    116  CZ2       13.2110    1.5630   -0.2760 C.ar  103  TRP103      0.0191
    117  CZ3       11.0200    2.3100   -0.9480 C.ar  103  TRP103      0.0001
    118  CH2       11.9970    2.1020    0.0310 C.ar  103  TRP103      0.0015
    119  N         11.1450   -0.3880   -7.8000 N.am  104  ALA104     -0.1980
    120  CA        10.8440   -0.0520   -9.1930 C.3   104  ALA104      0.1597
    121  C          9.9060   -1.0630   -9.8490 C.2   104  ALA104      0.2287
    122  O          9.5470   -0.9270  -11.0220 O.2   104  ALA104     -0.2864
    123  CB        12.1530    0.0990   -9.9980 C.3   104  ALA104      0.0319
    124  N         21.7460    8.6170    8.0520 N.3   151  TYR151     -0.1241
    125  CA        21.2240    7.5750    7.1770 C.3   151  TYR151      0.1605
    126  C         20.1500    6.8760    7.9500 C.2   151  TYR151      0.2264
    127  O         18.9910    6.8060    7.5070 O.2   151  TYR151     -0.2867
    128  CB        22.2880    6.5860    6.6870 C.3   151  TYR151      0.0534
    129  CG        21.9180    5.9760    5.3400 C.ar  151  TYR151     -0.0201
    130  CD1       21.4970    6.7860    4.2940 C.ar  151  TYR151     -0.0009
    131  CD2       21.9690    4.5900    5.1130 C.ar  151  TYR151     -0.0009
    132  CE1       21.1320    6.2390    3.0420 C.ar  151  TYR151      0.0417
    133  CE2       21.6290    4.0380    3.8620 C.ar  151  TYR151      0.0417
    134  CZ        21.2120    4.8840    2.8230 C.ar  151  TYR151      0.1957
    135  OH        20.8250    4.3840    1.5710 O.3   151  TYR151     -0.2866
    136  N         17.0210    8.8020    8.1490 N.3   154  ILE154     -0.1231
    137  CA        16.3580    8.8700    6.8760 C.3   154  ILE154      0.1692
    138  C         15.7580    7.5140    6.5220 C.2   154  ILE154      0.2592
    139  O         14.6160    7.4420    6.0940 O.2   154  ILE154     -0.2718
    140  CB        17.3120    9.3350    5.8080 C.3   154  ILE154      0.0266
    141  CG1       17.8120   10.7390    6.1840 C.3   154  ILE154      0.0019
    142  CG2       16.6280    9.2720    4.4550 C.3   154  ILE154      0.0020
    143  CD1       18.7010   11.3760    5.2120 C.3   154  ILE154      0.0001
    144  N         16.5270    6.4410    6.6930 N.am  155  CYS155     -0.1970
    145  CA        15.9850    5.1420    6.3400 C.3   155  CYS155      0.1712
    146  C         14.7750    4.9230    7.1990 C.2   155  CYS155      0.2296
    147  O         13.7350    4.5620    6.6930 O.2   155  CYS155     -0.2864
    148  CB        16.9780    3.9860    6.4650 C.3   155  CYS155      0.0983
    149  SG        18.3510    3.9950    5.2410 S.3   155  CYS155     -0.0798
    150  N         11.4080    6.5650    5.8650 N.3   158  THR158     -0.1218
    151  CA        10.6620    5.8230    4.8200 C.3   158  THR158      0.1862
    152  C         10.0480    4.4870    5.2950 C.2   158  THR158      0.2287
    153  O          8.9320    4.1280    4.9050 O.2   158  THR158     -0.2866
    154  CB        11.5610    5.5570    3.5910 C.3   158  THR158      0.1770
    155  OG1       12.0620    6.8000    3.0730 O.3   158  THR158     -0.2211
    156  CG2       10.7880    4.8350    2.5180 C.3   158  THR158      0.0375
    157  N          7.9820    9.4700   -0.5130 N.3   198  LEU198     -0.1245
    158  CA         9.1720    8.6470   -0.5280 C.3   198  LEU198      0.1561
    159  C         10.3690    9.5570   -0.5840 C.2   198  LEU198      0.2260
    160  O         10.1670   10.7510   -0.4960 O.2   198  LEU198     -0.2867
    161  CB         9.1030    7.6950   -1.7250 C.3   198  LEU198      0.0270
    162  CG         8.1420    6.5100   -1.5140 C.3   198  LEU198      0.0019
    163  CD1        8.1170    5.5440   -2.6840 C.3   198  LEU198      0.0001
    164  CD2        8.4710    5.7520   -0.2110 C.3   198  LEU198      0.0001
@<TRIPOS>BOND
     1    78    77    2
     2    77    76    1
     3    75    76    1
     4    76    79    1
     5    69    68    2
     6    79    80    1
     7    68    67    1
     8    80    81   ar
     9    80    82   ar
    10    81    83   ar
    11    82    85   ar
    12    82    84   ar
    13    83    84   ar
    14    85    87   ar
    15    84    86   ar
    16    87    88   ar
    17    86    88   ar
    18    67    66    1
    19    67    70    1
    20    73    72    2
    21    70    71    1
    22    72    71    1
    23    72    74   am
    24    22    23   ar
    25    22    20   ar
    26    23    21   ar
    27    20    18   ar
    28   122   121    2
    29    21    19   ar
    30   123   120    1
    31   121   120    1
    32    18    19   ar
    33    18    17    1
    34     4     3    2
    35   120   119    1
    36     1     2    1
    37     3    13   am
    38     3     2    1
    39    17    14    1
    40    14    13    1
    41    14    15    1
    42     2     5    1
    43   119   107   am
    44    15    16    2
    45     5     6    1
    46     7     6   ar
    47     7     9   ar
    48   108   107    2
    49   107   106    1
    50     6     8   ar
    51     9    11   ar
    52     8    10   ar
    53    31    30    1
    54   106   105    1
    55   106   109    1
    56    30    29    1
    57    11    10   ar
    58    11    12    1
    59   109   110    1
    60    24    25    1
    61    29    28    1
    62    53    54    1
    63    53    52    1
    64    28    25    1
    65    54    55    2
    66   110   111   ar
    67   110   112   ar
    68    25    26    1
    69   111   113   ar
    70    27    26    2
    71    55    57    1
    72    55    56    1
    73    51    52    1
    74    51    48    1
    75    26    32   am
    76   163   162    1
    77   112   115   ar
    78   112   114   ar
    79   115   117   ar
    80    47    48    1
    81    47    45   am
    82   113   114   ar
    83    49    48    1
    84    49    50    2
    85   161   162    1
    86   161   158    1
    87    44    45    1
    88    44    43    1
    89   114   116   ar
    90   162   164    1
    91    32    33    1
    92    35    34    2
    93    45    46    2
    94    34    43   am
    95    34    33    1
    96   117   118   ar
    97   159   158    1
    98   159   160    2
    99    33    36    1
   100   158   157    1
   101    96    94   ar
   102   116   118   ar
   103   100    99    2
   104    95    94   ar
   105    99    98    1
   106    94    93    1
   107    36    37    1
   108    37    38    1
   109    64    62    1
   110    92    91    2
   111   135   134    1
   112    58    59    1
   113    93    90    1
   114    98   101    1
   115    98    97    1
   116    60    59    1
   117    60    61    2
   118    91    90    1
   119   101   102    1
   120    41    40    1
   121   156   154    1
   122    59    62    1
   123    62    63    1
   124    38    39    1
   125    90    89    1
   126   134   132   ar
   127   134   133   ar
   128    40    39    2
   129    40    42    1
   130   132   130   ar
   131   155   154    1
   132   104   103    1
   133   154   151    1
   134   102   103    1
   135    63    65    1
   136   133   131   ar
   137   130   129   ar
   138   142   140    1
   139   151   152    1
   140   151   150    1
   141   153   152    2
   142   131   129   ar
   143   143   141    1
   144   149   148    1
   145   129   128    1
   146   140   141    1
   147   140   137    1
   148   139   138    2
   149   145   148    1
   150   145   144    1
   151   145   146    1
   152   138   144   am
   153   138   137    1
   154   128   125    1
   155   147   146    2
   156   137   136    1
   157   125   126    1
   158   125   124    1
   159   127   126    2
