@<TRIPOS>MOLECULE
tmp/5ajbB02.pdb
 114 110 0 0 0
SMALL
GASTEIGER

@<TRIPOS>ATOM
      1  N         12.9720   -6.5450   14.9070 N.3    52  TRP52      -0.1241
      2  CA        14.0370   -7.1320   14.0740 C.3    52  TRP52       0.1605
      3  C         14.6030   -8.3340   14.8190 C.2    52  TRP52       0.2264
      4  O         14.6220   -8.3780   16.0530 O.2    52  TRP52      -0.2867
      5  CB        15.1370   -6.1090   13.7340 C.3    52  TRP52       0.0550
      6  CG        15.9300   -5.6640   14.9430 C.ar   52  TRP52       0.0003
      7  CD1       17.1460   -6.1620   15.3860 C.ar   52  TRP52       0.0946
      8  CD2       15.5440   -4.6410   15.8660 C.ar   52  TRP52       0.0152
      9  NE1       17.5240   -5.4910   16.5590 N.ar   52  TRP52      -0.2442
     10  CE2       16.5670   -4.5440   16.8460 C.ar   52  TRP52       0.0810
     11  CE3       14.4410   -3.7750   15.9390 C.ar   52  TRP52       0.0012
     12  CZ2       16.4790   -3.6470   17.9410 C.ar   52  TRP52       0.0191
     13  CZ3       14.3750   -2.8700   16.9980 C.ar   52  TRP52       0.0001
     14  CH2       15.3990   -2.8160   17.9840 C.ar   52  TRP52       0.0015
     15  N         17.9290  -10.7620   15.6590 N.3    54  VAL54      -0.1245
     16  CA        19.4100  -10.9290   15.6950 C.3    54  VAL54       0.1561
     17  C         19.5660  -12.4130   15.8830 C.2    54  VAL54       0.2260
     18  O         19.3660  -12.9530   16.9860 O.2    54  VAL54      -0.2867
     19  CB        20.0720  -10.1240   16.8280 C.3    54  VAL54       0.0252
     20  CG1       21.5890  -10.3820   16.8770 C.3    54  VAL54       0.0019
     21  CG2       19.7940   -8.6240   16.6790 C.3    54  VAL54       0.0019
     22  N         13.9190   -8.6590   18.8250 N.3    59  HIS59      -0.1241
     23  CA        13.9920   -7.3680   19.4920 C.3    59  HIS59       0.1621
     24  C         12.7920   -6.5310   19.0190 C.2    59  HIS59       0.2264
     25  O         12.5690   -6.4200   17.8180 O.2    59  HIS59      -0.2867
     26  CB        15.2990   -6.6640   19.1740 C.3    59  HIS59       0.0745
     27  CG        16.4890   -7.4230   19.6640 C.ar   59  HIS59       0.0817
     28  ND1       17.1160   -7.1320   20.8590 N.ar   59  HIS59      -0.2268
     29  CD2       17.0620   -8.5530   19.1980 C.ar   59  HIS59       0.1154
     30  CE1       18.0540   -8.0310   21.0810 C.ar   59  HIS59       0.1986
     31  NE2       18.0560   -8.8890   20.0760 N.ar   59  HIS59      -0.2212
     32  N         10.5310   -2.7780   19.4670 N.3    61  ARG61      -0.1245
     33  CA        10.3830   -1.4090   19.9900 C.3    61  ARG61       0.1563
     34  C          8.9510   -0.9370   19.7900 C.2    61  ARG61       0.2260
     35  O          8.4340   -0.9310   18.6610 O.2    61  ARG61      -0.2867
     36  CB        11.3330   -0.4490   19.2900 C.3    61  ARG61       0.0307
     37  CG        12.7940   -0.7780   19.5070 C.3    61  ARG61       0.0489
     38  CD        13.2200   -0.6050   20.9870 C.3    61  ARG61       0.2205
     39  NE        14.6260   -0.9760   21.2470 N.pl3  61  ARG61      -0.0865
     40  CZ        15.0860   -2.2140   21.5100 C.cat  61  ARG61       0.5346
     41  NH1       14.2820   -3.2780   21.5870 N.pl3  61  ARG61       0.1354
     42  NH2       16.4010   -2.4060   21.7160 N.pl3  61  ARG61       0.1354
     43  N          6.3480    2.2820   20.3950 N.3    63  TYR63      -0.1241
     44  CA         6.3130    3.7450   20.5890 C.3    63  TYR63       0.1605
     45  C          4.9030    4.1000   21.0810 C.2    63  TYR63       0.2264
     46  O          3.9210    4.0330   20.3200 O.2    63  TYR63      -0.2867
     47  CB         6.7430    4.5060   19.3190 C.3    63  TYR63       0.0534
     48  CG         8.1720    4.1230   18.9630 C.ar   63  TYR63      -0.0201
     49  CD1        9.2530    4.7250   19.5720 C.ar   63  TYR63      -0.0009
     50  CD2        8.4290    3.0260   18.1540 C.ar   63  TYR63      -0.0009
     51  CE1       10.5550    4.2900   19.3750 C.ar   63  TYR63       0.0417
     52  CE2        9.7270    2.5860   17.9140 C.ar   63  TYR63       0.0417
     53  CZ        10.7830    3.1810   18.5210 C.ar   63  TYR63       0.1957
     54  OH        12.0650    2.7160   18.3170 O.3    63  TYR63      -0.2866
     55  N          9.3400    5.2280   24.2830 N.3    72  GLU72      -0.1245
     56  CA         9.7820    3.9820   23.6740 C.3    72  GLU72       0.1567
     57  C          9.9210    2.8950   24.7260 C.2    72  GLU72       0.2260
     58  O         10.5690    3.1060   25.7590 O.2    72  GLU72      -0.2867
     59  CB        11.1560    4.1990   22.9800 C.3    72  GLU72       0.0388
     60  CG        11.7680    2.9520   22.2950 C.3    72  GLU72       0.1160
     61  CD        13.1850    3.1920   21.8470 C.2    72  GLU72       0.3649
     62  OE1       13.9730    3.7340   22.6520 O.co2  72  GLU72      -0.2457
     63  OE2       13.5120    2.8850   20.6580 O.co2  72  GLU72      -0.2457
     64  N         11.2080   -1.2200   25.1570 N.3    74  CYS74      -0.1235
     65  CA        12.1320   -2.1520   24.5400 C.3    74  CYS74       0.1677
     66  C         11.9650   -3.5680   25.0720 C.2    74  CYS74       0.2270
     67  O         12.0410   -3.7860   26.2980 O.2    74  CYS74      -0.2867
     68  CB        13.5840   -1.7300   24.7940 C.3    74  CYS74       0.0956
     69  SG        13.8940    0.0450   24.3680 S.3    74  CYS74      -0.0801
     70  N         14.1600   -6.9500   24.6480 N.3    76  ASP76      -0.1239
     71  CA        15.4240   -7.5470   24.1780 C.3    76  ASP76       0.1674
     72  C         15.6650   -8.9470   24.7620 C.2    76  ASP76       0.2266
     73  O         16.8230   -9.3750   24.9120 O.2    76  ASP76      -0.2867
     74  CB        16.5550   -6.6050   24.5220 C.3    76  ASP76       0.1410
     75  CG        16.3860   -5.2250   23.8580 C.2    76  ASP76       0.3668
     76  OD1       16.5330   -5.1540   22.6170 O.co2  76  ASP76      -0.2456
     77  OD2       16.0990   -4.2480   24.6060 O.co2  76  ASP76      -0.2456
     78  N         11.6580   -2.6840   28.9390 N.3    81  THR81      -0.1203
     79  CA        12.3810   -1.5990   29.5930 C.3    81  THR81       0.1994
     80  C         12.2050   -0.2950   28.8110 C.2    81  THR81       0.2618
     81  O         12.0060   -0.3150   27.5950 O.2    81  THR81      -0.2717
     82  CB        13.8920   -1.9230   29.6940 C.3    81  THR81       0.1784
     83  OG1       14.4550   -2.1340   28.3820 O.3    81  THR81      -0.2211
     84  CG2       14.1320   -3.2380   30.4500 C.3    81  THR81       0.0376
     85  N         12.3240    0.8320   29.5100 N.am   82  LYS82      -0.1965
     86  CA        12.2080    2.1230   28.8430 C.3    82  LYS82       0.1728
     87  C         13.4150    2.4320   27.9460 C.2    82  LYS82       0.2617
     88  O         14.5730    2.2230   28.3190 O.2    82  LYS82      -0.2715
     89  CB        12.0150    3.2450   29.8340 C.3    82  LYS82       0.0311
     90  CG        11.5400    4.5230   29.1320 C.3    82  LYS82       0.0038
     91  CD        11.6180    5.7700   30.0090 C.3    82  LYS82       0.0206
     92  CE        10.4190    5.9830   30.8860 C.3    82  LYS82       0.1093
     93  NZ         9.9920    4.7920   31.6460 N.3    82  LYS82      -0.1314
     94  N         13.1450    2.8940   26.7210 N.am   83  GLY83      -0.1940
     95  CA        14.2380    3.1960   25.7810 C.3    83  GLY83       0.2014
     96  C         14.6720    4.6460   25.8450 C.2    83  GLY83       0.2639
     97  O         14.0460    5.4880   26.5180 O.2    83  GLY83      -0.2714
     98  N         15.7640    4.9050   25.1370 N.am   84  ALA84      -0.1963
     99  CA        16.3860    6.2240   25.0370 C.3    84  ALA84       0.1728
    100  C         15.6730    7.2240   24.1020 C.2    84  ALA84       0.2616
    101  O         15.9920    8.4280   24.1190 O.2    84  ALA84      -0.2715
    102  CB        17.8490    6.0820   24.6000 C.3    84  ALA84       0.0334
    103  N         14.7140    6.7680   23.3150 N.am   85  TYR85      -0.1974
    104  CA        14.0120    7.6550   22.3770 C.3    85  TYR85       0.1639
    105  C         13.4980    8.9420   23.0350 C.2    85  TYR85       0.2290
    106  O         12.8420    8.9010   24.0640 O.2    85  TYR85      -0.2864
    107  CB        12.8200    6.9420   21.7550 C.3    85  TYR85       0.0560
    108  CG        12.0390    7.7560   20.7420 C.ar   85  TYR85      -0.0198
    109  CD1       11.0110    8.5960   21.1530 C.ar   85  TYR85      -0.0009
    110  CD2       12.3280    7.7030   19.3810 C.ar   85  TYR85      -0.0009
    111  CE1       10.2660    9.3410   20.2560 C.ar   85  TYR85       0.0417
    112  CE2       11.6040    8.4500   18.4560 C.ar   85  TYR85       0.0417
    113  CZ        10.5650    9.2690   18.9010 C.ar   85  TYR85       0.1957
    114  OH         9.8260   10.0020   17.9900 O.3    85  TYR85      -0.2866
@<TRIPOS>BOND
     1     5     2    1
     2     5     6    1
     3     2     3    1
     4     2     1    1
     5     3     4    2
     6     6     7   ar
     7     6     8   ar
     8     7     9   ar
     9    15    16    1
    10    16    17    1
    11    16    19    1
    12     8    11   ar
    13     8    10   ar
    14    17    18    2
    15    11    13   ar
    16     9    10   ar
    17    21    19    1
    18    19    20    1
    19    10    12   ar
    20    13    14   ar
    21    25    24    2
    22    52    50   ar
    23    52    53   ar
    24    12    14   ar
    25   114   113    1
    26    50    48   ar
    27    54    53    1
    28   112   113   ar
    29   112   110   ar
    30    53    51   ar
    31    35    34    2
    32    22    23    1
    33   113   111   ar
    34    48    47    1
    35    48    49   ar
    36    24    23    1
    37    26    23    1
    38    26    27    1
    39    29    27   ar
    40    29    31   ar
    41    36    37    1
    42    36    33    1
    43    47    44    1
    44    51    49   ar
    45   110   108   ar
    46    32    33    1
    47    37    38    1
    48    27    28   ar
    49    34    33    1
    50    31    30   ar
    51   111   109   ar
    52    46    45    2
    53    43    44    1
    54    44    45    1
    55    63    61   ar
    56   108   109   ar
    57   108   107    1
    58    28    30   ar
    59    38    39    1
    60    39    40    2
    61    40    41    1
    62    40    42    1
    63   107   104    1
    64    61    60    1
    65    61    62   ar
    66    60    59    1
    67   104   105    1
    68   104   103    1
    69    76    75   ar
    70    59    56    1
    71   105   106    2
    72   103   100   am
    73    56    55    1
    74    56    57    1
    75    75    74    1
    76    75    77   ar
    77   100   101    2
    78   100    99    1
    79    71    74    1
    80    71    70    1
    81    71    72    1
    82    69    68    1
    83    65    68    1
    84    65    66    1
    85    65    64    1
    86   102    99    1
    87    57    58    2
    88    72    73    2
    89    99    98    1
    90    66    67    2
    91    98    96   am
    92    95    96    1
    93    95    94    1
    94    96    97    2
    95    94    87   am
    96    81    80    2
    97    87    88    2
    98    87    86    1
    99    83    82    1
   100    80    85   am
   101    80    79    1
   102    86    85    1
   103    86    89    1
   104    78    79    1
   105    90    89    1
   106    90    91    1
   107    79    82    1
   108    82    84    1
   109    91    92    1
   110    92    93    1
