@<TRIPOS>MOLECULE
tmp/5ajbB01.pdb
 141 136 0 0 0
SMALL
GASTEIGER

@<TRIPOS>ATOM
      1  N          7.3960  -11.9090   12.9380 N.3     9  TRP9       -0.1241
      2  CA         8.7100  -12.3800   12.5870 C.3     9  TRP9        0.1605
      3  C          8.7250  -13.8780   12.3370 C.2     9  TRP9        0.2264
      4  O          7.8260  -14.6190   12.7760 O.2     9  TRP9       -0.2867
      5  CB         9.7350  -12.0460   13.6330 C.3     9  TRP9        0.0550
      6  CG         9.5050  -12.6180   14.9660 C.ar    9  TRP9        0.0003
      7  CD1       10.0390  -13.7920   15.4730 C.ar    9  TRP9        0.0946
      8  CD2        8.7570  -12.0250   16.0190 C.ar    9  TRP9        0.0152
      9  NE1        9.5980  -13.9910   16.7540 N.ar    9  TRP9       -0.2442
     10  CE2        8.8620  -12.8900   17.1440 C.ar    9  TRP9        0.0810
     11  CE3        8.0140  -10.8350   16.1330 C.ar    9  TRP9        0.0012
     12  CZ2        8.1900  -12.6600   18.3380 C.ar    9  TRP9        0.0191
     13  CZ3        7.3540  -10.5820   17.3500 C.ar    9  TRP9        0.0001
     14  CH2        7.4930  -11.4680   18.4470 C.ar    9  TRP9        0.0015
     15  N          5.4540  -15.6660   14.3710 N.3    14  SER14      -0.1217
     16  CA         5.0520  -15.0000   15.6010 C.3    14  SER14       0.1889
     17  C          4.4620  -13.6430   15.2230 C.2    14  SER14       0.2288
     18  O          4.9920  -12.9700   14.3960 O.2    14  SER14      -0.2866
     19  CB         6.2250  -14.7960   16.5930 C.3    14  SER14       0.2089
     20  OG         6.5490  -16.0090   17.2690 O.3    14  SER14      -0.2183
     21  N          2.6240  -10.0140   17.0370 N.3    16  ARG16      -0.1245
     22  CA         2.2850   -9.2090   18.2120 C.3    16  ARG16       0.1563
     23  C          1.3880   -8.0500   17.7500 C.2    16  ARG16       0.2260
     24  O          1.7390   -7.3480   16.8290 O.2    16  ARG16      -0.2867
     25  CB         3.5030   -8.6510   18.9540 C.3    16  ARG16       0.0307
     26  CG         4.4590   -9.7210   19.4410 C.3    16  ARG16       0.0489
     27  CD         3.8830  -10.5650   20.5580 C.3    16  ARG16       0.2205
     28  NE         4.8170  -11.5850   21.0220 N.pl3  16  ARG16      -0.0865
     29  CZ         4.8960  -12.8420   20.5730 C.cat  16  ARG16       0.5346
     30  NH1        4.1410  -13.2710   19.5880 N.pl3  16  ARG16       0.1354
     31  NH2        5.7820  -13.6770   21.1120 N.pl3  16  ARG16       0.1354
     32  N         -1.1800   -6.0930   24.7450 N.3    27  GLU27      -0.1245
     33  CA        -0.4810   -6.8470   23.7520 C.3    27  GLU27       0.1567
     34  C         -1.1150   -8.2520   23.6550 C.2    27  GLU27       0.2260
     35  O         -1.2800   -8.9610   24.6630 O.2    27  GLU27      -0.2867
     36  CB         0.9980   -6.9560   24.1200 C.3    27  GLU27       0.0388
     37  CG         1.8580   -7.7900   23.1920 C.3    27  GLU27       0.1160
     38  CD         3.2280   -8.1430   23.7670 C.2    27  GLU27       0.3649
     39  OE1        3.2710   -8.5690   24.9720 O.co2  27  GLU27      -0.2457
     40  OE2        4.2590   -8.0030   23.0270 O.co2  27  GLU27      -0.2457
     41  N         -0.7130  -11.9710   21.4610 N.3    29  CYS29      -0.1235
     42  CA         0.4150  -12.6870   20.8930 C.3    29  CYS29       0.1677
     43  C         -0.0210  -13.9760   20.2500 C.2    29  CYS29       0.2270
     44  O         -0.8350  -14.6990   20.8200 O.2    29  CYS29      -0.2867
     45  CB         1.4090  -13.0570   22.0010 C.3    29  CYS29       0.0956
     46  SG         1.8890  -11.7370   23.1330 S.3    29  CYS29      -0.0801
     47  N          2.0470  -17.3330   18.5820 N.3    31  ASP31      -0.1239
     48  CA         3.2870  -18.0430   18.2980 C.3    31  ASP31       0.1674
     49  C          3.0320  -19.3930   17.6270 C.2    31  ASP31       0.2266
     50  O          3.8500  -20.3120   17.7710 O.2    31  ASP31      -0.2867
     51  CB         4.1030  -18.2930   19.6050 C.3    31  ASP31       0.1410
     52  CG         4.6050  -16.9910   20.2620 C.2    31  ASP31       0.3668
     53  OD1        5.1190  -16.0870   19.5640 O.co2  31  ASP31      -0.2456
     54  OD2        4.5610  -16.9260   21.5030 O.co2  31  ASP31      -0.2456
     55  N         -2.7110  -15.3210   23.0300 N.3    36  TYR36      -0.1227
     56  CA        -2.6170  -15.0950   24.4450 C.3    36  TYR36       0.1736
     57  C         -2.2540  -13.6160   24.7320 C.2    36  TYR36       0.2596
     58  O         -1.7470  -12.9210   23.8720 O.2    36  TYR36      -0.2718
     59  CB        -1.6010  -16.0670   25.0850 C.3    36  TYR36       0.0548
     60  CG        -0.1420  -15.8690   24.6500 C.ar   36  TYR36      -0.0200
     61  CD1        0.3810  -16.5480   23.5520 C.ar   36  TYR36      -0.0009
     62  CD2        0.7240  -15.0330   25.3780 C.ar   36  TYR36      -0.0009
     63  CE1        1.7080  -16.4030   23.1440 C.ar   36  TYR36       0.0417
     64  CE2        2.0530  -14.8800   25.0010 C.ar   36  TYR36       0.0417
     65  CZ         2.5630  -15.5390   23.8910 C.ar   36  TYR36       0.1957
     66  OH         3.8630  -15.3790   23.4640 O.3    36  TYR36      -0.2866
     67  N         -2.4660  -13.2050   25.9580 N.am   37  THR37      -0.1939
     68  CA        -2.1450  -11.8680   26.4020 C.3    37  THR37       0.2028
     69  C         -0.6970  -11.8470   26.8600 C.2    37  THR37       0.2643
     70  O         -0.2670  -12.6300   27.7490 O.2    37  THR37      -0.2714
     71  CB        -3.0880  -11.4200   27.5090 C.3    37  THR37       0.1808
     72  OG1       -4.4320  -11.4260   26.9740 O.3    37  THR37      -0.2208
     73  CG2       -2.7370  -10.0290   27.9800 C.3    37  THR37       0.0379
     74  N          0.0510  -10.9590   26.2580 N.am   38  GLY38      -0.1939
     75  CA         1.4880  -10.8330   26.5270 C.3    38  GLY38       0.2014
     76  C          1.8340   -9.9240   27.7070 C.2    38  GLY38       0.2638
     77  O          0.9310   -9.3000   28.3090 O.2    38  GLY38      -0.2714
     78  N          3.1490   -9.8250   27.9680 N.am   39  ALA39      -0.1977
     79  CA         3.6590   -9.0780   29.1330 C.3    39  ALA39       0.1597
     80  C          3.5420   -7.5810   28.9920 C.2    39  ALA39       0.2287
     81  O          3.4830   -6.8520   29.9960 O.2    39  ALA39      -0.2864
     82  CB         5.0960   -9.4270   29.4210 C.3    39  ALA39       0.0319
     83  N         18.0380  -15.8850   16.0000 N.3    56  SER56      -0.1202
     84  CA        16.6880  -16.3080   16.3720 C.3    56  SER56       0.2020
     85  C         16.0600  -15.4450   17.4750 C.2    56  SER56       0.2619
     86  O         14.9260  -15.6980   17.8690 O.2    56  SER56      -0.2717
     87  CB        16.7130  -17.7870   16.7830 C.3    56  SER56       0.2103
     88  OG        17.5920  -17.9570   17.8820 O.3    56  SER56      -0.2182
     89  N         16.7700  -14.4190   17.9440 N.am   57  ALA57      -0.1965
     90  CA        16.2930  -13.6040   19.0690 C.3    57  ALA57       0.1728
     91  C         15.5540  -12.3500   18.5330 C.2    57  ALA57       0.2616
     92  O         16.1110  -11.5780   17.7810 O.2    57  ALA57      -0.2715
     93  CB        17.4380  -13.1640   19.9470 C.3    57  ALA57       0.0334
     94  N         14.3190  -12.1600   18.9810 N.am   58  ILE58      -0.1977
     95  CA        13.5620  -11.0160   18.5770 C.3    58  ILE58       0.1596
     96  C         13.8720   -9.8190   19.4600 C.2    58  ILE58       0.2287
     97  O         13.9860   -9.9180   20.7000 O.2    58  ILE58      -0.2864
     98  CB        12.0280  -11.3200   18.5500 C.3    58  ILE58       0.0276
     99  CG1       11.2460  -10.1980   17.8360 C.3    58  ILE58       0.0022
    100  CG2       11.4750  -11.5460   19.9120 C.3    58  ILE58       0.0022
    101  CD1       11.5700  -10.0630   16.3670 C.3    58  ILE58       0.0001
    102  N         12.0630   -5.9430   19.9640 N.3    60  ILE60      -0.1245
    103  CA        10.8320   -5.1700   19.6520 C.3    60  ILE60       0.1561
    104  C         10.9520   -3.7720   20.2450 C.2    60  ILE60       0.2260
    105  O         11.4460   -3.5950   21.3590 O.2    60  ILE60      -0.2867
    106  CB         9.5520   -5.8340   20.1870 C.3    60  ILE60       0.0252
    107  CG1        9.5040   -7.3290   19.8610 C.3    60  ILE60       0.0019
    108  CG2        8.3040   -5.1030   19.6700 C.3    60  ILE60       0.0019
    109  CD1        8.3960   -8.0990   20.5300 C.3    60  ILE60       0.0001
    110  N         11.8160   -4.5200   24.1530 N.3    75  TRP75      -0.1241
    111  CA        11.9550   -5.9560   24.4270 C.3    75  TRP75       0.1605
    112  C         13.2870   -6.4200   23.8020 C.2    75  TRP75       0.2264
    113  O         13.4770   -6.3490   22.5780 O.2    75  TRP75      -0.2867
    114  CB        10.8490   -6.7760   23.8320 C.3    75  TRP75       0.0550
    115  CG        11.0130   -8.2400   24.1230 C.ar   75  TRP75       0.0003
    116  CD1       11.6510   -9.1600   23.3620 C.ar   75  TRP75       0.0946
    117  CD2       10.5350   -8.9310   25.2690 C.ar   75  TRP75       0.0152
    118  NE1       11.5900  -10.4200   23.9630 N.ar   75  TRP75      -0.2442
    119  CE2       10.9740  -10.2790   25.1650 C.ar   75  TRP75       0.0810
    120  CE3        9.8650   -8.5200   26.4380 C.ar   75  TRP75       0.0012
    121  CZ2       10.6910  -11.2520   26.1570 C.ar   75  TRP75       0.0191
    122  CZ3        9.5760   -9.4780   27.3960 C.ar   75  TRP75       0.0001
    123  CH2        9.9740  -10.8380   27.2410 C.ar   75  TRP75       0.0015
    124  N         14.5950   -9.6290   25.0990 N.3    77  GLY77      -0.1225
    125  CA        14.6690  -11.0280   25.5560 C.3    77  GLY77       0.1811
    126  C         14.4230  -11.1960   27.0290 C.2    77  GLY77       0.2280
    127  O         14.2390  -12.3210   27.4990 O.2    77  GLY77      -0.2866
    128  N         10.3090   -5.8560   29.4340 N.3    80  TRP80      -0.1241
    129  CA        10.1210   -4.5610   28.7780 C.3    80  TRP80       0.1605
    130  C         10.8040   -3.4770   29.5960 C.2    80  TRP80       0.2264
    131  O         10.4840   -3.3060   30.7680 O.2    80  TRP80      -0.2867
    132  CB         8.6640   -4.2580   28.6040 C.3    80  TRP80       0.0550
    133  CG         8.0010   -5.1200   27.5860 C.ar   80  TRP80       0.0003
    134  CD1        7.2850   -6.2860   27.8360 C.ar   80  TRP80       0.0946
    135  CD2        7.9790   -4.9460   26.1530 C.ar   80  TRP80       0.0152
    136  NE1        6.8540   -6.8210   26.6590 N.ar   80  TRP80      -0.2442
    137  CE2        7.2560   -6.0380   25.6150 C.ar   80  TRP80       0.0810
    138  CE3        8.4750   -3.9610   25.2810 C.ar   80  TRP80       0.0012
    139  CZ2        6.9900   -6.1680   24.2620 C.ar   80  TRP80       0.0191
    140  CZ3        8.2290   -4.1080   23.9110 C.ar   80  TRP80       0.0001
    141  CH2        7.4880   -5.1900   23.4100 C.ar   80  TRP80       0.0015
@<TRIPOS>BOND
     1     3     2    1
     2     3     4    2
     3     2     1    1
     4     2     5    1
     5     5     6    1
     6    15    16    1
     7    18    17    2
     8     6     7   ar
     9     6     8   ar
    10    17    16    1
    11     7     9   ar
    12    16    19    1
    13    83    84    1
    14     8    11   ar
    15     8    10   ar
    16    11    13   ar
    17   101    99    1
    18    84    87    1
    19    84    85    1
    20    19    20    1
    21     9    10   ar
    22    87    88    1
    23    24    23    2
    24    21    22    1
    25    10    12   ar
    26    13    14   ar
    27    85    86    2
    28    85    89   am
    29    49    50    2
    30    49    48    1
    31    23    22    1
    32    92    91    2
    33    99    98    1
    34    89    90    1
    35    22    25    1
    36    48    47    1
    37    48    51    1
    38    12    14   ar
    39    91    94   am
    40    91    90    1
    41    98    95    1
    42    98   100    1
    43    95    94    1
    44    95    96    1
    45    25    26    1
    46    90    93    1
    47    26    27    1
    48    96    97    2
    49    53    52   ar
    50    30    29    1
    51    51    52    1
    52   103   102    1
    53   103   106    1
    54   103   104    1
    55   108   106    1
    56   107   106    1
    57   107   109    1
    58   104   105    2
    59    43    44    2
    60    43    42    1
    61    52    54   ar
    62    27    28    1
    63    29    28    2
    64    29    31    1
    65    42    41    1
    66    42    45    1
    67    45    46    1
    68   113   112    2
    69    40    38   ar
    70    55    56    1
    71    63    61   ar
    72    63    65   ar
    73    37    38    1
    74    37    36    1
    75   116   118   ar
    76   116   115   ar
    77   141   140   ar
    78   141   139   ar
    79    66    65    1
    80    61    60   ar
    81    34    33    1
    82    34    35    2
    83    33    36    1
    84    33    32    1
    85    38    39   ar
    86   112   111    1
    87   114   115    1
    88   114   111    1
    89    58    57    2
    90    65    64   ar
    91   140   138   ar
    92   118   119   ar
    93   115   117   ar
    94   110   111    1
    95   139   137   ar
    96    56    57    1
    97    56    59    1
    98    60    59    1
    99    60    62   ar
   100    57    67   am
   101    64    62   ar
   102   124   125    1
   103   119   117   ar
   104   119   121   ar
   105   117   120   ar
   106   138   135   ar
   107   125   126    1
   108   137   135   ar
   109   137   136   ar
   110    67    68    1
   111   135   133   ar
   112   121   123   ar
   113    74    75    1
   114    74    69   am
   115    68    69    1
   116    68    71    1
   117   120   122   ar
   118    75    76    1
   119   136   134   ar
   120    69    70    2
   121    72    71    1
   122   126   127    2
   123   123   122   ar
   124    71    73    1
   125   133   134   ar
   126   133   132    1
   127    76    78   am
   128    76    77    2
   129    78    79    1
   130   132   129    1
   131   129   128    1
   132   129   130    1
   133    80    79    1
   134    80    81    2
   135    79    82    1
   136   130   131    2
