@<TRIPOS>MOLECULE
tmp/5ajbA01.pdb
 114 110 0 0 0
SMALL
GASTEIGER

@<TRIPOS>ATOM
      1  N          4.1710  -11.9130    6.1410 N.3    52  TRP52      -0.1241
      2  CA         5.3680  -12.7790    6.1380 C.3    52  TRP52       0.1605
      3  C          5.2450  -13.7530    4.9430 C.2    52  TRP52       0.2264
      4  O          4.1390  -14.0330    4.4420 O.2    52  TRP52      -0.2867
      5  CB         5.5370  -13.5860    7.4390 C.3    52  TRP52       0.0550
      6  CG         4.4590  -14.5880    7.6720 C.ar   52  TRP52       0.0003
      7  CD1        4.4800  -15.9530    7.3860 C.ar   52  TRP52       0.0946
      8  CD2        3.1580  -14.3140    8.1930 C.ar   52  TRP52       0.0152
      9  NE1        3.2770  -16.4990    7.7060 N.ar   52  TRP52      -0.2442
     10  CE2        2.4440  -15.5260    8.1980 C.ar   52  TRP52       0.0810
     11  CE3        2.5380  -13.1670    8.6810 C.ar   52  TRP52       0.0012
     12  CZ2        1.1170  -15.6110    8.5870 C.ar   52  TRP52       0.0191
     13  CZ3        1.2140  -13.2710    9.1240 C.ar   52  TRP52       0.0001
     14  CH2        0.5380  -14.4800    9.0800 C.ar   52  TRP52       0.0015
     15  N          5.8950  -17.5390    3.2510 N.3    54  VAL54      -0.1245
     16  CA         6.0830  -19.0090    3.4290 C.3    54  VAL54       0.1561
     17  C          6.4850  -19.5050    2.0550 C.2    54  VAL54       0.2260
     18  O          5.6550  -19.6260    1.1460 O.2    54  VAL54      -0.2867
     19  CB         4.8000  -19.7050    3.9450 C.3    54  VAL54       0.0252
     20  CG1        5.0100  -21.2430    4.0520 C.3    54  VAL54       0.0019
     21  CG2        4.4030  -19.1580    5.2970 C.3    54  VAL54       0.0019
     22  N          1.6100  -14.1050    3.0940 N.3    59  HIS59      -0.1241
     23  CA         0.5360  -14.1860    4.0860 C.3    59  HIS59       0.1621
     24  C          0.4270  -12.8050    4.7160 C.2    59  HIS59       0.2264
     25  O          1.4030  -12.2630    5.1630 O.2    59  HIS59      -0.2867
     26  CB         0.8430  -15.2470    5.1310 C.3    59  HIS59       0.0745
     27  CG         0.8890  -16.6190    4.5360 C.ar   59  HIS59       0.0817
     28  ND1       -0.1860  -17.4760    4.5480 N.ar   59  HIS59      -0.2268
     29  CD2        1.8380  -17.2120    3.7760 C.ar   59  HIS59       0.1154
     30  CE1        0.1230  -18.5730    3.8610 C.ar   59  HIS59       0.1986
     31  NE2        1.3400  -18.4250    3.3740 N.ar   59  HIS59      -0.2212
     32  N         -1.9220  -10.2010    7.3620 N.3    61  ARG61      -0.1245
     33  CA        -2.9120  -10.0240    8.4330 C.3    61  ARG61       0.1563
     34  C         -3.2000   -8.5450    8.5680 C.2    61  ARG61       0.2260
     35  O         -2.2940   -7.7680    8.8460 O.2    61  ARG61      -0.2867
     36  CB        -2.4040  -10.5800    9.7720 C.3    61  ARG61       0.0307
     37  CG        -2.1610  -12.0920    9.7350 C.3    61  ARG61       0.0489
     38  CD        -3.4250  -12.8690    9.5020 C.3    61  ARG61       0.2205
     39  NE        -3.1830  -14.3450    9.4380 N.pl3  61  ARG61      -0.0865
     40  CZ        -2.9190  -15.0520    8.3170 C.cat  61  ARG61       0.5346
     41  NH1       -2.8420  -14.4780    7.1030 N.pl3  61  ARG61       0.1354
     42  NH2       -2.7670  -16.3560    8.4060 N.pl3  61  ARG61       0.1354
     43  N         -5.6030   -5.8070   10.7250 N.3    63  TYR63      -0.1241
     44  CA        -6.3410   -5.6030   11.9900 C.3    63  TYR63       0.1605
     45  C         -7.1920   -4.3660   11.8650 C.2    63  TYR63       0.2264
     46  O         -6.6580   -3.2490   11.7610 O.2    63  TYR63      -0.2867
     47  CB        -5.3860   -5.5790   13.2070 C.3    63  TYR63       0.0534
     48  CG        -4.6330   -6.9120   13.3030 C.ar   63  TYR63      -0.0201
     49  CD1       -5.1800   -8.0010   13.9250 C.ar   63  TYR63      -0.0009
     50  CD2       -3.4070   -7.0620   12.6620 C.ar   63  TYR63      -0.0009
     51  CE1       -4.5330   -9.2570   13.9010 C.ar   63  TYR63       0.0417
     52  CE2       -2.7260   -8.2710   12.6360 C.ar   63  TYR63       0.0417
     53  CZ        -3.2920   -9.3860   13.2150 C.ar   63  TYR63       0.1957
     54  OH        -2.6250  -10.5800   13.1460 O.3    63  TYR63      -0.2866
     55  N         -9.5360   -9.4350   12.7870 N.3    72  GLU72      -0.1245
     56  CA        -8.3930   -9.8470   11.9460 C.3    72  GLU72       0.1567
     57  C         -8.8480  -10.4630   10.6350 C.2    72  GLU72       0.2260
     58  O         -9.7030  -11.3640   10.6200 O.2    72  GLU72      -0.2867
     59  CB        -7.5570  -10.8770   12.6950 C.3    72  GLU72       0.0388
     60  CG        -6.3190  -11.4120   11.9460 C.3    72  GLU72       0.1160
     61  CD        -5.6910  -12.5860   12.6610 C.2    72  GLU72       0.3649
     62  OE1       -6.4260  -13.5370   13.0310 O.co2  72  GLU72      -0.2457
     63  OE2       -4.4510  -12.5860   12.8700 O.co2  72  GLU72      -0.2457
     64  N         -7.4260  -12.2070    6.9600 N.3    74  CYS74      -0.1235
     65  CA        -6.3040  -13.0730    6.5760 C.3    74  CYS74       0.1677
     66  C         -6.2850  -13.2850    5.0570 C.2    74  CYS74       0.2270
     67  O         -7.2770  -13.7030    4.4730 O.2    74  CYS74      -0.2867
     68  CB        -6.4390  -14.4370    7.2220 C.3    74  CYS74       0.0956
     69  SG        -6.5980  -14.4280    9.0280 S.3    74  CYS74      -0.0801
     70  N         -4.1580  -15.7930    2.6810 N.3    76  ASP76      -0.1239
     71  CA        -3.2930  -16.9750    2.6620 C.3    76  ASP76       0.1674
     72  C         -3.2530  -17.6480    1.2720 C.2    76  ASP76       0.2266
     73  O         -2.9950  -18.8480    1.1590 O.2    76  ASP76      -0.2867
     74  CB        -3.7590  -17.9880    3.7220 C.3    76  ASP76       0.1410
     75  CG        -3.7230  -17.4070    5.1360 C.2    76  ASP76       0.3668
     76  OD1       -2.6030  -17.1910    5.6640 O.co2  76  ASP76      -0.2456
     77  OD2       -4.8180  -17.2190    5.7160 O.co2  76  ASP76      -0.2456
     78  N        -10.1270  -14.0170    4.4330 N.3    81  THR81      -0.1203
     79  CA       -10.9370  -14.7690    5.3980 C.3    81  THR81       0.1994
     80  C        -10.7820  -14.2140    6.8130 C.2    81  THR81       0.2618
     81  O         -9.7600  -13.6170    7.1710 O.2    81  THR81      -0.2717
     82  CB       -10.5530  -16.2640    5.3750 C.3    81  THR81       0.1784
     83  OG1       -9.1800  -16.4420    5.7480 O.3    81  THR81      -0.2211
     84  CG2      -10.6730  -16.8260    4.0180 C.3    81  THR81       0.0376
     85  N        -11.7770  -14.4300    7.6460 N.am   82  LYS82      -0.1965
     86  CA       -11.6980  -13.9420    9.0460 C.3    82  LYS82       0.1728
     87  C        -10.7430  -14.7610    9.8970 C.2    82  LYS82       0.2617
     88  O        -10.7600  -16.0100    9.8490 O.2    82  LYS82      -0.2715
     89  CB       -13.0970  -13.9300    9.6750 C.3    82  LYS82       0.0311
     90  CG       -13.1010  -13.1230   10.9800 C.3    82  LYS82       0.0038
     91  CD       -14.4420  -13.1420   11.6990 C.3    82  LYS82       0.0206
     92  CE       -15.3660  -12.1230   11.0910 C.3    82  LYS82       0.1093
     93  NZ       -16.7360  -12.1240   11.7020 N.3    82  LYS82      -0.1314
     94  N         -9.8940  -14.0990   10.6830 N.am   83  GLY83      -0.1940
     95  CA        -8.9340  -14.8170   11.5330 C.3    83  GLY83       0.2014
     96  C         -9.4720  -15.0510   12.9370 C.2    83  GLY83       0.2639
     97  O        -10.5430  -14.5400   13.3160 O.2    83  GLY83      -0.2714
     98  N         -8.7280  -15.8700   13.6570 N.am   84  ALA84      -0.1963
     99  CA        -9.0540  -16.2800   15.0080 C.3    84  ALA84       0.1728
    100  C         -8.7990  -15.2040   16.0950 C.2    84  ALA84       0.2616
    101  O         -9.2460  -15.3500   17.2350 O.2    84  ALA84      -0.2715
    102  CB        -8.3220  -17.5460   15.3580 C.3    84  ALA84       0.0334
    103  N         -8.0830  -14.1380   15.7480 N.am   85  TYR85      -0.1974
    104  CA        -7.7370  -13.0900   16.7110 C.3    85  TYR85       0.1639
    105  C         -8.9320  -12.6200   17.5370 C.2    85  TYR85       0.2290
    106  O        -10.0080  -12.2920   16.9770 O.2    85  TYR85      -0.2864
    107  CB        -7.2050  -11.8530   15.9740 C.3    85  TYR85       0.0560
    108  CG        -6.8560  -10.6880   16.9190 C.ar   85  TYR85      -0.0198
    109  CD1       -5.6180  -10.6270   17.5830 C.ar   85  TYR85      -0.0009
    110  CD2       -7.7540   -9.6760   17.1280 C.ar   85  TYR85      -0.0009
    111  CE1       -5.3160   -9.5720   18.4250 C.ar   85  TYR85       0.0417
    112  CE2       -7.4760   -8.6270   17.9830 C.ar   85  TYR85       0.0417
    113  CZ        -6.2340   -8.5650   18.6030 C.ar   85  TYR85       0.1957
    114  OH        -6.0020   -7.5090   19.4370 O.3    85  TYR85      -0.2866
@<TRIPOS>BOND
     1    18    17    2
     2    73    72    2
     3    72    71    1
     4    17    16    1
     5    71    70    1
     6    71    74    1
     7    22    23    1
     8    15    16    1
     9    31    29   ar
    10    31    30   ar
    11    16    19    1
    12    74    75    1
    13    29    27   ar
    14    30    28   ar
    15    19    20    1
    16    19    21    1
    17    84    82    1
    18    23    24    1
    19    23    26    1
    20    78    79    1
    21     4     3    2
    22    67    66    2
    23    27    28   ar
    24    27    26    1
    25    24    25    2
    26     3     2    1
    27    66    65    1
    28    75    76   ar
    29    75    77   ar
    30    82    79    1
    31    82    83    1
    32    79    80    1
    33     2     1    1
    34     2     5    1
    35    65    64    1
    36    65    68    1
    37    80    81    2
    38    80    85   am
    39    41    40    1
    40    68    69    1
    41    32    33    1
    42     7     6   ar
    43     7     9   ar
    44     5     6    1
    45    85    86    1
    46     6     8   ar
    47     9    10   ar
    48     8    10   ar
    49     8    11   ar
    50    10    12   ar
    51    40    42    1
    52    40    39    2
    53    33    34    1
    54    33    36    1
    55    34    35    2
    56    12    14   ar
    57    11    13   ar
    58    86    89    1
    59    86    87    1
    60    14    13   ar
    61    39    38    1
    62    38    37    1
    63    89    90    1
    64    37    36    1
    65    88    87    2
    66    87    94   am
    67    58    57    2
    68    57    56    1
    69    94    95    1
    70    43    44    1
    71    90    91    1
    72    92    91    1
    73    92    93    1
    74    95    96    1
    75    46    45    2
    76    45    44    1
    77    56    59    1
    78    56    55    1
    79    60    61    1
    80    60    59    1
    81    44    47    1
    82    52    50   ar
    83    52    53   ar
    84    61    63   ar
    85    61    62   ar
    86    50    48   ar
    87    96    97    2
    88    96    98   am
    89    54    53    1
    90    47    48    1
    91    53    51   ar
    92    48    49   ar
    93    98    99    1
    94    51    49   ar
    95    99   102    1
    96    99   100    1
    97   103   100   am
    98   103   104    1
    99   107   104    1
   100   107   108    1
   101   100   101    2
   102   104   105    1
   103   108   110   ar
   104   108   109   ar
   105   106   105    2
   106   110   112   ar
   107   109   111   ar
   108   112   113   ar
   109   111   113   ar
   110   113   114    1
