@<TRIPOS>MOLECULE
tmp/5ajbC01.pdb
 130 125 0 0 0
SMALL
GASTEIGER

@<TRIPOS>ATOM
      1  N         15.6500   -1.8140   10.1550 N.3    10  TRP10      -0.1241
      2  CA        16.3490   -2.7310    9.2790 C.3    10  TRP10       0.1605
      3  C         17.7070   -3.0930    9.8310 C.2    10  TRP10       0.2264
      4  O         18.2860   -2.3710   10.6510 O.2    10  TRP10      -0.2867
      5  CB        16.4910   -2.1860    7.8680 C.3    10  TRP10       0.0550
      6  CG        17.2980   -0.9200    7.7280 C.ar   10  TRP10       0.0003
      7  CD1       18.6530   -0.8220    7.4380 C.ar   10  TRP10       0.0946
      8  CD2       16.8040    0.4250    7.8120 C.ar   10  TRP10       0.0152
      9  NE1       19.0050    0.5360    7.3380 N.ar   10  TRP10      -0.2442
     10  CE2       17.8990    1.3050    7.5680 C.ar   10  TRP10       0.0810
     11  CE3       15.5290    0.9760    8.0680 C.ar   10  TRP10       0.0012
     12  CZ2       17.7740    2.6930    7.6230 C.ar   10  TRP10       0.0191
     13  CZ3       15.3980    2.3620    8.0980 C.ar   10  TRP10       0.0001
     14  CH2       16.4940    3.1990    7.8820 C.ar   10  TRP10       0.0015
     15  N         19.0270   -0.0650   12.4390 N.3    15  SER15      -0.1217
     16  CA        18.5770    1.2930   12.1220 C.3    15  SER15       0.1889
     17  C         17.0640    1.3550   12.3840 C.2    15  SER15       0.2288
     18  O         16.3630    0.4280   12.0200 O.2    15  SER15      -0.2866
     19  CB        18.8650    1.6850   10.6830 C.3    15  SER15       0.2089
     20  OG        20.2310    2.0760   10.5060 O.3    15  SER15      -0.2183
     21  N         13.5800    4.1230   12.1260 N.3    17  ARG17      -0.1245
     22  CA        13.0110    5.4140   11.7780 C.3    17  ARG17       0.1563
     23  C         11.6020    5.4930   12.3650 C.2    17  ARG17       0.2260
     24  O         10.8110    4.5800   12.1860 O.2    17  ARG17      -0.2867
     25  CB        12.9670    5.6320   10.2770 C.3    17  ARG17       0.0307
     26  CG        14.3320    5.5820    9.5810 C.3    17  ARG17       0.0489
     27  CD        15.1950    6.7600    9.9790 C.3    17  ARG17       0.2205
     28  NE        16.4980    6.7430    9.3020 N.pl3  17  ARG17      -0.0865
     29  CZ        17.5890    6.1180    9.7440 C.cat  17  ARG17       0.5346
     30  NH1       17.6280    5.5020   10.9310 N.pl3  17  ARG17       0.1354
     31  NH2       18.7050    6.1520    8.9950 N.pl3  17  ARG17       0.1354
     32  N         10.6140   13.1480   11.5300 N.3    28  GLU28      -0.1245
     33  CA        11.2780   11.8550   11.5440 C.3    28  GLU28       0.1567
     34  C         12.4420   11.8790   12.5930 C.2    28  GLU28       0.2260
     35  O         13.2440   12.8110   12.6120 O.2    28  GLU28      -0.2867
     36  CB        11.8380   11.5390   10.1550 C.3    28  GLU28       0.0388
     37  CG        12.6170   10.2280    9.9980 C.3    28  GLU28       0.1160
     38  CD        13.3970   10.1620    8.6870 C.2    28  GLU28       0.3649
     39  OE1       14.0340   11.2040    8.3300 O.co2  28  GLU28      -0.2457
     40  OE2       13.3580    9.0880    7.9910 O.co2  28  GLU28      -0.2457
     41  N         15.5910    9.3160   14.0980 N.3    30  CYS30      -0.1235
     42  CA        16.4120    8.2550   13.5270 C.3    30  CYS30       0.1677
     43  C         17.4080    7.7240   14.5580 C.2    30  CYS30       0.2270
     44  O         17.9970    8.4780   15.3220 O.2    30  CYS30      -0.2867
     45  CB        17.2420    8.8280   12.3740 C.3    30  CYS30       0.0956
     46  SG        16.3020    9.7920   11.1750 S.3    30  CYS30      -0.0801
     47  N         20.7160    5.0170   14.3850 N.3    32  ASP32      -0.1239
     48  CA        21.6180    4.1610   13.6120 C.3    32  ASP32       0.1674
     49  C         22.6820    3.5190   14.4980 C.2    32  ASP32       0.2266
     50  O         23.7900    3.2480   14.0240 O.2    32  ASP32      -0.2867
     51  CB        22.3200    4.9570   12.5060 C.3    32  ASP32       0.1410
     52  CG        21.3570    5.4830   11.4300 C.2    32  ASP32       0.3668
     53  OD1       20.4850    4.7340   10.9420 O.co2  32  ASP32      -0.2456
     54  OD2       21.5140    6.6620   11.0290 O.co2  32  ASP32      -0.2456
     55  N         18.5780   11.1390   16.3700 N.3    37  TYR37      -0.1227
     56  CA        18.7730   12.4080   15.6840 C.3    37  TYR37       0.1736
     57  C         17.5580   12.7110   14.8090 C.2    37  TYR37       0.2596
     58  O         16.7670   11.8090   14.4830 O.2    37  TYR37      -0.2718
     59  CB        20.0940   12.4440   14.8620 C.3    37  TYR37       0.0548
     60  CG        20.1780   11.4650   13.6810 C.ar   37  TYR37      -0.0200
     61  CD1       19.7360   11.8320   12.4120 C.ar   37  TYR37      -0.0009
     62  CD2       20.6830   10.1800   13.8410 C.ar   37  TYR37      -0.0009
     63  CE1       19.7610   10.9440   11.3560 C.ar   37  TYR37       0.0417
     64  CE2       20.7340    9.2990   12.7810 C.ar   37  TYR37       0.0417
     65  CZ        20.2860    9.6980   11.5250 C.ar   37  TYR37       0.1957
     66  OH        20.3170    8.8460   10.4380 O.3    37  TYR37      -0.2866
     67  N         17.4040   13.9840   14.4310 N.am   38  THR38      -0.1939
     68  CA        16.2900   14.3910   13.6070 C.3    38  THR38       0.2028
     69  C         16.6400   14.1630   12.1450 C.2    38  THR38       0.2643
     70  O         17.7010   14.6050   11.6530 O.2    38  THR38      -0.2714
     71  CB        15.9080   15.8430   13.8950 C.3    38  THR38       0.1808
     72  OG1       15.4730   15.9310   15.2540 O.3    38  THR38      -0.2208
     73  CG2       14.7370   16.2820   12.9860 C.3    38  THR38       0.0379
     74  N         15.7680   13.4320   11.4520 N.am   39  GLY39      -0.1939
     75  CA        15.9930   13.0700   10.0720 C.3    39  GLY39       0.2014
     76  C         15.5320   14.1340    9.0800 C.2    39  GLY39       0.2638
     77  O         14.9150   15.1310    9.4590 O.2    39  GLY39      -0.2714
     78  N         15.8770   13.8990    7.8210 N.am   40  ALA40      -0.1977
     79  CA        15.5610   14.7900    6.7080 C.3    40  ALA40       0.1597
     80  C         14.1080   14.8460    6.3570 C.2    40  ALA40       0.2287
     81  O         13.6430   15.8400    5.8080 O.2    40  ALA40      -0.2864
     82  CB        16.3410   14.4200    5.4770 C.3    40  ALA40       0.0319
     83  N         18.9060    0.5890    1.7630 N.3    59  ILE59      -0.1245
     84  CA        17.5570    0.6760    2.3400 C.3    59  ILE59       0.1561
     85  C         16.6680    1.5030    1.4150 C.2    59  ILE59       0.2260
     86  O         17.0850    2.5190    0.8370 O.2    59  ILE59      -0.2867
     87  CB        17.5050    1.2740    3.7780 C.3    59  ILE59       0.0252
     88  CG1       16.1200    1.1050    4.4230 C.3    59  ILE59       0.0019
     89  CG2       17.9090    2.7440    3.8070 C.3    59  ILE59       0.0019
     90  CD1       15.6970   -0.3500    4.6170 C.3    59  ILE59       0.0001
     91  N         12.7090    3.0390    1.5770 N.3    61  ILE61      -0.1245
     92  CA        11.6070    3.3790    2.4950 C.3    61  ILE61       0.1561
     93  C         10.4710    4.0050    1.7150 C.2    61  ILE61       0.2260
     94  O         10.6940    4.8390    0.8240 O.2    61  ILE61      -0.2867
     95  CB        12.0580    4.3610    3.6300 C.3    61  ILE61       0.0252
     96  CG1       13.3910    3.9290    4.2630 C.3    61  ILE61       0.0019
     97  CG2       10.9500    4.5110    4.6700 C.3    61  ILE61       0.0019
     98  CD1       13.9930    4.9510    5.2320 C.3    61  ILE61       0.0001
     99  N         12.3390    6.9990   -0.2750 N.3    76  TRP76      -0.1241
    100  CA        13.7770    7.0960    0.0010 C.3    76  TRP76       0.1605
    101  C         14.3950    5.9150   -0.7570 C.2    76  TRP76       0.2264
    102  O         14.0530    4.7560   -0.5090 O.2    76  TRP76      -0.2867
    103  CB        14.0950    6.9990    1.4890 C.3    76  TRP76       0.0550
    104  CG        15.5600    7.1070    1.7360 C.ar   76  TRP76       0.0003
    105  CD1       16.4510    6.0800    1.8010 C.ar   76  TRP76       0.0946
    106  CD2       16.2870    8.3200    1.9470 C.ar   76  TRP76       0.0152
    107  NE1       17.7230    6.5960    2.0120 N.ar   76  TRP76      -0.2442
    108  CE2       17.6430    7.9650    2.1230 C.ar   76  TRP76       0.0810
    109  CE3       15.9250    9.6810    2.0530 C.ar   76  TRP76       0.0012
    110  CZ2       18.6370    8.9170    2.3820 C.ar   76  TRP76       0.0191
    111  CZ3       16.9340   10.6260    2.2950 C.ar   76  TRP76       0.0001
    112  CH2       18.2650   10.2380    2.4470 C.ar   76  TRP76       0.0015
    113  N         17.9840    6.0640   -1.3500 N.3    78  GLY78      -0.1225
    114  CA        19.3890    6.1780   -0.9730 C.3    78  GLY78       0.1811
    115  C         19.8900    7.5890   -0.6500 C.2    78  GLY78       0.2280
    116  O         20.8410    7.7530    0.1500 O.2    78  GLY78      -0.2866
    117  N         14.3070   12.2030   -0.4720 N.3    81  TRP81      -0.1241
    118  CA        12.8900   11.8830   -0.5000 C.3    81  TRP81       0.1605
    119  C         12.2020   12.3930   -1.7770 C.2    81  TRP81       0.2264
    120  O         12.1290   13.6130   -1.9820 O.2    81  TRP81      -0.2867
    121  CB        12.2400   12.4670    0.7520 C.3    81  TRP81       0.0550
    122  CG        12.6700   11.7960    2.0270 C.ar   81  TRP81       0.0003
    123  CD1       13.5930   12.2530    2.9400 C.ar   81  TRP81       0.0946
    124  CD2       12.1960   10.5270    2.5340 C.ar   81  TRP81       0.0152
    125  NE1       13.6990   11.3640    3.9870 N.ar   81  TRP81      -0.2442
    126  CE2       12.8570   10.3030    3.7740 C.ar   81  TRP81       0.0810
    127  CE3       11.2610    9.5790    2.0660 C.ar   81  TRP81       0.0012
    128  CZ2       12.6310    9.1600    4.5470 C.ar   81  TRP81       0.0191
    129  CZ3       11.0120    8.4570    2.8540 C.ar   81  TRP81       0.0001
    130  CH2       11.6900    8.2680    4.0810 C.ar   81  TRP81       0.0015
@<TRIPOS>BOND
     1   120   119    2
     2   119   118    1
     3   113   114    1
     4   114   115    1
     5   101   102    2
     6   101   100    1
     7   115   116    2
     8   118   117    1
     9   118   121    1
    10    99   100    1
    11   100   103    1
    12   121   122    1
    13    94    93    2
    14    86    85    2
    15    85    84    1
    16   103   104    1
    17    91    92    1
    18    93    92    1
    19   104   105   ar
    20   104   106   ar
    21    83    84    1
    22   105   107   ar
    23   106   109   ar
    24   106   108   ar
    25   107   108   ar
    26   122   124   ar
    27   122   123   ar
    28   109   111   ar
    29   127   124   ar
    30   127   129   ar
    31   108   110   ar
    32   111   112   ar
    33    84    87    1
    34   110   112   ar
    35    92    95    1
    36   124   126   ar
    37   129   130   ar
    38   123   125   ar
    39    95    96    1
    40    95    97    1
    41   126   125   ar
    42   126   128   ar
    43    87    89    1
    44    87    88    1
    45   130   128   ar
    46    96    98    1
    47    88    90    1
    48    82    79    1
    49    81    80    2
    50    80    79    1
    51    79    78    1
    52     9     7   ar
    53     9    10   ar
    54     7     6   ar
    55    10    12   ar
    56    10     8   ar
    57    12    14   ar
    58     6     8   ar
    59     6     5    1
    60     8    11   ar
    61    78    76   am
    62     5     2    1
    63    14    13   ar
    64    40    38   ar
    65    11    13   ar
    66    39    38   ar
    67    38    37    1
    68    31    29    1
    69    76    77    2
    70    76    75    1
    71     2     3    1
    72     2     1    1
    73    28    29    2
    74    28    27    1
    75    26    27    1
    76    26    25    1
    77    29    30    1
    78     3     4    2
    79    37    36    1
    80    75    74    1
    81    36    33    1
    82    25    22    1
    83    66    65    1
    84    20    19    1
    85    19    16    1
    86    53    52   ar
    87    54    52   ar
    88    46    45    1
    89    63    65   ar
    90    63    61   ar
    91    52    51    1
    92    74    69   am
    93    65    64   ar
    94    32    33    1
    95    33    34    1
    96    70    69    2
    97    22    21    1
    98    22    23    1
    99    18    17    2
   100    16    17    1
   101    16    15    1
   102    69    68    1
   103    24    23    2
   104    45    42    1
   105    61    60   ar
   106    51    48    1
   107    34    35    2
   108    64    62   ar
   109    73    71    1
   110    42    41    1
   111    42    43    1
   112    68    71    1
   113    68    67    1
   114    48    47    1
   115    48    49    1
   116    60    62   ar
   117    60    59    1
   118    71    72    1
   119    50    49    2
   120    67    57   am
   121    58    57    2
   122    43    44    2
   123    57    56    1
   124    59    56    1
   125    56    55    1
