@<TRIPOS>MOLECULE
tmp/5ajcC01.pdb
 142 138 0 0 0
SMALL
GASTEIGER

@<TRIPOS>ATOM
      1  N         42.8260   53.9930   18.9060 N.3    10  TRP10      -0.1241
      2  CA        44.1600   53.4140   18.6620 C.3    10  TRP10       0.1605
      3  C         45.2240   53.9520   19.5950 C.2    10  TRP10       0.2264
      4  O         45.0870   55.0390   20.1730 O.2    10  TRP10      -0.2867
      5  CB        44.6070   53.6420   17.2300 C.3    10  TRP10       0.0550
      6  CG        44.7970   55.0850   16.8100 C.ar   10  TRP10       0.0003
      7  CD1       45.9430   55.8220   16.8990 C.ar   10  TRP10       0.0946
      8  CD2       43.7930   55.9840   16.3050 C.ar   10  TRP10       0.0152
      9  NE1       45.7230   57.0980   16.3990 N.ar   10  TRP10      -0.2442
     10  CE2       44.4180   57.2200   16.0340 C.ar   10  TRP10       0.0810
     11  CE3       42.4420   55.8370   15.9730 C.ar   10  TRP10       0.0012
     12  CZ2       43.7280   58.3190   15.4960 C.ar   10  TRP10       0.0191
     13  CZ3       41.7700   56.9470   15.4270 C.ar   10  TRP10       0.0001
     14  CH2       42.4000   58.1530   15.2290 C.ar   10  TRP10       0.0015
     15  N         43.9110   57.7400   21.1500 N.3    15  SER15      -0.1217
     16  CA        43.0700   58.5480   20.2640 C.3    15  SER15       0.1889
     17  C         41.7540   57.7930   20.1100 C.2    15  SER15       0.2288
     18  O         41.7560   56.5790   19.9450 O.2    15  SER15      -0.2866
     19  CB        43.7210   58.7610   18.8870 C.3    15  SER15       0.2089
     20  OG        44.7410   59.7330   18.9710 O.3    15  SER15      -0.2183
     21  N         37.8740   58.1750   17.9450 N.3    17  ARG17      -0.1245
     22  CA        37.0120   58.8560   17.0130 C.3    17  ARG17       0.1563
     23  C         35.6180   58.2980   17.1310 C.2    17  ARG17       0.2260
     24  O         35.4390   57.0590   17.1000 O.2    17  ARG17      -0.2867
     25  CB        37.5260   58.7490   15.5640 C.3    17  ARG17       0.0307
     26  CG        38.9200   59.3140   15.3200 C.3    17  ARG17       0.0489
     27  CD        38.9360   60.8260   15.4230 C.3    17  ARG17       0.2205
     28  NE        40.2820   61.4150   15.2010 N.pl3  17  ARG17      -0.0865
     29  CZ        41.2290   61.5500   16.1160 C.cat  17  ARG17       0.5346
     30  NH1       41.0280   61.1960   17.3750 N.pl3  17  ARG17       0.1354
     31  NH2       42.4010   62.0840   15.7710 N.pl3  17  ARG17       0.1354
     32  N         31.8640   63.8970   13.2260 N.3    28  GLU28      -0.1245
     33  CA        32.9540   63.2010   13.9140 C.3    28  GLU28       0.1567
     34  C         33.4200   63.9850   15.1270 C.2    28  GLU28       0.2260
     35  O         33.6430   65.1740   15.0300 O.2    28  GLU28      -0.2867
     36  CB        34.1380   63.0080   12.9280 C.3    28  GLU28       0.0388
     37  CG        35.3910   62.3080   13.4690 C.3    28  GLU28       0.1160
     38  CD        36.5760   62.4310   12.5060 C.2    28  GLU28       0.3649
     39  OE1       36.7850   63.5300   11.9310 O.co2  28  GLU28      -0.2457
     40  OE2       37.3410   61.4330   12.3420 O.co2  28  GLU28      -0.2457
     41  N         36.3910   63.8800   18.2770 N.3    30  CYS30      -0.1235
     42  CA        37.7540   63.3820   18.3860 C.3    30  CYS30       0.1677
     43  C         38.3890   63.6560   19.7310 C.2    30  CYS30       0.2270
     44  O         38.1880   64.7370   20.3200 O.2    30  CYS30      -0.2867
     45  CB        38.6720   64.0240   17.3310 C.3    30  CYS30       0.0956
     46  SG        38.0280   64.1180   15.6770 S.3    30  CYS30      -0.0801
     47  N         42.2880   63.1790   21.4570 N.3    32  ASP32      -0.1239
     48  CA        43.7130   62.8450   21.3820 C.3    32  ASP32       0.1674
     49  C         44.4480   63.0880   22.7330 C.2    32  ASP32       0.2266
     50  O         45.6530   63.2620   22.7190 O.2    32  ASP32      -0.2867
     51  CB        44.3800   63.6400   20.2640 C.3    32  ASP32       0.1410
     52  CG        43.7870   63.3800   18.8840 C.2    32  ASP32       0.3668
     53  OD1       43.6290   62.1880   18.4990 O.co2  32  ASP32      -0.2456
     54  OD2       43.6000   64.3750   18.0990 O.co2  32  ASP32      -0.2456
     55  N         37.0790   67.4510   20.4590 N.3    37  TYR37      -0.1227
     56  CA        36.8830   68.4700   19.4160 C.3    37  TYR37       0.1736
     57  C         36.1520   67.8740   18.2140 C.2    37  TYR37       0.2596
     58  O         35.9960   66.6220   18.1360 O.2    37  TYR37      -0.2718
     59  CB        38.2400   69.0800   19.0260 C.3    37  TYR37       0.0548
     60  CG        39.2200   68.1280   18.3610 C.ar   37  TYR37      -0.0200
     61  CD1       40.0890   67.3360   19.1070 C.ar   37  TYR37      -0.0009
     62  CD2       39.2830   68.0200   16.9760 C.ar   37  TYR37      -0.0009
     63  CE1       40.9880   66.4540   18.4870 C.ar   37  TYR37       0.0417
     64  CE2       40.1750   67.1430   16.3570 C.ar   37  TYR37       0.0417
     65  CZ        41.0280   66.3720   17.1260 C.ar   37  TYR37       0.1957
     66  OH        41.8840   65.4660   16.5030 O.3    37  TYR37      -0.2866
     67  N         35.7090   68.7290   17.3060 N.am   38  THR38      -0.1939
     68  CA        34.9970   68.2980   16.0980 C.3    38  THR38       0.2028
     69  C         35.9850   68.0170   14.9870 C.2    38  THR38       0.2643
     70  O         36.8260   68.8520   14.6440 O.2    38  THR38      -0.2714
     71  CB        33.9550   69.3210   15.7030 C.3    38  THR38       0.1808
     72  OG1       32.9610   69.3890   16.7510 O.3    38  THR38      -0.2208
     73  CG2       33.2470   68.9580   14.3830 C.3    38  THR38       0.0379
     74  N         35.9210   66.8060   14.4600 N.am   39  GLY39      -0.1939
     75  CA        36.8090   66.4050   13.3870 C.3    39  GLY39       0.2014
     76  C         36.4310   66.9010   11.9950 C.2    39  GLY39       0.2638
     77  O         35.3330   67.4030   11.7600 O.2    39  GLY39      -0.2714
     78  N         37.3530   66.6610   11.0790 N.am   40  ALA40      -0.1977
     79  CA        37.1780   67.0180    9.6560 C.3    40  ALA40       0.1597
     80  C         36.1390   66.2070    8.8920 C.2    40  ALA40       0.2287
     81  O         35.6140   66.6630    7.8880 O.2    40  ALA40      -0.2864
     82  CB        38.5150   66.9570    8.9320 C.3    40  ALA40       0.0319
     83  N         47.9310   55.8610   11.6820 N.3    59  ILE59      -0.1245
     84  CA        46.5320   55.3640   11.5970 C.3    59  ILE59       0.1561
     85  C         45.9330   55.4470   10.1790 C.2    59  ILE59       0.2260
     86  O         46.1370   56.4290    9.4320 O.2    59  ILE59      -0.2867
     87  CB        45.5940   56.1050   12.6370 C.3    59  ILE59       0.0252
     88  CG1       44.2820   55.3320   12.8670 C.3    59  ILE59       0.0019
     89  CG2       45.2960   57.5250   12.2030 C.3    59  ILE59       0.0019
     90  CD1       44.4620   53.9420   13.4220 C.3    59  ILE59       0.0001
     91  N         41.9780   54.8680    8.5520 N.3    61  ILE61      -0.1245
     92  CA        40.5710   54.7660    9.0050 C.3    61  ILE61       0.1561
     93  C         39.7240   54.5390    7.7580 C.2    61  ILE61       0.2260
     94  O         39.9350   55.1890    6.7430 O.2    61  ILE61      -0.2867
     95  CB        40.0710   56.0240    9.7870 C.3    61  ILE61       0.0252
     96  CG1       41.0310   56.4180   10.8960 C.3    61  ILE61       0.0019
     97  CG2       38.7080   55.7650   10.4140 C.3    61  ILE61       0.0019
     98  CD1       40.7440   57.7710   11.5540 C.3    61  ILE61       0.0001
     99  N         40.7500   57.6780    5.4260 N.3    76  TRP76      -0.1241
    100  CA        41.8220   58.4900    6.0120 C.3    76  TRP76       0.1605
    101  C         43.1290   57.6690    5.9620 C.2    76  TRP76       0.2264
    102  O         43.2160   56.5980    6.5660 O.2    76  TRP76      -0.2867
    103  CB        41.5150   58.9240    7.4300 C.3    76  TRP76       0.0550
    104  CG        42.6840   59.6470    8.0820 C.ar   76  TRP76       0.0003
    105  CD1       43.7840   59.0820    8.7020 C.ar   76  TRP76       0.0946
    106  CD2       42.8580   61.0060    8.1440 C.ar   76  TRP76       0.0152
    107  NE1       44.6370   60.0310    9.1160 N.ar   76  TRP76      -0.2442
    108  CE2       44.0950   61.2390    8.7850 C.ar   76  TRP76       0.0810
    109  CE3       42.0900   62.0920    7.7010 C.ar   76  TRP76       0.0012
    110  CZ2       44.5710   62.5080    9.0360 C.ar   76  TRP76       0.0191
    111  CZ3       42.5550   63.3310    7.9410 C.ar   76  TRP76       0.0001
    112  CH2       43.7810   63.5470    8.6140 C.ar   76  TRP76       0.0015
    113  N         46.3380   59.5100    6.2930 N.3    78  GLY78      -0.1210
    114  CA        47.3710   60.4160    6.8490 C.3    78  GLY78       0.1956
    115  C         47.3230   61.8160    6.3290 C.2    78  GLY78       0.2612
    116  O         48.0450   62.6840    6.8190 O.2    78  GLY78      -0.2717
    117  N         46.5110   62.0750    5.3230 N.am   79  ASN79      -0.1960
    118  CA        46.4530   63.4140    4.7520 C.3    79  ASN79       0.1819
    119  C         45.0680   63.7860    4.2210 C.2    79  ASN79       0.2622
    120  O         44.9370   64.2690    3.0890 O.2    79  ASN79      -0.2715
    121  CB        47.5040   63.6520    3.6620 C.3    79  ASN79       0.1195
    122  CG        47.6360   65.1650    3.3450 C.2    79  ASN79       0.2630
    123  OD1       47.8380   65.9940    4.2840 O.2    79  ASN79      -0.2716
    124  ND2       47.3910   65.5480    2.0750 N.am   79  ASN79      -0.0877
    125  N         44.0330   63.5520    5.0200 N.am   80  GLY80      -0.1940
    126  CA        42.6720   63.9300    4.6460 C.3    80  GLY80       0.2014
    127  C         41.7990   62.7830    4.1770 C.2    80  GLY80       0.2638
    128  O         42.2710   61.6780    3.9260 O.2    80  GLY80      -0.2714
    129  N         40.5320   63.0820    4.0380 N.am   81  TRP81      -0.1973
    130  CA        39.5330   62.1320    3.6150 C.3    81  TRP81       0.1640
    131  C         39.3500   62.0430    2.1140 C.2    81  TRP81       0.2290
    132  O         39.2280   63.0850    1.4590 O.2    81  TRP81      -0.2864
    133  CB        38.1990   62.4920    4.2460 C.3    81  TRP81       0.0576
    134  CG        38.2630   62.3450    5.7610 C.ar   81  TRP81       0.0006
    135  CD1       38.4850   63.3360    6.7010 C.ar   81  TRP81       0.0946
    136  CD2       38.1170   61.1450    6.4840 C.ar   81  TRP81       0.0152
    137  NE1       38.4730   62.8030    7.9780 N.ar   81  TRP81      -0.2442
    138  CE2       38.2700   61.4520    7.8720 C.ar   81  TRP81       0.0810
    139  CE3       37.8550   59.8030    6.1010 C.ar   81  TRP81       0.0012
    140  CZ2       38.0990   60.4890    8.8740 C.ar   81  TRP81       0.0191
    141  CZ3       37.7070   58.8510    7.0830 C.ar   81  TRP81       0.0001
    142  CH2       37.8400   59.1900    8.4650 C.ar   81  TRP81       0.0015
@<TRIPOS>BOND
     1   132   131    2
     2   124   122   am
     3   131   130    1
     4   120   119    2
     5   122   121    1
     6   122   123    2
     7   130   129    1
     8   130   133    1
     9   121   118    1
    10   128   127    2
    11   129   127   am
    12   127   126    1
    13   119   118    1
    14   119   125   am
    15   133   134    1
    16   126   125    1
    17   118   117    1
    18   117   115   am
    19    99   100    1
    20   134   136   ar
    21   134   135   ar
    22   101   100    1
    23   101   102    2
    24   100   103    1
    25   139   136   ar
    26   139   141   ar
    27   113   114    1
    28   115   116    2
    29   115   114    1
    30   136   138   ar
    31   135   137   ar
    32    94    93    2
    33   141   142   ar
    34   103   104    1
    35   109   111   ar
    36   109   106   ar
    37    93    92    1
    38   138   137   ar
    39   138   140   ar
    40    81    80    2
    41   111   112   ar
    42   104   106   ar
    43   104   105   ar
    44   106   108   ar
    45   142   140   ar
    46    91    92    1
    47   112   110   ar
    48   105   107   ar
    49   108   110   ar
    50   108   107   ar
    51    80    79    1
    52    82    79    1
    53    92    95    1
    54    86    85    2
    55    79    78    1
    56    95    97    1
    57    95    96    1
    58    85    84    1
    59    96    98    1
    60    78    76   am
    61    84    83    1
    62    84    87    1
    63    77    76    2
    64    39    38   ar
    65    76    75    1
    66    89    87    1
    67    40    38   ar
    68    38    37    1
    69    87    88    1
    70    88    90    1
    71    36    37    1
    72    36    33    1
    73    32    33    1
    74    75    74    1
    75    33    34    1
    76    73    71    1
    77    74    69   am
    78    70    69    2
    79    69    68    1
    80    35    34    2
    81    28    27    1
    82    28    29    2
    83    14    13   ar
    84    14    12   ar
    85    26    27    1
    86    26    25    1
    87    13    11   ar
    88    12    10   ar
    89    25    22    1
    90    46    45    1
    91    71    68    1
    92    71    72    1
    93    31    29    1
    94    11     8   ar
    95    10     8   ar
    96    10     9   ar
    97    68    67    1
    98    29    30    1
    99     8     6   ar
   100    64    62   ar
   101    64    65   ar
   102     9     7   ar
   103    66    65    1
   104     6     7   ar
   105     6     5    1
   106    62    60   ar
   107    22    23    1
   108    22    21    1
   109    24    23    2
   110    65    63   ar
   111     5     2    1
   112    67    57   am
   113    45    42    1
   114    54    52   ar
   115    58    57    2
   116    57    56    1
   117    41    42    1
   118    60    59    1
   119    60    61   ar
   120    42    43    1
   121    63    61   ar
   122    53    52   ar
   123     2     1    1
   124     2     3    1
   125    52    51    1
   126    19    20    1
   127    19    16    1
   128    59    56    1
   129    56    55    1
   130     3     4    2
   131    43    44    2
   132    18    17    2
   133    17    16    1
   134    16    15    1
   135    51    48    1
   136    48    47    1
   137    48    49    1
   138    50    49    2
