@<TRIPOS>MOLECULE
tmp/5ajhA01.pdb
 85 81 0 0 0
SMALL
GASTEIGER

@<TRIPOS>ATOM
      1  N        -19.1980    9.8250  -45.4530 N.3    25  GLY25      -0.1210
      2  CA       -20.0700    9.5860  -44.2850 C.3    25  GLY25       0.1956
      3  C        -21.1900   10.6020  -44.1540 C.2    25  GLY25       0.2613
      4  O        -21.1830   11.6540  -44.8210 O.2    25  GLY25      -0.2717
      5  N        -22.1730   10.2870  -43.3080 N.am   26  SER26      -0.1938
      6  CA       -23.2470   11.2190  -42.9880 C.3    26  SER26       0.2055
      7  C        -22.7330   12.5780  -42.5140 C.2    26  SER26       0.2644
      8  O        -21.7580   12.6550  -41.7540 O.2    26  SER26      -0.2714
      9  CB       -24.1920   10.6260  -41.9410 C.3    26  SER26       0.2130
     10  OG       -25.0250    9.6540  -42.5440 O.3    26  SER26      -0.2179
     11  N        -23.3970   13.6320  -43.0010 N.am   27  THR27      -0.1936
     12  CA       -23.0840   15.0470  -42.7220 C.3    27  THR27       0.2028
     13  C        -21.8550   15.5920  -43.4400 C.2    27  THR27       0.2642
     14  O        -21.6390   16.7880  -43.4140 O.2    27  THR27      -0.2714
     15  CB       -22.9060   15.3800  -41.2100 C.3    27  THR27       0.1808
     16  OG1      -21.6110   14.9670  -40.7490 O.3    27  THR27      -0.2208
     17  CG2      -23.9740   14.7400  -40.3660 C.3    27  THR27       0.0379
     18  N        -21.0530   14.7470  -44.0830 N.am   28  GLU28      -0.1976
     19  CA       -19.8000   15.2100  -44.6540 C.3    28  GLU28       0.1602
     20  C        -20.0290   16.0360  -45.9260 C.2    28  GLU28       0.2287
     21  O        -21.0070   15.8320  -46.6440 O.2    28  GLU28      -0.2864
     22  CB       -18.8770   14.0350  -44.9690 C.3    28  GLU28       0.0415
     23  CG       -18.4110   13.2510  -43.7700 C.3    28  GLU28       0.1163
     24  CD       -17.1010   12.5310  -44.0570 C.2    28  GLU28       0.3649
     25  OE1      -17.0950   11.5820  -44.8730 O.co2  28  GLU28      -0.2457
     26  OE2      -16.0790   12.9210  -43.4710 O.co2  28  GLU28      -0.2457
     27  N        -28.7630   11.2870  -42.2710 N.3    65  LEU65      -0.1245
     28  CA       -28.5120   10.6440  -40.9760 C.3    65  LEU65       0.1561
     29  C        -29.5100    9.5250  -40.6600 C.2    65  LEU65       0.2260
     30  O        -29.1240    8.4850  -40.1460 O.2    65  LEU65      -0.2867
     31  CB       -28.4430   11.6750  -39.8390 C.3    65  LEU65       0.0270
     32  CG       -27.0480   12.2800  -39.6110 C.3    65  LEU65       0.0019
     33  CD1      -27.1000   13.5830  -38.8340 C.3    65  LEU65       0.0001
     34  CD2      -26.1230   11.3190  -38.8910 C.3    65  LEU65       0.0001
     35  N        -29.1560    5.7040  -42.0470 N.3    68  ASN68      -0.1240
     36  CA       -28.3060    4.7550  -41.3210 C.3    68  ASN68       0.1653
     37  C        -29.1130    3.6580  -40.6420 C.2    68  ASN68       0.2266
     38  O        -28.5970    2.5650  -40.4220 O.2    68  ASN68      -0.2867
     39  CB       -27.4880    5.4790  -40.2590 C.3    68  ASN68       0.1155
     40  CG       -26.3360    6.2840  -40.8450 C.2    68  ASN68       0.2627
     41  OD1      -25.3320    5.7180  -41.2600 O.2    68  ASN68      -0.2716
     42  ND2      -26.4820    7.6130  -40.8750 N.am   68  ASN68      -0.0877
     43  N        -16.7680    5.4350  -45.9520 N.3   103  TYR103     -0.1227
     44  CA       -16.6870    5.7250  -44.5080 C.3   103  TYR103      0.1736
     45  C        -18.0960    5.8290  -43.9310 C.2   103  TYR103      0.2596
     46  O        -18.9180    6.5880  -44.4530 O.2   103  TYR103     -0.2718
     47  CB       -15.9900    7.0590  -44.3420 C.3   103  TYR103      0.0548
     48  CG       -15.9630    7.6570  -42.9530 C.ar  103  TYR103     -0.0200
     49  CD1      -15.8050    6.8610  -41.8330 C.ar  103  TYR103     -0.0009
     50  CD2      -16.0160    9.0340  -42.7760 C.ar  103  TYR103     -0.0009
     51  CE1      -15.7430    7.4020  -40.5760 C.ar  103  TYR103      0.0417
     52  CE2      -15.9600    9.5960  -41.5040 C.ar  103  TYR103      0.0417
     53  CZ       -15.8240    8.7670  -40.4150 C.ar  103  TYR103      0.1957
     54  OH       -15.7390    9.2860  -39.1480 O.3   103  TYR103     -0.2866
     55  N        -18.3550    5.0700  -42.8710 N.am  104  SER104     -0.1952
     56  CA       -19.5630    5.2080  -42.0410 C.3   104  SER104      0.1924
     57  C        -20.7590    4.7660  -42.9000 C.2   104  SER104      0.2314
     58  O        -20.7330    3.6530  -43.3760 O.2   104  SER104     -0.2863
     59  CB       -19.6660    6.6180  -41.4240 C.3   104  SER104      0.2116
     60  OG       -20.6150    6.6490  -40.3430 O.3   104  SER104     -0.2180
     61  N        -22.5650    6.8720  -32.3770 N.3   168  VAL168     -0.1245
     62  CA       -21.2950    7.4410  -32.8310 C.3   168  VAL168      0.1561
     63  C        -20.5100    8.0140  -31.6490 C.2   168  VAL168      0.2260
     64  O        -20.8840    9.0300  -31.0720 O.2   168  VAL168     -0.2867
     65  CB       -21.5150    8.5510  -33.8670 C.3   168  VAL168      0.0252
     66  CG1      -20.1850    9.1780  -34.2710 C.3   168  VAL168      0.0019
     67  CG2      -22.2460    7.9930  -35.0820 C.3   168  VAL168      0.0019
     68  N        -15.0780    6.5410  -33.8220 N.3   172  HIS172     -0.1226
     69  CA       -15.6750    6.5800  -35.1560 C.3   172  HIS172      0.1752
     70  C        -15.1370    7.7410  -35.9810 C.2   172  HIS172      0.2595
     71  O        -15.2600    7.7360  -37.1990 O.2   172  HIS172     -0.2718
     72  CB       -17.2000    6.6920  -35.0560 C.3   172  HIS172      0.0759
     73  CG       -17.9100    6.4850  -36.3640 C.ar  172  HIS172      0.0818
     74  ND1      -17.7300    5.3630  -37.1470 N.ar  172  HIS172     -0.2268
     75  CD2      -18.8130    7.2560  -37.0140 C.ar  172  HIS172      0.1154
     76  CE1      -18.4840    5.4590  -38.2290 C.ar  172  HIS172      0.1986
     77  NE2      -19.1530    6.5990  -38.1700 N.ar  172  HIS172     -0.2212
     78  N        -14.5060    8.7090  -35.3180 N.am  173  LEU173     -0.1980
     79  CA       -14.0030    9.9120  -35.9580 C.3   173  LEU173      0.1596
     80  C        -12.4640    9.9280  -36.0370 C.2   173  LEU173      0.2287
     81  O        -11.8540   10.9920  -36.2000 O.2   173  LEU173     -0.2864
     82  CB       -14.4960   11.1160  -35.1700 C.3   173  LEU173      0.0297
     83  CG       -15.9940   11.0180  -34.8370 C.3   173  LEU173      0.0022
     84  CD1      -16.3750   11.8600  -33.6310 C.3   173  LEU173      0.0001
     85  CD2      -16.7900   11.4340  -36.0510 C.3   173  LEU173      0.0001
@<TRIPOS>BOND
     1    21    20    2
     2    43    44    1
     3    20    19    1
     4     1     2    1
     5    22    19    1
     6    22    23    1
     7    25    24   ar
     8     4     3    2
     9    19    18    1
    10    44    47    1
    11    44    45    1
    12    46    45    2
    13    47    48    1
    14     2     3    1
    15     3     5   am
    16    18    13   am
    17    24    23    1
    18    24    26   ar
    19    45    55   am
    20    13    14    2
    21    13    12    1
    22    58    57    2
    23     5     6    1
    24    11    12    1
    25    11     7   am
    26     6     7    1
    27     6     9    1
    28    48    50   ar
    29    48    49   ar
    30    57    56    1
    31    55    56    1
    32    50    52   ar
    33    12    15    1
    34    10     9    1
    35     7     8    2
    36    27    28    1
    37    35    36    1
    38    56    59    1
    39    49    51   ar
    40    52    53   ar
    41    59    60    1
    42    36    37    1
    43    36    39    1
    44    41    40    2
    45    15    16    1
    46    15    17    1
    47    28    29    1
    48    28    31    1
    49    42    40   am
    50    40    39    1
    51    29    30    2
    52    37    38    2
    53    51    53   ar
    54    53    54    1
    55    31    32    1
    56    32    34    1
    57    32    33    1
    58    76    77   ar
    59    76    74   ar
    60    77    75   ar
    61    71    70    2
    62    74    73   ar
    63    75    73   ar
    64    73    72    1
    65    81    80    2
    66    85    83    1
    67    80    79    1
    68    70    78   am
    69    70    69    1
    70    79    78    1
    71    79    82    1
    72    82    83    1
    73    69    72    1
    74    69    68    1
    75    67    65    1
    76    83    84    1
    77    66    65    1
    78    65    62    1
    79    62    61    1
    80    62    63    1
    81    63    64    2
