@<TRIPOS>MOLECULE
tmp/5ajhA00.pdb
 80 73 0 0 0
SMALL
GASTEIGER

@<TRIPOS>ATOM
      1  N        -22.1730   10.2870  -43.3080 N.3    26  SER26      -0.1217
      2  CA       -23.2470   11.2190  -42.9880 C.3    26  SER26       0.1889
      3  C        -22.7330   12.5780  -42.5140 C.2    26  SER26       0.2288
      4  O        -21.7580   12.6550  -41.7540 O.2    26  SER26      -0.2866
      5  CB       -24.1920   10.6260  -41.9410 C.3    26  SER26       0.2089
      6  OG       -25.0250    9.6540  -42.5440 O.3    26  SER26      -0.2183
      7  N        -28.7630   11.2870  -42.2710 N.3    65  LEU65      -0.1231
      8  CA       -28.5120   10.6440  -40.9760 C.3    65  LEU65       0.1693
      9  C        -29.5100    9.5250  -40.6600 C.2    65  LEU65       0.2592
     10  O        -29.1240    8.4850  -40.1460 O.2    65  LEU65      -0.2718
     11  CB       -28.4430   11.6750  -39.8390 C.3    65  LEU65       0.0284
     12  CG       -27.0480   12.2800  -39.6110 C.3    65  LEU65       0.0019
     13  CD1      -27.1000   13.5830  -38.8340 C.3    65  LEU65       0.0001
     14  CD2      -26.1230   11.3190  -38.8910 C.3    65  LEU65       0.0001
     15  N        -30.7760    9.7160  -41.0010 N.am   66  GLY66      -0.1957
     16  CA       -31.7930    8.7100  -40.7360 C.3    66  GLY66       0.1869
     17  C        -31.6730    7.4420  -41.5550 C.2    66  GLY66       0.2309
     18  O        -32.1530    6.3880  -41.1380 O.2    66  GLY66      -0.2863
     19  N        -29.1560    5.7040  -42.0470 N.3    68  ASN68      -0.1225
     20  CA       -28.3060    4.7550  -41.3210 C.3    68  ASN68       0.1785
     21  C        -29.1130    3.6580  -40.6420 C.2    68  ASN68       0.2597
     22  O        -28.5970    2.5650  -40.4220 O.2    68  ASN68      -0.2718
     23  CB       -27.4880    5.4790  -40.2590 C.3    68  ASN68       0.1169
     24  CG       -26.3360    6.2840  -40.8450 C.2    68  ASN68       0.2627
     25  OD1      -25.3320    5.7180  -41.2600 O.2    68  ASN68      -0.2716
     26  ND2      -26.4820    7.6130  -40.8750 N.am   68  ASN68      -0.0877
     27  N        -30.3650    3.9660  -40.2900 N.am   69  ALA69      -0.1979
     28  CA       -31.2750    2.9910  -39.6580 C.3    69  ALA69       0.1597
     29  C        -31.9570    2.0300  -40.6480 C.2    69  ALA69       0.2287
     30  O        -32.6400    1.1000  -40.2260 O.2    69  ALA69      -0.2864
     31  CB       -32.3440    3.7280  -38.8490 C.3    69  ALA69       0.0319
     32  N        -18.3550    5.0700  -42.8710 N.3   104  SER104     -0.1217
     33  CA       -19.5630    5.2080  -42.0410 C.3   104  SER104      0.1889
     34  C        -20.7590    4.7660  -42.9000 C.2   104  SER104      0.2288
     35  O        -20.7330    3.6530  -43.3760 O.2   104  SER104     -0.2866
     36  CB       -19.6660    6.6180  -41.4240 C.3   104  SER104      0.2089
     37  OG       -20.6150    6.6490  -40.3430 O.3   104  SER104     -0.2183
     38  N        -20.4720    0.3540  -40.6640 N.3   134  THR134     -0.1218
     39  CA       -21.6630    0.2900  -39.8340 C.3   134  THR134      0.1862
     40  C        -22.3630   -1.0810  -39.8390 C.2   134  THR134      0.2287
     41  O        -23.2370   -1.3150  -39.0150 O.2   134  THR134     -0.2866
     42  CB       -22.6670    1.3930  -40.2470 C.3   134  THR134      0.1770
     43  OG1      -22.9420    1.2860  -41.6410 O.3   134  THR134     -0.2211
     44  CG2      -22.0960    2.7950  -39.9540 C.3   134  THR134      0.0375
     45  N        -20.2290    1.5060  -33.8870 N.3   161  VAL161     -0.1245
     46  CA       -20.9400    1.1490  -35.1280 C.3   161  VAL161      0.1561
     47  C        -20.4400   -0.1770  -35.7000 C.2   161  VAL161      0.2260
     48  O        -21.1320   -0.7830  -36.5070 O.2   161  VAL161     -0.2867
     49  CB       -20.9070    2.2330  -36.2500 C.3   161  VAL161      0.0252
     50  CG1      -21.1120    3.6370  -35.6920 C.3   161  VAL161      0.0019
     51  CG2      -19.6350    2.1480  -37.0920 C.3   161  VAL161      0.0019
     52  N        -24.0640   -1.2530  -33.0530 N.3   165  SER165     -0.1202
     53  CA       -24.8170   -0.1260  -32.4890 C.3   165  SER165      0.2020
     54  C        -25.0150    0.9710  -33.5150 C.2   165  SER165      0.2619
     55  O        -24.2500    1.0950  -34.4590 O.2   165  SER165     -0.2717
     56  CB       -24.1290    0.4860  -31.2670 C.3   165  SER165      0.2103
     57  OG       -23.8530   -0.4670  -30.2540 O.3   165  SER165     -0.2182
     58  N        -26.0560    1.7610  -33.3130 N.am  166  LEU166     -0.1965
     59  CA       -26.3030    2.9700  -34.0810 C.3   166  LEU166      0.1728
     60  C        -25.9390    4.1390  -33.1690 C.2   166  LEU166      0.2616
     61  O        -26.7890    4.9490  -32.7670 O.2   166  LEU166     -0.2715
     62  CB       -27.7800    3.0420  -34.5070 C.3   166  LEU166      0.0311
     63  CG       -28.2120    2.1570  -35.6780 C.3   166  LEU166      0.0022
     64  CD1      -29.7270    2.0870  -35.7940 C.3   166  LEU166      0.0001
     65  CD2      -27.6040    2.6300  -36.9850 C.3   166  LEU166      0.0001
     66  N        -24.6650    4.1860  -32.8080 N.am  167  ILE167     -0.1963
     67  CA       -24.1580    5.1320  -31.8270 C.3   167  ILE167      0.1727
     68  C        -22.7850    5.5560  -32.3020 C.2   167  ILE167      0.2616
     69  O        -21.9570    4.7030  -32.6110 O.2   167  ILE167     -0.2715
     70  CB       -24.0500    4.4800  -30.4260 C.3   167  ILE167      0.0290
     71  CG1      -25.4190    3.9290  -30.0120 C.3   167  ILE167      0.0022
     72  CG2      -23.5030    5.4760  -29.4050 C.3   167  ILE167      0.0023
     73  CD1      -25.4420    3.1940  -28.6950 C.3   167  ILE167      0.0001
     74  N        -22.5650    6.8720  -32.3770 N.am  168  VAL168     -0.1977
     75  CA       -21.2950    7.4410  -32.8310 C.3   168  VAL168      0.1596
     76  C        -20.5100    8.0140  -31.6490 C.2   168  VAL168      0.2287
     77  O        -20.8840    9.0300  -31.0720 O.2   168  VAL168     -0.2864
     78  CB       -21.5150    8.5510  -33.8670 C.3   168  VAL168      0.0276
     79  CG1      -20.1850    9.1780  -34.2710 C.3   168  VAL168      0.0022
     80  CG2      -22.2460    7.9930  -35.0820 C.3   168  VAL168      0.0022
@<TRIPOS>BOND
     1    35    34    2
     2     1     2    1
     3     2     3    1
     4     2     5    1
     5    34    33    1
     6    32    33    1
     7     6     5    1
     8     3     4    2
     9     7     8    1
    10    19    20    1
    11    33    36    1
    12    43    42    1
    13    17    18    2
    14    17    16    1
    15    36    37    1
    16    20    21    1
    17    20    23    1
    18    25    24    2
    19    15    16    1
    20    15     9   am
    21     8     9    1
    22     8    11    1
    23    26    24   am
    24    24    23    1
    25    38    39    1
    26     9    10    2
    27    29    30    2
    28    29    28    1
    29    21    22    2
    30    21    27   am
    31    27    28    1
    32    42    44    1
    33    42    39    1
    34    11    12    1
    35    40    39    1
    36    40    41    2
    37    28    31    1
    38    12    14    1
    39    12    13    1
    40    51    49    1
    41    65    63    1
    42    48    47    2
    43    49    50    1
    44    49    46    1
    45    64    63    1
    46    47    46    1
    47    63    62    1
    48    46    45    1
    49    80    78    1
    50    62    59    1
    51    55    54    2
    52    79    78    1
    53    59    58    1
    54    59    60    1
    55    78    75    1
    56    54    58   am
    57    54    53    1
    58    60    66   am
    59    60    61    2
    60    52    53    1
    61    75    74    1
    62    75    76    1
    63    66    67    1
    64    69    68    2
    65    53    56    1
    66    74    68   am
    67    68    67    1
    68    67    70    1
    69    76    77    2
    70    56    57    1
    71    70    71    1
    72    70    72    1
    73    71    73    1
