@<TRIPOS>MOLECULE
tmp/5ajoA00.pdb
 94 86 0 0 0
SMALL
GASTEIGER

@<TRIPOS>ATOM
      1  N         28.7010   33.2460   14.9460 N.3   130  LEU130     -0.1245
      2  CA        27.4340   33.3780   14.2330 C.3   130  LEU130      0.1561
      3  C         26.5660   32.1300   14.2950 C.2   130  LEU130      0.2260
      4  O         25.3750   32.2110   14.5920 O.2   130  LEU130     -0.2867
      5  CB        27.7170   33.7670   12.7900 C.3   130  LEU130      0.0270
      6  CG        26.4950   33.9190   11.8880 C.3   130  LEU130      0.0019
      7  CD1       26.7480   35.0450   10.9080 C.3   130  LEU130      0.0001
      8  CD2       26.1780   32.6090   11.1700 C.3   130  LEU130      0.0001
      9  N         23.0610   31.9140   16.1800 N.3   134  ARG134     -0.1245
     10  CA        21.8130   31.7210   15.4220 C.3   134  ARG134      0.1563
     11  C         20.9840   30.5780   15.9850 C.2   134  ARG134      0.2260
     12  O         19.7650   30.6630   16.0070 O.2   134  ARG134     -0.2867
     13  CB        22.0860   31.5450   13.9280 C.3   134  ARG134      0.0307
     14  CG        22.3970   32.8490   13.2630 C.3   134  ARG134      0.0489
     15  CD        22.5300   32.6820   11.7670 C.3   134  ARG134      0.2205
     16  NE        22.6910   34.0110   11.1830 N.pl3 134  ARG134     -0.0865
     17  CZ        22.9160   34.2660    9.9050 C.cat 134  ARG134      0.5346
     18  NH1       22.9270   33.2800    9.0400 N.pl3 134  ARG134      0.1354
     19  NH2       23.0920   35.5270    9.4910 N.pl3 134  ARG134      0.1354
     20  N         21.9060   39.9270    8.5850 N.3   150  ASP150     -0.1239
     21  CA        23.1110   40.4530    9.1940 C.3   150  ASP150      0.1674
     22  C         22.8240   41.8120    9.8020 C.2   150  ASP150      0.2266
     23  O         21.7640   42.3670    9.6180 O.2   150  ASP150     -0.2867
     24  CB        24.2090   40.5560    8.1420 C.3   150  ASP150      0.1410
     25  CG        25.5740   40.5370    8.7270 C.2   150  ASP150      0.3668
     26  OD1       25.7170   40.3970    9.9680 O.co2 150  ASP150     -0.2456
     27  OD2       26.5030   40.5970    7.9220 O.co2 150  ASP150     -0.2456
     28  N         23.9180   46.4380   -2.8790 N.3   181  VAL181     -0.1245
     29  CA        25.1770   46.9360   -2.3140 C.3   181  VAL181      0.1561
     30  C         24.9560   48.2520   -1.5880 C.2   181  VAL181      0.2260
     31  O         24.4190   49.2100   -2.1540 O.2   181  VAL181     -0.2867
     32  CB        26.2190   47.1110   -3.4080 C.3   181  VAL181      0.0252
     33  CG1       27.4760   47.7380   -2.8510 C.3   181  VAL181      0.0019
     34  CG2       26.4820   45.7780   -4.0930 C.3   181  VAL181      0.0019
     35  N         30.6560   50.7280    1.1100 N.3   184  MET184     -0.1245
     36  CA        31.3430   50.7910    2.4140 C.3   184  MET184      0.1570
     37  C         31.9560   52.1550    2.7100 C.2   184  MET184      0.2261
     38  O         32.2390   52.4610    3.8610 O.2   184  MET184     -0.2867
     39  CB        32.4300   49.7140    2.5340 C.3   184  MET184      0.0387
     40  CG        33.6880   50.0350    1.7380 C.3   184  MET184      0.0595
     41  SD        33.5800   49.5800   -0.0070 S.3   184  MET184     -0.1393
     42  CE        33.8750   47.8000    0.0390 C.3   184  MET184      0.0692
     43  N         24.6730   34.8690    5.1790 N.3   235  GLY235     -0.1225
     44  CA        24.2750   36.0170    6.0010 C.3   235  GLY235      0.1811
     45  C         22.7700   36.2730    6.0310 C.2   235  GLY235      0.2280
     46  O         22.2180   36.6290    7.0960 O.2   235  GLY235     -0.2866
     47  N         30.2410   30.1000    7.1700 N.3   260  GLU260     -0.1245
     48  CA        28.7950   30.1230    7.3670 C.3   260  GLU260      0.1567
     49  C         28.0500   29.8370    6.0500 C.2   260  GLU260      0.2260
     50  O         26.8460   29.5520    6.0650 O.2   260  GLU260     -0.2867
     51  CB        28.3240   31.4170    8.0280 C.3   260  GLU260      0.0388
     52  CG        28.5180   32.6770    7.1990 C.3   260  GLU260      0.1160
     53  CD        29.7780   33.4500    7.5140 C.2   260  GLU260      0.3649
     54  OE1       30.8240   32.8400    7.8800 O.co2 260  GLU260     -0.2457
     55  OE2       29.7560   34.7130    7.3400 O.co2 260  GLU260     -0.2457
     56  N         23.2610   45.2640    1.5890 N.3   285  HIS285     -0.1241
     57  CA        24.2440   44.8150    2.5450 C.3   285  HIS285      0.1621
     58  C         25.5090   45.6090    2.4080 C.2   285  HIS285      0.2264
     59  O         25.9150   45.9470    1.2940 O.2   285  HIS285     -0.2867
     60  CB        24.5000   43.3330    2.3020 C.3   285  HIS285      0.0745
     61  CG        25.5640   42.7550    3.1580 C.ar  285  HIS285      0.0817
     62  ND1       25.3800   42.4660    4.4890 N.ar  285  HIS285     -0.2268
     63  CD2       26.8620   42.4780    2.8910 C.ar  285  HIS285      0.1154
     64  CE1       26.4770   41.9260    4.9840 C.ar  285  HIS285      0.1986
     65  NE2       27.4100   41.9580    4.0450 N.ar  285  HIS285     -0.2212
     66  N         28.8840   45.3910    1.9630 N.3   287  PHE287     -0.1241
     67  CA        29.9940   44.5030    1.6330 C.3   287  PHE287      0.1605
     68  C         31.2800   45.1620    2.0730 C.2   287  PHE287      0.2264
     69  O         31.5060   46.3330    1.8540 O.2   287  PHE287     -0.2867
     70  CB        30.0070   44.1990    0.1400 C.3   287  PHE287      0.0534
     71  CG        28.8670   43.3480   -0.3100 C.ar  287  PHE287     -0.0203
     72  CD1       28.9250   41.9510   -0.3000 C.ar  287  PHE287     -0.0042
     73  CD2       27.6790   43.9360   -0.7600 C.ar  287  PHE287     -0.0042
     74  CE1       27.8610   41.1970   -0.6840 C.ar  287  PHE287     -0.0003
     75  CE2       26.6400   43.1760   -1.1690 C.ar  287  PHE287     -0.0003
     76  CZ        26.7130   41.7870   -1.1230 C.ar  287  PHE287     -0.0000
     77  N         34.6310   43.7370    1.7310 N.3   289  LYS289     -0.1231
     78  CA        35.9320   43.3950    1.2220 C.3   289  LYS289      0.1693
     79  C         36.1930   44.0990   -0.0360 C.2   289  LYS289      0.2591
     80  O         35.4650   43.9130   -1.0080 O.2   289  LYS289     -0.2718
     81  CB        36.1620   41.8870    1.1560 C.3   289  LYS289      0.0285
     82  CG        36.7830   41.4820    2.4880 C.3   289  LYS289      0.0035
     83  CD        37.1390   40.0140    2.6530 C.3   289  LYS289      0.0206
     84  CE        38.3150   39.6160    1.7830 C.3   289  LYS289      0.1093
     85  NZ        39.5570   40.4080    2.0490 N.3   289  LYS289     -0.1314
     86  N         37.2650   44.8950   -0.0260 N.am  290  GLN290     -0.1979
     87  CA        37.9950   44.9110   -1.2480 C.3   290  GLN290      0.1601
     88  C         39.0050   43.7310   -1.2750 C.2   290  GLN290      0.2287
     89  O         39.7750   43.3950   -0.3090 O.2   290  GLN290     -0.2864
     90  CB        38.4110   46.2820   -1.7690 C.3   290  GLN290      0.0394
     91  CG        37.8940   46.4780   -3.2150 C.3   290  GLN290      0.0908
     92  CD        36.5600   47.2500   -3.3930 C.2   290  GLN290      0.2608
     93  OE1       36.3390   48.2870   -2.7640 O.2   290  GLN290     -0.2717
     94  NE2       35.7000   46.7770   -4.3130 N.am  290  GLN290     -0.0878
@<TRIPOS>BOND
     1    94    92   am
     2    34    32    1
     3    32    33    1
     4    32    29    1
     5    92    91    1
     6    92    93    2
     7    91    90    1
     8    28    29    1
     9    29    30    1
    10    31    30    2
    11    90    87    1
    12    88    87    1
    13    88    89    2
    14    87    86    1
    15    75    76   ar
    16    75    73   ar
    17    76    74   ar
    18    80    79    2
    19    73    71   ar
    20    74    72   ar
    21    71    72   ar
    22    71    70    1
    23    79    86   am
    24    79    78    1
    25    41    42    1
    26    41    40    1
    27    70    67    1
    28    35    36    1
    29    81    78    1
    30    81    82    1
    31    78    77    1
    32    59    58    2
    33    56    57    1
    34    67    66    1
    35    67    68    1
    36    40    39    1
    37    84    85    1
    38    84    83    1
    39    69    68    2
    40    60    57    1
    41    60    61    1
    42    58    57    1
    43    36    39    1
    44    36    37    1
    45    82    83    1
    46    37    38    2
    47    63    61   ar
    48    63    65   ar
    49    61    62   ar
    50    65    64   ar
    51    62    64   ar
    52    43    44    1
    53    44    45    1
    54    45    46    2
    55    49    50    2
    56    49    48    1
    57    47    48    1
    58    52    53    1
    59    52    51    1
    60    55    53   ar
    61    48    51    1
    62    53    54   ar
    63    27    25   ar
    64    24    25    1
    65    24    21    1
    66    20    21    1
    67    25    26   ar
    68    18    17    1
    69    21    22    1
    70    19    17    1
    71    23    22    2
    72    17    16    2
    73     7     6    1
    74     8     6    1
    75    16    15    1
    76    15    14    1
    77     6     5    1
    78     5     2    1
    79    14    13    1
    80    13    10    1
    81     2     3    1
    82     2     1    1
    83     3     4    2
    84    10    11    1
    85    10     9    1
    86    11    12    2
