@<TRIPOS>MOLECULE
tmp/5ajoA02.pdb
 127 122 0 0 0
SMALL
GASTEIGER

@<TRIPOS>ATOM
      1  N         21.9060   39.9270    8.5850 N.3   150  ASP150     -0.1239
      2  CA        23.1110   40.4530    9.1940 C.3   150  ASP150      0.1674
      3  C         22.8240   41.8120    9.8020 C.2   150  ASP150      0.2266
      4  O         21.7640   42.3670    9.6180 O.2   150  ASP150     -0.2867
      5  CB        24.2090   40.5560    8.1420 C.3   150  ASP150      0.1410
      6  CG        25.5740   40.5370    8.7270 C.2   150  ASP150      0.3668
      7  OD1       25.7170   40.3970    9.9680 O.co2 150  ASP150     -0.2456
      8  OD2       26.5030   40.5970    7.9220 O.co2 150  ASP150     -0.2456
      9  N         36.9850   26.8780   -1.0200 N.3   204  LEU204     -0.1231
     10  CA        35.7650   26.8610   -0.2250 C.3   204  LEU204      0.1693
     11  C         35.3890   28.2030    0.4230 C.2   204  LEU204      0.2592
     12  O         34.6250   28.2490    1.3910 O.2   204  LEU204     -0.2718
     13  CB        35.7630   25.7160    0.8050 C.3   204  LEU204      0.0284
     14  CG        35.9700   24.3240    0.2440 C.3   204  LEU204      0.0019
     15  CD1       35.8150   23.2950    1.3570 C.3   204  LEU204      0.0001
     16  CD2       35.0310   23.9910   -0.8790 C.3   204  LEU204      0.0001
     17  N         35.8400   29.3340   -0.1420 N.am  205  VAL205     -0.1966
     18  CA        35.2660   30.6260    0.2970 C.3   205  VAL205      0.1727
     19  C         34.1700   31.0440   -0.6750 C.2   205  VAL205      0.2616
     20  O         34.2450   30.7320   -1.8610 O.2   205  VAL205     -0.2715
     21  CB        36.2970   31.7880    0.5050 C.3   205  VAL205      0.0290
     22  CG1       37.3830   31.3580    1.4810 C.3   205  VAL205      0.0023
     23  CG2       36.9230   32.2790   -0.7660 C.3   205  VAL205      0.0023
     24  N         33.1580   31.7130   -0.1690 N.am  206  PHE206     -0.1974
     25  CA        32.0910   32.2250   -1.0230 C.3   206  PHE206      0.1639
     26  C         32.6330   33.1850   -2.0870 C.2   206  PHE206      0.2290
     27  O         33.4580   34.0600   -1.7810 O.2   206  PHE206     -0.2864
     28  CB        31.0470   32.9540   -0.1960 C.3   206  PHE206      0.0560
     29  CG        29.9320   33.5130   -1.0330 C.ar  206  PHE206     -0.0200
     30  CD1       28.8950   32.7120   -1.4150 C.ar  206  PHE206     -0.0042
     31  CD2       29.9440   34.8490   -1.4470 C.ar  206  PHE206     -0.0042
     32  CE1       27.8660   33.2020   -2.2010 C.ar  206  PHE206     -0.0003
     33  CE2       28.9110   35.3280   -2.2450 C.ar  206  PHE206     -0.0003
     34  CZ        27.8770   34.5140   -2.5950 C.ar  206  PHE206     -0.0000
     35  N         25.8930   32.9560    0.7180 N.3   233  ALA233     -0.1245
     36  CA        27.0150   33.4220    1.5300 C.3   233  ALA233      0.1562
     37  C         26.7630   33.1220    3.0020 C.2   233  ALA233      0.2260
     38  O         27.7020   33.0130    3.7800 O.2   233  ALA233     -0.2867
     39  CB        27.2810   34.9000    1.3020 C.3   233  ALA233      0.0290
     40  N         24.6730   34.8690    5.1790 N.3   235  GLY235     -0.1210
     41  CA        24.2750   36.0170    6.0010 C.3   235  GLY235      0.1956
     42  C         22.7700   36.2730    6.0310 C.2   235  GLY235      0.2611
     43  O         22.2180   36.6290    7.0960 O.2   235  GLY235     -0.2717
     44  N         22.1040   36.1410    4.8810 N.am  236  LEU236     -0.1979
     45  CA        20.6940   36.4780    4.7300 C.3   236  LEU236      0.1596
     46  C         19.9090   35.3440    4.0980 C.2   236  LEU236      0.2287
     47  O         20.1640   34.9830    2.9560 O.2   236  LEU236     -0.2864
     48  CB        20.5320   37.6910    3.8030 C.3   236  LEU236      0.0297
     49  CG        21.0610   39.0610    4.2760 C.3   236  LEU236      0.0022
     50  CD1       22.5480   39.2030    4.5130 C.3   236  LEU236      0.0001
     51  CD2       20.6380   40.1120    3.2420 C.3   236  LEU236      0.0001
     52  N         34.2260   32.1260   10.1740 N.3   258  GLY258     -0.1210
     53  CA        33.9500   31.7940    8.7900 C.3   258  GLY258      0.1956
     54  C         33.1460   30.5380    8.5510 C.2   258  GLY258      0.2612
     55  O         32.5300   29.9770    9.4580 O.2   258  GLY258     -0.2717
     56  N         33.1150   30.1390    7.2830 N.am  259  GLY259     -0.1942
     57  CA        32.4030   28.9550    6.8550 C.3   259  GLY259      0.2014
     58  C         30.8850   28.9480    6.9310 C.2   259  GLY259      0.2639
     59  O         30.2930   27.8800    6.7990 O.2   259  GLY259     -0.2714
     60  N         30.2410   30.1000    7.1700 N.am  260  GLU260     -0.1963
     61  CA        28.7950   30.1230    7.3670 C.3   260  GLU260      0.1733
     62  C         28.0500   29.8370    6.0500 C.2   260  GLU260      0.2616
     63  O         26.8460   29.5520    6.0650 O.2   260  GLU260     -0.2715
     64  CB        28.3240   31.4170    8.0280 C.3   260  GLU260      0.0429
     65  CG        28.5180   32.6770    7.1990 C.3   260  GLU260      0.1163
     66  CD        29.7780   33.4500    7.5140 C.2   260  GLU260      0.3649
     67  OE1       30.8240   32.8400    7.8800 O.co2 260  GLU260     -0.2457
     68  OE2       29.7560   34.7130    7.3400 O.co2 260  GLU260     -0.2457
     69  N         28.7670   29.8870    4.9490 N.am  261  ASN261     -0.1972
     70  CA        28.2500   29.5190    3.6140 C.3   261  ASN261      0.1688
     71  C         28.0890   28.0040    3.4430 C.2   261  ASN261      0.2292
     72  O         27.1970   27.5160    2.7460 O.2   261  ASN261     -0.2864
     73  CB        29.1740   30.0810    2.5020 C.3   261  ASN261      0.1181
     74  CG        30.6350   29.6750    2.6600 C.2   261  ASN261      0.2629
     75  OD1       31.1890   29.6700    3.7860 O.2   261  ASN261     -0.2716
     76  ND2       31.2870   29.3540    1.5250 N.am  261  ASN261     -0.0877
     77  N         23.2610   45.2640    1.5890 N.3   285  HIS285     -0.1241
     78  CA        24.2440   44.8150    2.5450 C.3   285  HIS285      0.1621
     79  C         25.5090   45.6090    2.4080 C.2   285  HIS285      0.2264
     80  O         25.9150   45.9470    1.2940 O.2   285  HIS285     -0.2867
     81  CB        24.5000   43.3330    2.3020 C.3   285  HIS285      0.0745
     82  CG        25.5640   42.7550    3.1580 C.ar  285  HIS285      0.0817
     83  ND1       25.3800   42.4660    4.4890 N.ar  285  HIS285     -0.2268
     84  CD2       26.8620   42.4780    2.8910 C.ar  285  HIS285      0.1154
     85  CE1       26.4770   41.9260    4.9840 C.ar  285  HIS285      0.1986
     86  NE2       27.4100   41.9580    4.0450 N.ar  285  HIS285     -0.2212
     87  N         28.8840   45.3910    1.9630 N.3   287  PHE287     -0.1241
     88  CA        29.9940   44.5030    1.6330 C.3   287  PHE287      0.1605
     89  C         31.2800   45.1620    2.0730 C.2   287  PHE287      0.2264
     90  O         31.5060   46.3330    1.8540 O.2   287  PHE287     -0.2867
     91  CB        30.0070   44.1990    0.1400 C.3   287  PHE287      0.0534
     92  CG        28.8670   43.3480   -0.3100 C.ar  287  PHE287     -0.0203
     93  CD1       28.9250   41.9510   -0.3000 C.ar  287  PHE287     -0.0042
     94  CD2       27.6790   43.9360   -0.7600 C.ar  287  PHE287     -0.0042
     95  CE1       27.8610   41.1970   -0.6840 C.ar  287  PHE287     -0.0003
     96  CE2       26.6400   43.1760   -1.1690 C.ar  287  PHE287     -0.0003
     97  CZ        26.7130   41.7870   -1.1230 C.ar  287  PHE287     -0.0000
     98  N         38.5750   36.6350   -0.3160 N.3   293  TYR293     -0.1241
     99  CA        39.8040   36.1030    0.2960 C.3   293  TYR293      0.1605
    100  C         40.6770   35.3410   -0.6760 C.2   293  TYR293      0.2264
    101  O         40.1900   34.4460   -1.3920 O.2   293  TYR293     -0.2867
    102  CB        39.5100   35.1960    1.4770 C.3   293  TYR293      0.0534
    103  CG        38.8250   35.8920    2.5960 C.ar  293  TYR293     -0.0201
    104  CD1       39.5110   36.7210    3.4570 C.ar  293  TYR293     -0.0009
    105  CD2       37.4770   35.7220    2.7940 C.ar  293  TYR293     -0.0009
    106  CE1       38.8690   37.3530    4.5040 C.ar  293  TYR293      0.0417
    107  CE2       36.8270   36.3390    3.8230 C.ar  293  TYR293      0.0417
    108  CZ        37.5160   37.1670    4.6670 C.ar  293  TYR293      0.1957
    109  OH        36.8380   37.7750    5.6960 O.3   293  TYR293     -0.2866
    110  N         39.9970   30.1760    8.7640 N.3   303  PHE303     -0.1241
    111  CA        38.6750   29.5820    8.4950 C.3   303  PHE303      0.1605
    112  C         38.6740   28.0650    8.5090 C.2   303  PHE303      0.2264
    113  O         37.6380   27.4340    8.3000 O.2   303  PHE303     -0.2867
    114  CB        38.1520   30.1120    7.1600 C.3   303  PHE303      0.0534
    115  CG        38.1080   31.6200    7.0810 C.ar  303  PHE303     -0.0203
    116  CD1       37.6510   32.3930    8.1360 C.ar  303  PHE303     -0.0042
    117  CD2       38.5430   32.2490    5.9370 C.ar  303  PHE303     -0.0042
    118  CE1       37.6320   33.7830    8.0640 C.ar  303  PHE303     -0.0003
    119  CE2       38.5170   33.6520    5.8420 C.ar  303  PHE303     -0.0003
    120  CZ        38.0580   34.4050    6.9020 C.ar  303  PHE303     -0.0000
    121  N         35.5820   25.2010    8.0960 N.3   307  THR307     -0.1218
    122  CA        35.6200   24.7020    6.7410 C.3   307  THR307      0.1862
    123  C         35.8450   23.1950    6.7140 C.2   307  THR307      0.2287
    124  O         35.1660   22.4590    5.9640 O.2   307  THR307     -0.2866
    125  CB        36.6580   25.4970    5.9170 C.3   307  THR307      0.1770
    126  OG1       36.3020   26.8770    5.9710 O.3   307  THR307     -0.2211
    127  CG2       36.6840   25.0190    4.4900 C.3   307  THR307      0.0375
@<TRIPOS>BOND
     1    34    33   ar
     2    34    32   ar
     3    33    31   ar
     4    32    30   ar
     5    26    27    2
     6    26    25    1
     7    20    19    2
     8    31    29   ar
     9    30    29   ar
    10   101   100    2
    11    96    97   ar
    12    96    94   ar
    13    97    95   ar
    14    29    28    1
    15    25    28    1
    16    25    24    1
    17     9    10    1
    18    16    14    1
    19    23    21    1
    20    94    92   ar
    21    95    93   ar
    22   100    99    1
    23    19    24   am
    24    19    18    1
    25    98    99    1
    26    92    93   ar
    27    92    91    1
    28    10    11    1
    29    10    13    1
    30    17    18    1
    31    17    11   am
    32    91    88    1
    33    14    13    1
    34    14    15    1
    35    99   102    1
    36    18    21    1
    37    11    12    2
    38    21    22    1
    39    35    36    1
    40    80    79    2
    41    39    36    1
    42   102   103    1
    43    76    74   am
    44    36    37    1
    45    77    78    1
    46    88    87    1
    47    88    89    1
    48    90    89    2
    49    81    78    1
    50    81    82    1
    51    79    78    1
    52    73    74    1
    53    73    70    1
    54   103   105   ar
    55   103   104   ar
    56    74    75    2
    57    72    71    2
    58   105   107   ar
    59    84    82   ar
    60    84    86   ar
    61    47    46    2
    62    37    38    2
    63    82    83   ar
    64    51    49    1
    65    71    70    1
    66   104   106   ar
    67    70    69    1
    68    48    49    1
    69    48    45    1
    70   107   108   ar
    71    86    85   ar
    72    46    45    1
    73    49    50    1
    74    83    85   ar
    75   127   125    1
    76   106   108   ar
    77   108   109    1
    78    45    44    1
    79    44    42   am
    80    69    62   am
    81    40    41    1
    82   119   117   ar
    83   119   120   ar
    84   125   126    1
    85   125   122    1
    86   117   115   ar
    87   124   123    2
    88    41    42    1
    89    42    43    2
    90    62    63    2
    91    62    61    1
    92   123   122    1
    93   122   121    1
    94    59    58    2
    95    57    58    1
    96    57    56    1
    97   120   118   ar
    98    58    60   am
    99   115   114    1
   100   115   116   ar
   101   114   111    1
   102    60    61    1
   103    65    66    1
   104    65    64    1
   105    56    54   am
   106    68    66   ar
   107    61    64    1
   108    66    67   ar
   109     8     6   ar
   110   118   116   ar
   111     5     6    1
   112     5     2    1
   113   113   112    2
   114   111   112    1
   115   111   110    1
   116    54    53    1
   117    54    55    2
   118     1     2    1
   119     6     7   ar
   120    53    52    1
   121     2     3    1
   122     4     3    2
