@<TRIPOS>MOLECULE
tmp/5ajpA01.pdb
 189 186 0 0 0
SMALL
GASTEIGER

@<TRIPOS>ATOM
      1  N          4.9830   21.3660  -14.6540 N.3    69  THR69      -0.1203
      2  CA         5.0910   20.2520  -15.6160 C.3    69  THR69       0.1994
      3  C          3.9470   19.2990  -15.3240 C.2    69  THR69       0.2618
      4  O          3.4300   19.1870  -14.1750 O.2    69  THR69      -0.2717
      5  CB         6.4460   19.5190  -15.5800 C.3    69  THR69       0.1784
      6  OG1        6.4850   18.5590  -14.5220 O.3    69  THR69      -0.2211
      7  CG2        7.5810   20.5030  -15.3700 C.3    69  THR69       0.0376
      8  N          3.5190   18.5800  -16.3520 N.am   70  PHE70      -0.1961
      9  CA         2.4830   17.6050  -16.1270 C.3    70  PHE70       0.1771
     10  C          2.5200   16.5000  -17.1730 C.2    70  PHE70       0.2619
     11  O          2.8820   16.7420  -18.3020 O.2    70  PHE70      -0.2715
     12  CB         1.0990   18.2530  -16.1220 C.3    70  PHE70       0.0574
     13  CG         0.7240   18.9440  -17.3990 C.ar   70  PHE70      -0.0200
     14  CD1        1.1990   20.2170  -17.7080 C.ar   70  PHE70      -0.0042
     15  CD2       -0.1180   18.3270  -18.2960 C.ar   70  PHE70      -0.0042
     16  CE1        0.8350   20.8360  -18.9010 C.ar   70  PHE70      -0.0003
     17  CE2       -0.4690   18.9360  -19.4870 C.ar   70  PHE70      -0.0003
     18  CZ         0.0060   20.1800  -19.7940 C.ar   70  PHE70      -0.0000
     19  N          2.0810   15.3310  -16.7650 N.am   71  HIS71      -0.1973
     20  CA         1.8880   14.1890  -17.6860 C.3    71  HIS71       0.1656
     21  C          0.5340   13.5540  -17.3930 C.2    71  HIS71       0.2291
     22  O          0.4080   12.9140  -16.3570 O.2    71  HIS71      -0.2864
     23  CB         3.0040   13.1620  -17.4940 C.3    71  HIS71       0.0771
     24  CG         2.8610   11.9600  -18.3710 C.ar   71  HIS71       0.0820
     25  ND1        3.1330   11.9840  -19.7140 N.ar   71  HIS71      -0.2267
     26  CD2        2.4150   10.7100  -18.0980 C.ar   71  HIS71       0.1154
     27  CE1        2.8540   10.8010  -20.2390 C.ar   71  HIS71       0.1986
     28  NE2        2.4240   10.0100  -19.2800 N.ar   71  HIS71      -0.2212
     29  N         -2.4680   14.9050  -16.5580 N.3    73  GLU73      -0.1245
     30  CA        -3.1420   15.4630  -15.4060 C.3    73  GLU73       0.1567
     31  C         -4.6440   15.5200  -15.6720 C.2    73  GLU73       0.2260
     32  O         -5.0480   15.6320  -16.8130 O.2    73  GLU73      -0.2867
     33  CB        -2.5650   16.8310  -15.0710 C.3    73  GLU73       0.0388
     34  CG        -3.1710   17.4230  -13.8130 C.3    73  GLU73       0.1160
     35  CD        -2.9320   16.5390  -12.6470 C.2    73  GLU73       0.3649
     36  OE1       -1.7680   16.5200  -12.1210 O.co2  73  GLU73      -0.2457
     37  OE2       -3.9040   15.8270  -12.2670 O.co2  73  GLU73      -0.2457
     38  N          4.4720   17.2420  -20.5220 N.3   102  ASP102     -0.1239
     39  CA         5.4390   16.1630  -20.6300 C.3   102  ASP102      0.1674
     40  C          4.8150   14.9660  -21.3640 C.2   102  ASP102      0.2266
     41  O          4.5970   13.9130  -20.7860 O.2   102  ASP102     -0.2867
     42  CB         5.9960   15.7590  -19.2830 C.3   102  ASP102      0.1410
     43  CG         7.1460   14.7780  -19.3870 C.2   102  ASP102      0.3668
     44  OD1        7.8210   14.7960  -20.4350 O.co2 102  ASP102     -0.2456
     45  OD2        7.3860   14.0210  -18.4450 O.co2 102  ASP102     -0.2456
     46  N          8.3590   11.5600  -23.7320 N.3   127  ARG127     -0.1245
     47  CA         8.3420   11.6180  -22.2700 C.3   127  ARG127      0.1563
     48  C          9.7200   12.0190  -21.8160 C.2   127  ARG127      0.2260
     49  O         10.6930   11.3870  -22.2150 O.2   127  ARG127     -0.2867
     50  CB         7.9760   10.2690  -21.7030 C.3   127  ARG127      0.0307
     51  CG         7.8480   10.2200  -20.2110 C.3   127  ARG127      0.0489
     52  CD         6.6210   10.9280  -19.7130 C.3   127  ARG127      0.2205
     53  NE         6.3760   10.5440  -18.3520 N.pl3 127  ARG127     -0.0865
     54  CZ         5.9130    9.3740  -17.9350 C.cat 127  ARG127      0.5346
     55  NH1        5.4790    8.4230  -18.7950 N.pl3 127  ARG127      0.1354
     56  NH2        5.8170    9.1890  -16.6470 N.pl3 127  ARG127      0.1354
     57  N         10.1570   13.3540  -18.2940 N.3   129  GLY129     -0.1210
     58  CA        10.2810   13.2530  -16.8520 C.3   129  GLY129      0.1956
     59  C         10.2440   14.6320  -16.2250 C.2   129  GLY129      0.2611
     60  O         10.4390   15.6350  -16.8740 O.2   129  GLY129     -0.2717
     61  N         10.0110   14.6740  -14.9330 N.am  130  LEU130     -0.1979
     62  CA         9.8470   15.9690  -14.2840 C.3   130  LEU130      0.1596
     63  C         11.1450   16.7670  -14.2090 C.2   130  LEU130      0.2287
     64  O         11.0950   17.9790  -14.2830 O.2   130  LEU130     -0.2864
     65  CB         9.1810   15.7820  -12.9500 C.3   130  LEU130      0.0297
     66  CG         9.9380   15.1980  -11.8170 C.3   130  LEU130      0.0022
     67  CD1       10.8130   16.2620  -11.1400 C.3   130  LEU130      0.0001
     68  CD2        8.9590   14.6750  -10.7820 C.3   130  LEU130      0.0001
     69  N         11.2750   20.3130  -15.9830 N.3   134  ARG134     -0.1245
     70  CA        11.4820   21.5150  -15.1760 C.3   134  ARG134      0.1563
     71  C         12.6360   22.3310  -15.7460 C.2   134  ARG134      0.2260
     72  O         12.5900   23.5750  -15.7820 O.2   134  ARG134     -0.2867
     73  CB        11.7480   21.1700  -13.7130 C.3   134  ARG134      0.0307
     74  CG        10.4830   20.8390  -12.9430 C.3   134  ARG134      0.0489
     75  CD        10.7690   20.5120  -11.4810 C.3   134  ARG134      0.2205
     76  NE         9.4880   20.2180  -10.8720 N.pl3 134  ARG134     -0.0865
     77  CZ         9.1690   20.4900   -9.6160 C.cat 134  ARG134      0.5346
     78  NH1       10.0950   20.9780   -8.8000 N.pl3 134  ARG134      0.1354
     79  NH2        7.9140   20.2890   -9.1890 N.pl3 134  ARG134      0.1354
     80  N          3.5220   21.4640   -8.5880 N.3   150  ASP150     -0.1225
     81  CA         2.8620   20.3170   -9.2200 C.3   150  ASP150      0.1805
     82  C          1.5660   20.7520   -9.8470 C.2   150  ASP150      0.2598
     83  O          0.9980   21.7850   -9.5270 O.2   150  ASP150     -0.2718
     84  CB         2.5740   19.1940   -8.2030 C.3   150  ASP150      0.1424
     85  CG         3.8210   18.3650   -7.8210 C.2   150  ASP150      0.3668
     86  OD1        4.9740   18.6890   -8.2370 O.co2 150  ASP150     -0.2456
     87  OD2        3.6390   17.3630   -7.0660 O.co2 150  ASP150     -0.2456
     88  N          1.0240   19.8940  -10.7030 N.am  151  SER151     -0.1938
     89  CA        -0.1360   20.2380  -11.5160 C.3   151  SER151      0.2055
     90  C         -1.4920   19.8970  -10.8170 C.2   151  SER151      0.2643
     91  O         -2.5400   19.8870  -11.4500 O.2   151  SER151     -0.2714
     92  CB        -0.0160   19.5440  -12.8720 C.3   151  SER151      0.2130
     93  OG         0.2370   18.1700  -12.6970 O.3   151  SER151     -0.2179
     94  N         -1.4520   19.6030   -9.5290 N.am  152  HIS152     -0.1973
     95  CA        -2.6630   19.3840   -8.7120 C.3   152  HIS152      0.1656
     96  C         -2.4670   20.0510   -7.3410 C.2   152  HIS152      0.2291
     97  O         -2.4610   19.3840   -6.2970 O.2   152  HIS152     -0.2864
     98  CB        -2.8910   17.8980   -8.5630 C.3   152  HIS152      0.0771
     99  CG        -1.6100   17.1580   -8.4460 C.ar  152  HIS152      0.0820
    100  ND1       -1.0390   16.5170   -9.5170 N.ar  152  HIS152     -0.2267
    101  CD2       -0.7060   17.0880   -7.4420 C.ar  152  HIS152      0.1154
    102  CE1        0.1490   16.0740   -9.1820 C.ar  152  HIS152      0.1986
    103  NE2        0.3830   16.4190   -7.9390 N.ar  152  HIS152     -0.2212
    104  N          9.0420   17.4710   -1.7470 N.3   234  GLY234     -0.1225
    105  CA         9.0680   17.8770   -3.1630 C.3   234  GLY234      0.1811
    106  C          7.6700   18.2560   -3.6360 C.2   234  GLY234      0.2280
    107  O          6.6720   18.0540   -2.8900 O.2   234  GLY234     -0.2866
    108  N         11.8500   10.6020  -15.0780 N.3   256  VAL256     -0.1231
    109  CA        10.4940   10.5190  -14.5370 C.3   256  VAL256      0.1692
    110  C         10.2070   11.2560  -13.2180 C.2   256  VAL256      0.2592
    111  O          9.5700   12.3040  -13.2150 O.2   256  VAL256     -0.2718
    112  CB        10.0150    9.0600  -14.4070 C.3   256  VAL256      0.0266
    113  CG1        8.5220    9.0250  -14.0930 C.3   256  VAL256      0.0020
    114  CG2       10.3110    8.2740  -15.6840 C.3   256  VAL256      0.0020
    115  N         10.6300   10.6630  -12.1130 N.am  257  TRP257     -0.1976
    116  CA        10.2500   11.0930  -10.7600 C.3   257  TRP257      0.1640
    117  C         11.2260   10.4380   -9.8170 C.2   257  TRP257      0.2290
    118  O         11.6600    9.3050  -10.0810 O.2   257  TRP257     -0.2864
    119  CB         8.8130   10.6340  -10.4540 C.3   257  TRP257      0.0576
    120  CG         8.3200   10.9070   -9.0840 C.ar  257  TRP257      0.0006
    121  CD1        7.5570   11.9640   -8.6850 C.ar  257  TRP257      0.0946
    122  CD2        8.5720   10.1250   -7.9110 C.ar  257  TRP257      0.0152
    123  NE1        7.2960   11.8710   -7.3390 N.ar  257  TRP257     -0.2442
    124  CE2        7.9220   10.7660   -6.8300 C.ar  257  TRP257      0.0810
    125  CE3        9.2570    8.9350   -7.6750 C.ar  257  TRP257      0.0012
    126  CZ2        7.9630   10.2600   -5.5380 C.ar  257  TRP257      0.0191
    127  CZ3        9.3080    8.4450   -6.3970 C.ar  257  TRP257      0.0001
    128  CH2        8.6470    9.0880   -5.3500 C.ar  257  TRP257      0.0015
    129  N         -1.8650   20.4010   -1.8070 N.3   285  HIS285     -0.1226
    130  CA        -1.3770   19.4210   -2.7670 C.3   285  HIS285      0.1752
    131  C         -2.1540   18.1170   -2.6810 C.2   285  HIS285      0.2596
    132  O         -2.4410   17.6550   -1.5910 O.2   285  HIS285     -0.2718
    133  CB         0.1200   19.1520   -2.5000 C.3   285  HIS285      0.0759
    134  CG         0.6880   18.0310   -3.3160 C.ar  285  HIS285      0.0818
    135  ND1        0.8860   16.7640   -2.8110 N.ar  285  HIS285     -0.2268
    136  CD2        1.1010   17.9910   -4.6070 C.ar  285  HIS285      0.1154
    137  CE1        1.4170   15.9970   -3.7560 C.ar  285  HIS285      0.1986
    138  NE2        1.5190   16.7140   -4.8570 N.ar  285  HIS285     -0.2212
    139  N         -2.5550   17.5610   -3.8310 N.am  286  VAL286     -0.1966
    140  CA        -3.2260   16.2600   -3.8230 C.3   286  VAL286      0.1727
    141  C         -2.1740   15.1620   -3.6550 C.2   286  VAL286      0.2616
    142  O         -1.5260   14.7370   -4.6060 O.2   286  VAL286     -0.2715
    143  CB        -4.0710   15.9860   -5.0890 C.3   286  VAL286      0.0290
    144  CG1       -4.7730   14.6360   -4.9490 C.3   286  VAL286      0.0023
    145  CG2       -5.0630   17.0790   -5.3380 C.3   286  VAL286      0.0023
    146  N         -1.9810   14.7240   -2.4130 N.am  287  PHE287     -0.1960
    147  CA        -1.1500   13.5680   -2.1290 C.3   287  PHE287      0.1771
    148  C         -1.8750   12.2970   -2.5580 C.2   287  PHE287      0.2619
    149  O         -3.0580   12.1410   -2.2970 O.2   287  PHE287     -0.2715
    150  CB        -0.8510   13.4890   -0.6330 C.3   287  PHE287      0.0574
    151  CG         0.0550   14.5880   -0.1370 C.ar  287  PHE287     -0.0200
    152  CD1        1.4220   14.4330   -0.1500 C.ar  287  PHE287     -0.0042
    153  CD2       -0.4780   15.7700    0.3800 C.ar  287  PHE287     -0.0042
    154  CE1        2.2550   15.4430    0.3090 C.ar  287  PHE287     -0.0003
    155  CE2        0.3410   16.7760    0.8470 C.ar  287  PHE287     -0.0003
    156  CZ         1.7170   16.6170    0.8070 C.ar  287  PHE287     -0.0000
    157  N         -1.1490   11.4080   -3.1950 N.am  288  ARG288     -0.1977
    158  CA        -1.7640   10.1130   -3.4890 C.3   288  ARG288      0.1597
    159  C         -0.9250    8.9560   -3.0730 C.2   288  ARG288      0.2287
    160  O          0.2030    9.1190   -2.5900 O.2   288  ARG288     -0.2864
    161  CB        -2.2250   10.0320   -4.9350 C.3   288  ARG288      0.0334
    162  CG        -1.2100   10.3770   -5.9370 C.3   288  ARG288      0.0492
    163  CD        -1.8990   10.7750   -7.2680 C.3   288  ARG288      0.2205
    164  NE        -0.8670   11.3840   -8.1050 N.pl3 288  ARG288     -0.0865
    165  CZ        -1.0440   12.0790   -9.2260 C.cat 288  ARG288      0.5346
    166  NH1       -2.2060   12.1260   -9.8680 N.pl3 288  ARG288      0.1354
    167  NH2        0.0340   12.6180   -9.8130 N.pl3 288  ARG288      0.1354
    168  N          1.4370    6.2330   -8.0570 N.3   291  HIS291     -0.1241
    169  CA         1.6550    7.0400   -9.2340 C.3   291  HIS291      0.1621
    170  C          0.6520    6.6160  -10.2780 C.2   291  HIS291      0.2264
    171  O          0.4550    5.4170  -10.4540 O.2   291  HIS291     -0.2867
    172  CB         3.0500    6.8360   -9.8170 C.3   291  HIS291      0.0745
    173  CG         4.1600    7.3640   -8.9360 C.ar  291  HIS291      0.0817
    174  ND1        4.8300    6.5720   -8.0390 N.ar  291  HIS291     -0.2268
    175  CD2        4.7510    8.5750   -8.8740 C.ar  291  HIS291      0.1154
    176  CE1        5.7700    7.2690   -7.4330 C.ar  291  HIS291      0.1986
    177  NE2        5.7340    8.4940   -7.9100 N.ar  291  HIS291     -0.2212
    178  N          0.9510    7.1200  -13.5490 N.3   293  TYR293     -0.1241
    179  CA         1.5680    7.0140  -14.8450 C.3   293  TYR293      0.1605
    180  C          2.6320    5.9600  -14.7750 C.2   293  TYR293      0.2264
    181  O          3.0600    5.5540  -13.6780 O.2   293  TYR293     -0.2867
    182  CB         2.1700    8.3560  -15.2850 C.3   293  TYR293      0.0534
    183  CG         2.9380    9.0760  -14.1670 C.ar  293  TYR293     -0.0201
    184  CD1        4.1870    8.6360  -13.7500 C.ar  293  TYR293     -0.0009
    185  CD2        2.4240   10.2200  -13.5640 C.ar  293  TYR293     -0.0009
    186  CE1        4.8710    9.2700  -12.7220 C.ar  293  TYR293      0.0417
    187  CE2        3.1100   10.8540  -12.5490 C.ar  293  TYR293      0.0417
    188  CZ         4.3260   10.3940  -12.1420 C.ar  293  TYR293      0.1957
    189  OH         5.0250   11.0130  -11.1240 O.3   293  TYR293     -0.2866
@<TRIPOS>BOND
     1    46    47    1
     2    47    48    1
     3    47    50    1
     4    49    48    2
     5    50    51    1
     6    40    41    2
     7    40    39    1
     8    39    38    1
     9    39    42    1
    10    44    43   ar
    11    27    25   ar
    12    27    28   ar
    13    51    52    1
    14    18    17   ar
    15    18    16   ar
    16    25    24   ar
    17    52    53    1
    18    17    15   ar
    19    43    42    1
    20    43    45   ar
    21    28    26   ar
    22    16    14   ar
    23    55    54    1
    24    24    26   ar
    25    24    23    1
    26    53    54    2
    27    11    10    2
    28    15    13   ar
    29    57    58    1
    30    54    56    1
    31    14    13   ar
    32    20    23    1
    33    20    21    1
    34    20    19    1
    35    13    12    1
    36    21    22    2
    37    10    19   am
    38    10     9    1
    39    60    59    2
    40    58    59    1
    41    32    31    2
    42    29    30    1
    43     8     9    1
    44     8     3   am
    45    59    61   am
    46     9    12    1
    47    69    70    1
    48    72    71    2
    49    71    70    1
    50   114   112    1
    51    31    30    1
    52     2     5    1
    53     2     3    1
    54     2     1    1
    55     5     7    1
    56     5     6    1
    57    30    33    1
    58     3     4    2
    59   182   179    1
    60   182   183    1
    61    70    73    1
    62   108   109    1
    63    33    34    1
    64    61    62    1
    65   179   180    1
    66   179   178    1
    67   180   181    2
    68   109   112    1
    69   109   110    1
    70   112   113    1
    71    62    63    1
    72    62    65    1
    73    64    63    2
    74   183   184   ar
    75   183   185   ar
    76    34    35    1
    77   184   186   ar
    78    73    74    1
    79   185   187   ar
    80   110   111    2
    81   110   115   am
    82    65    66    1
    83    74    75    1
    84    92    93    1
    85    92    89    1
    86   186   188   ar
    87    35    37   ar
    88    35    36   ar
    89   187   188   ar
    90   188   189    1
    91   115   116    1
    92    66    67    1
    93    66    68    1
    94    89    90    1
    95    89    88    1
    96    75    76    1
    97    91    90    2
    98    76    77    2
    99    90    94   am
   100   116   119    1
   101   116   117    1
   102    88    82   am
   103   171   170    2
   104   119   120    1
   105   170   169    1
   106   118   117    2
   107   166   165    1
   108    82    83    2
   109    82    81    1
   110   172   169    1
   111   172   173    1
   112   167   165    1
   113    77    79    1
   114    77    78    1
   115    94    95    1
   116   100   102   ar
   117   100    99   ar
   118   169   168    1
   119   165   164    2
   120    81    80    1
   121    81    84    1
   122   102   103   ar
   123   120   121   ar
   124   120   122   ar
   125   173   175   ar
   126   173   174   ar
   127   175   177   ar
   128    95    98    1
   129    95    96    1
   130   121   123   ar
   131    98    99    1
   132    99   101   ar
   133    86    85   ar
   134    84    85    1
   135   164   163    1
   136   174   176   ar
   137   103   101   ar
   138   122   125   ar
   139   122   124   ar
   140   177   176   ar
   141    85    87   ar
   142   125   127   ar
   143    96    97    2
   144   123   124   ar
   145   163   162    1
   146   124   126   ar
   147   127   128   ar
   148   162   161    1
   149   126   128   ar
   150   145   143    1
   151   143   144    1
   152   143   140    1
   153   161   158    1
   154   138   136   ar
   155   138   137   ar
   156   136   134   ar
   157   142   141    2
   158   139   140    1
   159   139   131   am
   160   140   141    1
   161   137   135   ar
   162   141   146   am
   163   106   105    1
   164   106   107    2
   165   158   157    1
   166   158   159    1
   167   134   135   ar
   168   134   133    1
   169   157   148   am
   170   105   104    1
   171   159   160    2
   172   130   131    1
   173   130   133    1
   174   130   129    1
   175   131   132    2
   176   148   149    2
   177   148   147    1
   178   146   147    1
   179   147   150    1
   180   150   151    1
   181   152   151   ar
   182   152   154   ar
   183   151   153   ar
   184   154   156   ar
   185   153   155   ar
   186   156   155   ar
