@<TRIPOS>MOLECULE
tmp/5ajqB00.pdb
 194 181 0 0 0
SMALL
GASTEIGER

@<TRIPOS>ATOM
      1  N         28.7600   32.4050    2.9780 N.3    18  LEU18      -0.1231
      2  CA        28.4270   31.0100    2.6740 C.3    18  LEU18       0.1693
      3  C         28.4200   30.5970    1.1960 C.2    18  LEU18       0.2592
      4  O         28.2560   29.4140    0.9230 O.2    18  LEU18      -0.2718
      5  CB        27.0380   30.7070    3.2410 C.3    18  LEU18       0.0284
      6  CG        26.9280   30.6270    4.7630 C.3    18  LEU18       0.0019
      7  CD1       25.4720   30.4670    5.1340 C.3    18  LEU18       0.0001
      8  CD2       27.7110   29.4700    5.3270 C.3    18  LEU18       0.0001
      9  N         28.5580   31.5300    0.2490 N.am   19  GLY19      -0.1957
     10  CA        28.4710   31.1690   -1.1850 C.3    19  GLY19       0.1869
     11  C         29.1620   32.1180   -2.1530 C.2    19  GLY19       0.2309
     12  O         29.9740   32.9540   -1.7420 O.2    19  GLY19      -0.2863
     13  N         22.7140   34.0240   -7.1340 N.3    23  PHE23      -0.1241
     14  CA        22.0240   34.7510   -6.0520 C.3    23  PHE23       0.1605
     15  C         22.6180   36.1140   -5.6600 C.2    23  PHE23       0.2264
     16  O         22.0050   37.1550   -5.8880 O.2    23  PHE23      -0.2867
     17  CB        21.9300   33.8510   -4.7910 C.3    23  PHE23       0.0534
     18  CG        21.2190   32.5500   -5.0040 C.ar   23  PHE23      -0.0203
     19  CD1       20.0750   32.3920   -5.7750 C.ar   23  PHE23      -0.0042
     20  CD2       21.6550   31.4340   -4.2780 C.ar   23  PHE23      -0.0042
     21  CE1       19.3900   31.2080   -5.8650 C.ar   23  PHE23      -0.0003
     22  CE2       20.9830   30.2560   -4.3710 C.ar   23  PHE23      -0.0003
     23  CZ        19.8290   30.1250   -5.1380 C.ar   23  PHE23      -0.0000
     24  N         25.7460   35.5960    0.2440 N.3    26  VAL26      -0.1245
     25  CA        24.9280   34.9210    1.2680 C.3    26  VAL26       0.1561
     26  C         25.7150   34.8760    2.5790 C.2    26  VAL26       0.2260
     27  O         26.7870   34.2780    2.6340 O.2    26  VAL26      -0.2867
     28  CB        24.5370   33.4830    0.8430 C.3    26  VAL26       0.0252
     29  CG1       23.5800   32.8510    1.8570 C.3    26  VAL26       0.0019
     30  CG2       23.9030   33.4840   -0.5430 C.3    26  VAL26       0.0019
     31  N         20.8790   31.5840    7.2980 N.3    39  ALA39      -0.1245
     32  CA        21.4510   32.1230    6.0700 C.3    39  ALA39       0.1562
     33  C         20.7430   33.4460    5.8280 C.2    39  ALA39       0.2260
     34  O         19.5150   33.5450    5.9780 O.2    39  ALA39      -0.2867
     35  CB        21.2470   31.1790    4.9030 C.3    39  ALA39       0.0290
     36  N         20.4710   36.8950    3.2330 N.3    41  LYS41      -0.1245
     37  CA        20.7210   37.5240    1.9420 C.3    41  LYS41       0.1561
     38  C         20.0980   38.9200    1.9170 C.2    41  LYS41       0.2260
     39  O         19.2280   39.2660    2.7560 O.2    41  LYS41      -0.2867
     40  CB        20.1780   36.6630    0.7990 C.3    41  LYS41       0.0271
     41  CG        20.8380   35.3090    0.6580 C.3    41  LYS41       0.0035
     42  CD        20.1770   34.4610   -0.3950 C.3    41  LYS41       0.0206
     43  CE        18.8780   33.8540    0.0540 C.3    41  LYS41       0.1093
     44  NZ        18.3430   32.8620   -0.9240 N.3    41  LYS41      -0.1314
     45  N          7.3110   36.5180   -1.9600 N.3    49  GLU49      -0.1245
     46  CA         8.1930   35.4250   -1.5020 C.3    49  GLU49       0.1567
     47  C          8.2300   35.3230    0.0080 C.2    49  GLU49       0.2260
     48  O          8.2560   34.2180    0.5480 O.2    49  GLU49      -0.2867
     49  CB         9.6750   35.6720   -1.9030 C.3    49  GLU49       0.0388
     50  CG        10.4530   34.4250   -2.3280 C.3    49  GLU49       0.1160
     51  CD        11.4220   34.6880   -3.4750 C.2    49  GLU49       0.3649
     52  OE1       12.5400   35.1470   -3.1830 O.co2  49  GLU49      -0.2457
     53  OE2       11.0750   34.4330   -4.6580 O.co2  49  GLU49      -0.2457
     54  N          7.1520   32.2760    2.4160 N.3    53  LEU53      -0.1245
     55  CA         8.0550   31.6360    3.3730 C.3    53  LEU53       0.1561
     56  C          7.5830   31.7710    4.8270 C.2    53  LEU53       0.2260
     57  O          7.8690   30.9000    5.6500 O.2    53  LEU53      -0.2867
     58  CB         9.4760   32.1800    3.2150 C.3    53  LEU53       0.0270
     59  CG        10.2160   31.7750    1.9400 C.3    53  LEU53       0.0019
     60  CD1       11.5020   32.5800    1.8290 C.3    53  LEU53       0.0001
     61  CD2       10.5120   30.2770    1.8920 C.3    53  LEU53       0.0001
     62  N         12.0990   25.6810    3.6850 N.3    62  VAL62      -0.1245
     63  CA        12.9060   26.5430    4.5240 C.3    62  VAL62       0.1561
     64  C         12.0060   27.5000    5.3310 C.2    62  VAL62       0.2260
     65  O         11.0090   28.0030    4.8210 O.2    62  VAL62      -0.2867
     66  CB        13.9820   27.3510    3.7440 C.3    62  VAL62       0.0252
     67  CG1       14.9910   26.4350    3.0640 C.3    62  VAL62       0.0019
     68  CG2       13.3720   28.3720    2.7820 C.3    62  VAL62       0.0019
     69  N         16.7200   39.2000    4.5890 N.3    76  ILE76      -0.1245
     70  CA        15.9200   37.9820    4.6900 C.3    76  ILE76       0.1561
     71  C         16.7750   36.9660    5.4410 C.2    76  ILE76       0.2260
     72  O         17.8840   36.6410    5.0010 O.2    76  ILE76      -0.2867
     73  CB        15.5130   37.4450    3.2990 C.3    76  ILE76       0.0252
     74  CG1       14.8190   38.5400    2.4780 C.3    76  ILE76       0.0019
     75  CG2       14.5650   36.2520    3.4260 C.3    76  ILE76       0.0019
     76  CD1       14.7230   38.2350    0.9950 C.3    76  ILE76       0.0001
     77  N         16.9240   33.1990    6.8460 N.3    78  ILE78      -0.1231
     78  CA        16.3270   31.8930    6.5780 C.3    78  ILE78       0.1692
     79  C         17.0240   30.8360    7.4140 C.2    78  ILE78       0.2592
     80  O         18.2450   30.8880    7.5800 O.2    78  ILE78      -0.2718
     81  CB        16.4530   31.5000    5.0850 C.3    78  ILE78       0.0266
     82  CG1       15.8050   32.5440    4.1640 C.3    78  ILE78       0.0019
     83  CG2       15.8140   30.1420    4.8250 C.3    78  ILE78       0.0020
     84  CD1       14.2930   32.6370    4.2450 C.3    78  ILE78       0.0001
     85  N         16.2370   29.8830    7.9180 N.am   79  GLU79      -0.1966
     86  CA        16.7400   28.6940    8.6220 C.3    79  GLU79       0.1733
     87  C         18.0010   28.1460    7.9510 C.2    79  GLU79       0.2616
     88  O         17.9840   27.8160    6.7650 O.2    79  GLU79      -0.2715
     89  CB        15.6600   27.6130    8.7050 C.3    79  GLU79       0.0429
     90  CG        16.1580   26.3650    9.3590 C.3    79  GLU79       0.1163
     91  CD        15.1430   25.2520    9.3940 C.2    79  GLU79       0.3649
     92  OE1       14.1530   25.2100    8.6240 O.co2  79  GLU79      -0.2457
     93  OE2       15.2270   24.3590   10.2320 O.co2  79  GLU79      -0.2457
     94  N         19.0970   28.1040    8.7010 N.am   80  PHE80      -0.1960
     95  CA        20.3830   27.6190    8.1930 C.3    80  PHE80       0.1771
     96  C         20.2740   26.1320    7.9010 C.2    80  PHE80       0.2620
     97  O         19.7800   25.3740    8.7400 O.2    80  PHE80      -0.2715
     98  CB        21.4770   27.8870    9.2290 C.3    80  PHE80       0.0574
     99  CG        22.8690   27.4800    8.8010 C.ar   80  PHE80      -0.0200
    100  CD1       23.5600   28.1950    7.8230 C.ar   80  PHE80      -0.0042
    101  CD2       23.5200   26.4150    9.4270 C.ar   80  PHE80      -0.0042
    102  CE1       24.8540   27.8340    7.4550 C.ar   80  PHE80      -0.0003
    103  CE2       24.8140   26.0540    9.0660 C.ar   80  PHE80      -0.0003
    104  CZ        25.4840   26.7610    8.0780 C.ar   80  PHE80      -0.0000
    105  N         20.7100   25.7320    6.7040 N.am   81  CYS81      -0.1954
    106  CA        20.7400   24.3280    6.3040 C.3    81  CYS81       0.1828
    107  C         22.1980   23.8670    6.1980 C.2    81  CYS81       0.2467
    108  O         22.8560   24.1310    5.1830 O.2    81  CYS81      -0.2730
    109  CB        20.0000   24.1210    4.9810 C.3    81  CYS81       0.0996
    110  SG        18.2840   24.6440    5.0530 S.3    81  CYS81      -0.0797
    111  N         22.7100   23.1830    7.2440 N.am   82  PRO82      -0.2715
    112  CA        24.1530   22.9240    7.3030 C.3    82  PRO82       0.1536
    113  C         24.6910   21.9360    6.2670 C.2    82  PRO82       0.2599
    114  O         25.8760   21.9910    5.9350 O.2    82  PRO82      -0.2715
    115  CB        24.3790   22.3780    8.7290 C.3    82  PRO82       0.0310
    116  CG        23.0600   22.3780    9.4110 C.3    82  PRO82       0.0237
    117  CD        21.9970   22.5650    8.3790 C.3    82  PRO82       0.0939
    118  N         23.8320   21.0550    5.7600 N.am   83  GLY83      -0.1941
    119  CA        24.1910   20.1780    4.6500 C.3    83  GLY83       0.2014
    120  C         24.4180   20.8630    3.3090 C.2    83  GLY83       0.2639
    121  O         25.0040   20.2610    2.4090 O.2    83  GLY83      -0.2714
    122  N         23.9570   22.1110    3.1540 N.am   84  GLY84      -0.1939
    123  CA        24.0390   22.8250    1.8670 C.3    84  GLY84       0.2014
    124  C         23.1740   22.2060    0.7760 C.2    84  GLY84       0.2638
    125  O         22.3590   21.3180    1.0510 O.2    84  GLY84      -0.2714
    126  N         23.3870   22.6540   -0.4620 N.am   85  ALA85      -0.1977
    127  CA        22.5790   22.2280   -1.6230 C.3    85  ALA85       0.1597
    128  C         22.9820   20.8610   -2.1660 C.2    85  ALA85       0.2287
    129  O         24.1440   20.4700   -2.0950 O.2    85  ALA85      -0.2864
    130  CB        22.6720   23.2630   -2.7370 C.3    85  ALA85       0.0319
    131  N         26.8030   19.1080   -3.2090 N.3    89  ILE89      -0.1245
    132  CA        27.2580   17.8150   -2.6910 C.3    89  ILE89       0.1561
    133  C         27.7200   16.8860   -3.8070 C.2    89  ILE89       0.2260
    134  O         28.7230   16.1980   -3.6610 O.2    89  ILE89      -0.2867
    135  CB        26.1760   17.1290   -1.8360 C.3    89  ILE89       0.0252
    136  CG1       26.0450   17.8890   -0.5170 C.3    89  ILE89       0.0019
    137  CG2       26.5380   15.6790   -1.5360 C.3    89  ILE89       0.0019
    138  CD1       24.9690   17.3680    0.3980 C.3    89  ILE89       0.0001
    139  N         31.2470   18.1600   -4.7590 N.3    92  GLU92      -0.1245
    140  CA        32.2290   17.7500   -3.7350 C.3    92  GLU92       0.1567
    141  C         32.6880   16.3010   -3.9000 C.2    92  GLU92       0.2260
    142  O         33.8910   16.0290   -3.9350 O.2    92  GLU92      -0.2867
    143  CB        31.6440   17.9320   -2.3280 C.3    92  GLU92       0.0388
    144  CG        32.6330   17.6680   -1.1950 C.3    92  GLU92       0.1160
    145  CD        32.0750   18.0140    0.1760 C.2    92  GLU92       0.3649
    146  OE1       30.9580   18.5720    0.2800 O.co2  92  GLU92      -0.2457
    147  OE2       32.7500   17.7010    1.1640 O.co2  92  GLU92      -0.2457
    148  N         20.0840   22.6920   -6.9190 N.3   129  GLY129     -0.1210
    149  CA        20.5880   23.8760   -6.2430 C.3   129  GLY129      0.1956
    150  C         19.6630   24.5190   -5.2370 C.2   129  GLY129      0.2611
    151  O         20.1400   25.2290   -4.3440 O.2   129  GLY129     -0.2717
    152  N         18.3520   24.3060   -5.3920 N.am  130  ASN130     -0.1974
    153  CA        17.3450   24.8020   -4.4520 C.3   130  ASN130      0.1688
    154  C         16.7480   23.7400   -3.5400 C.2   130  ASN130      0.2292
    155  O         15.7250   23.9580   -2.8850 O.2   130  ASN130     -0.2864
    156  CB        16.2520   25.5310   -5.2360 C.3   130  ASN130      0.1181
    157  CG        16.7690   26.7880   -5.9030 C.2   130  ASN130      0.2629
    158  OD1       17.7640   27.3600   -5.4740 O.2   130  ASN130     -0.2716
    159  ND2       16.0870   27.2400   -6.9460 N.am  130  ASN130     -0.0877
    160  N         18.0280   21.9770   -0.3470 N.3   132  LEU132     -0.1245
    161  CA        19.0610   22.0880    0.6740 C.3   132  LEU132      0.1561
    162  C         18.8640   21.0110    1.7000 C.2   132  LEU132      0.2260
    163  O         17.7740   20.4780    1.8270 O.2   132  LEU132     -0.2867
    164  CB        18.9630   23.4360    1.3580 C.3   132  LEU132      0.0270
    165  CG        18.9600   24.6320    0.4200 C.3   132  LEU132      0.0019
    166  CD1       18.8200   25.8590    1.2920 C.3   132  LEU132      0.0001
    167  CD2       20.2150   24.7100   -0.4330 C.3   132  LEU132      0.0001
    168  N         14.1090   25.5210   -1.0750 N.3   142  ALA142     -0.1231
    169  CA        14.4920   26.9160   -0.8900 C.3   142  ALA142      0.1694
    170  C         14.1850   27.7620   -2.1170 C.2   142  ALA142      0.2592
    171  O         13.7430   27.2600   -3.1670 O.2   142  ALA142     -0.2718
    172  CB        15.9750   26.9860   -0.5750 C.3   142  ALA142      0.0304
    173  N         14.3900   29.0640   -1.9400 N.am  143  ASP143     -0.1974
    174  CA        14.5420   30.0460   -3.0200 C.3   143  ASP143      0.1709
    175  C         13.2440   30.5810   -3.6110 C.2   143  ASP143      0.2293
    176  O         13.0600   31.7940   -3.6650 O.2   143  ASP143     -0.2864
    177  CB        15.4730   29.5520   -4.1320 C.3   143  ASP143      0.1436
    178  CG        15.7520   30.6200   -5.1520 C.2   143  ASP143      0.3671
    179  OD1       16.4790   31.5910   -4.8210 O.co2 143  ASP143     -0.2456
    180  OD2       15.2310   30.4820   -6.2820 O.co2 143  ASP143     -0.2456
    181  N         29.7770   13.7050    3.2020 N.3   265  ALA265     -0.1231
    182  CA        30.2240   15.0310    2.7310 C.3   265  ALA265      0.1694
    183  C         30.7600   15.9410    3.8500 C.2   265  ALA265      0.2591
    184  O         31.5180   16.8740    3.5650 O.2   265  ALA265     -0.2718
    185  CB        29.1050   15.7340    1.9770 C.3   265  ALA265      0.0304
    186  N         30.3510   15.6900    5.1010 N.am  266  LYS266     -0.1980
    187  CA        30.9280   16.3760    6.2750 C.3   266  LYS266      0.1596
    188  C         32.3630   15.8810    6.5180 C.2   266  LYS266      0.2287
    189  O         33.2800   16.6900    6.6870 O.2   266  LYS266     -0.2864
    190  CB        30.0580   16.1770    7.5290 C.3   266  LYS266      0.0298
    191  CG        28.6500   16.7260    7.5040 C.3   266  LYS266      0.0038
    192  CD        28.6100   18.1520    6.9830 C.3   266  LYS266      0.0206
    193  CE        29.3500   19.0250    8.0040 C.3   266  LYS266      0.1093
    194  NZ        28.8790   20.4350    7.6930 N.3   266  LYS266     -0.1314
@<TRIPOS>BOND
     1    13    14    1
     2   159   157   am
     3   148   149    1
     4   180   178   ar
     5   149   150    1
     6    14    15    1
     7    14    17    1
     8   157   158    2
     9   157   156    1
    10    16    15    2
    11    21    19   ar
    12    21    23   ar
    13    19    18   ar
    14   152   150   am
    15   152   153    1
    16   150   151    2
    17   156   153    1
    18   178   179   ar
    19   178   177    1
    20    23    22   ar
    21    18    17    1
    22    18    20   ar
    23   139   140    1
    24    53    51   ar
    25   153   154    1
    26    22    20   ar
    27   177   174    1
    28   142   141    2
    29   141   140    1
    30   133   134    2
    31   133   132    1
    32   140   143    1
    33   176   175    2
    34   175   174    1
    35   154   155    2
    36    51    52   ar
    37    51    50    1
    38   131   132    1
    39   171   170    2
    40   174   173    1
    41   130   127    1
    42   132   135    1
    43    50    49    1
    44   143   144    1
    45   128   129    2
    46   128   127    1
    47    11    12    2
    48    11    10    1
    49   170   173   am
    50   170   169    1
    51    45    46    1
    52    49    46    1
    53   135   137    1
    54   135   136    1
    55   127   126    1
    56    46    47    1
    57   144   145    1
    58    10     9    1
    59   168   169    1
    60    44    43    1
    61   169   172    1
    62    30    28    1
    63   136   138    1
    64   126   124   am
    65   167   165    1
    66    42    43    1
    67    42    41    1
    68   160   161    1
    69    47    48    2
    70   145   146   ar
    71   145   147   ar
    72    24    25    1
    73     9     3   am
    74   165   166    1
    75   165   164    1
    76    41    40    1
    77   161   164    1
    78   161   162    1
    79   124   125    2
    80   124   123    1
    81    40    37    1
    82    28    25    1
    83    28    29    1
    84     4     3    2
    85    76    74    1
    86     3     2    1
    87    25    26    1
    88   162   163    2
    89    60    59    1
    90   123   122    1
    91    61    59    1
    92    38    37    1
    93    38    39    2
    94    59    58    1
    95    37    36    1
    96   185   182    1
    97   121   120    2
    98    54    55    1
    99    74    73    1
   100    26    27    2
   101     2     1    1
   102     2     5    1
   103   182   181    1
   104   182   183    1
   105    68    66    1
   106    67    66    1
   107   122   120   am
   108    58    55    1
   109     5     6    1
   110    73    75    1
   111    73    70    1
   112   120   119    1
   113    55    56    1
   114   184   183    2
   115    62    63    1
   116    66    63    1
   117   183   186   am
   118    82    84    1
   119    82    81    1
   120    63    64    1
   121    69    70    1
   122   119   118    1
   123    70    71    1
   124     6     7    1
   125     6     8    1
   126    65    64    2
   127    83    81    1
   128    56    57    2
   129    35    32    1
   130   109   110    1
   131   109   106    1
   132    72    71    2
   133    81    78    1
   134   186   187    1
   135   108   107    2
   136   118   113   am
   137    33    34    2
   138    33    32    1
   139   114   113    2
   140    32    31    1
   141   107   106    1
   142   107   111   am
   143   113   112    1
   144   187   188    1
   145   187   190    1
   146   106   105    1
   147   188   189    2
   148    78    77    1
   149    78    79    1
   150   105    96   am
   151    88    87    2
   152   192   191    1
   153   192   193    1
   154   111   112    1
   155   111   117    1
   156   112   115    1
   157    79    80    2
   158    79    85   am
   159   102   100   ar
   160   102   104   ar
   161   191   190    1
   162   194   193    1
   163   100    99   ar
   164    96    95    1
   165    96    97    2
   166    85    86    1
   167    87    86    1
   168    87    94   am
   169   104   103   ar
   170    95    94    1
   171    95    98    1
   172   117   116    1
   173    86    89    1
   174    92    91   ar
   175    89    90    1
   176   115   116    1
   177    99    98    1
   178    99   101   ar
   179   103   101   ar
   180    90    91    1
   181    91    93   ar
