@<TRIPOS>MOLECULE
tmp/5ajrA01.pdb
 236 226 0 0 0
SMALL
GASTEIGER

@<TRIPOS>ATOM
      1  N         -6.8990    3.1630    9.8610 N.3    20  PHE20      -0.1241
      2  CA        -6.7840    4.3540   10.6910 C.3    20  PHE20       0.1605
      3  C         -7.2690    5.5830    9.9300 C.2    20  PHE20       0.2264
      4  O         -8.0740    6.3640   10.4370 O.2    20  PHE20      -0.2867
      5  CB        -5.3340    4.5570   11.1320 C.3    20  PHE20       0.0534
      6  CG        -5.1610    5.6600   12.1350 C.ar   20  PHE20      -0.0203
      7  CD1       -6.1960    5.9950   12.9910 C.ar   20  PHE20      -0.0042
      8  CD2       -3.9740    6.3670   12.2150 C.ar   20  PHE20      -0.0042
      9  CE1       -6.0510    7.0140   13.9130 C.ar   20  PHE20      -0.0003
     10  CE2       -3.8200    7.3860   13.1350 C.ar   20  PHE20      -0.0003
     11  CZ        -4.8600    7.7110   13.9860 C.ar   20  PHE20      -0.0000
     12  N        -10.8500    6.3360   12.2180 N.3    24  PRO24      -0.2116
     13  CA        -9.9580    6.1910   13.3640 C.3    24  PRO24       0.1372
     14  C        -10.7140    5.8570   14.6450 C.2    24  PRO24       0.2244
     15  O        -10.1470    5.2660   15.5650 O.2    24  PRO24      -0.2868
     16  CB        -9.2880    7.5640   13.4860 C.3    24  PRO24       0.0268
     17  CG        -9.6530    8.3310   12.2590 C.3    24  PRO24       0.0207
     18  CD       -10.9230    7.7260   11.7380 C.3    24  PRO24       0.0892
     19  N          5.6310   18.2190   16.5750 N.3    75  TYR75      -0.1241
     20  CA         4.8430   19.3560   16.1120 C.3    75  TYR75       0.1605
     21  C          5.6470   20.2350   15.1600 C.2    75  TYR75       0.2264
     22  O          5.2570   21.3660   14.8690 O.2    75  TYR75      -0.2867
     23  CB         4.3740   20.1940   17.3030 C.3    75  TYR75       0.0534
     24  CG         3.2240   19.5900   18.0770 C.ar   75  TYR75      -0.0201
     25  CD1        2.5760   18.4470   17.6250 C.ar   75  TYR75      -0.0009
     26  CD2        2.7690   20.1780   19.2500 C.ar   75  TYR75      -0.0009
     27  CE1        1.5200   17.8990   18.3290 C.ar   75  TYR75       0.0417
     28  CE2        1.7120   19.6400   19.9580 C.ar   75  TYR75       0.0417
     29  CZ         1.0920   18.5000   19.4930 C.ar   75  TYR75       0.1957
     30  OH         0.0390   17.9580   20.1940 O.3    75  TYR75      -0.2866
     31  N          5.8490   20.3480   12.2400 N.3    77  ILE77      -0.1231
     32  CA         5.1700   20.6190   10.9790 C.3    77  ILE77       0.1692
     33  C          4.5940   22.0310   10.9640 C.2    77  ILE77       0.2591
     34  O          4.4280   22.6340    9.9040 O.2    77  ILE77      -0.2718
     35  CB         4.0340   19.6090   10.7410 C.3    77  ILE77       0.0266
     36  CG1        2.8270   19.9530   11.6150 C.3    77  ILE77       0.0019
     37  CG2        4.5140   18.1980   11.0450 C.3    77  ILE77       0.0020
     38  CD1        1.6770   18.9800   11.4690 C.3    77  ILE77       0.0001
     39  N          4.2830   22.5500   12.1460 N.am   78  MET78      -0.1979
     40  CA         3.7620   23.9070   12.2710 C.3    78  MET78       0.1605
     41  C          4.8350   24.9490   11.9770 C.2    78  MET78       0.2287
     42  O          4.5300   26.0680   11.5630 O.2    78  MET78      -0.2864
     43  CB         3.1920   24.1370   13.6710 C.3    78  MET78       0.0413
     44  CG         1.6810   23.9940   13.7260 C.3    78  MET78       0.0598
     45  SD         1.1370   22.5320   12.8210 S.3    78  MET78      -0.1393
     46  CE        -0.5170   23.0250   12.3440 C.3    78  MET78       0.0692
     47  N          4.2900   28.7180   11.7230 N.3    82  PHE82      -0.1241
     48  CA         4.5690   29.6180   12.8350 C.3    82  PHE82       0.1605
     49  C          5.9050   30.3300   12.6480 C.2    82  PHE82       0.2264
     50  O          6.0660   31.4840   13.0470 O.2    82  PHE82      -0.2867
     51  CB         4.5590   28.8450   14.1550 C.3    82  PHE82       0.0534
     52  CG         3.2920   28.0720   14.3890 C.ar   82  PHE82      -0.0203
     53  CD1        2.0670   28.6080   14.0320 C.ar   82  PHE82      -0.0042
     54  CD2        3.3280   26.8070   14.9500 C.ar   82  PHE82      -0.0042
     55  CE1        0.8980   27.9000   14.2350 C.ar   82  PHE82      -0.0003
     56  CE2        2.1620   26.0930   15.1590 C.ar   82  PHE82      -0.0003
     57  CZ         0.9450   26.6400   14.8000 C.ar   82  PHE82      -0.0000
     58  N          7.2930   29.1140   18.8280 N.3    87  ALA87      -0.1231
     59  CA         6.6370   28.0170   19.5320 C.3    87  ALA87       0.1694
     60  C          7.5410   26.7900   19.6240 C.2    87  ALA87       0.2592
     61  O          8.6730   26.8810   20.0990 O.2    87  ALA87      -0.2718
     62  CB         5.3240   27.6640   18.8500 C.3    87  ALA87       0.0304
     63  N          7.0370   25.6420   19.1820 N.am   88  TYR88      -0.1976
     64  CA         7.7310   24.3740   19.3800 C.3    88  TYR88       0.1639
     65  C          9.1340   24.4130   18.7860 C.2    88  TYR88       0.2290
     66  O         10.0880   23.9200   19.3880 O.2    88  TYR88      -0.2864
     67  CB         6.9390   23.2250   18.7540 C.3    88  TYR88       0.0560
     68  CG         5.5180   23.1370   19.2590 C.ar   88  TYR88      -0.0198
     69  CD1        5.1870   23.5850   20.5300 C.ar   88  TYR88      -0.0009
     70  CD2        4.5060   22.6230   18.4610 C.ar   88  TYR88      -0.0009
     71  CE1        3.8880   23.5190   20.9950 C.ar   88  TYR88       0.0417
     72  CE2        3.2040   22.5510   18.9190 C.ar   88  TYR88       0.0417
     73  CZ         2.9010   23.0000   20.1860 C.ar   88  TYR88       0.1957
     74  OH         1.6060   22.9310   20.6480 O.3    88  TYR88      -0.2866
     75  N          4.1590   31.6690   24.7050 N.3    99  LEU99      -0.1245
     76  CA         2.8120   31.1700   24.9560 C.3    99  LEU99       0.1561
     77  C          2.1630   31.9750   26.0770 C.2    99  LEU99       0.2260
     78  O          0.9810   32.3140   26.0110 O.2    99  LEU99      -0.2867
     79  CB         2.8510   29.6890   25.3390 C.3    99  LEU99       0.0270
     80  CG         3.1040   28.7030   24.1960 C.3    99  LEU99       0.0019
     81  CD1        3.6240   27.3800   24.7360 C.3    99  LEU99       0.0001
     82  CD2        1.8400   28.4870   23.3770 C.3    99  LEU99       0.0001
     83  N          1.1190   35.4840   24.9510 N.3   102  LEU102     -0.1245
     84  CA        -0.1470   35.2630   24.2630 C.3   102  LEU102      0.1561
     85  C         -1.2780   35.0240   25.2590 C.2   102  LEU102      0.2260
     86  O         -2.3170   35.6800   25.1980 O.2   102  LEU102     -0.2867
     87  CB        -0.0290   34.0790   23.3000 C.3   102  LEU102      0.0270
     88  CG        -1.3030   33.6620   22.5600 C.3   102  LEU102      0.0019
     89  CD1       -2.0970   34.8730   22.0970 C.3   102  LEU102      0.0001
     90  CD2       -0.9610   32.7630   21.3820 C.3   102  LEU102      0.0001
     91  N         -0.4470   15.9610    7.2660 N.3   182  PRO182     -0.2116
     92  CA        -0.5410   15.3510    8.5880 C.3   182  PRO182      0.1372
     93  C          0.4270   14.1920    8.8110 C.2   182  PRO182      0.2244
     94  O          0.9870   14.0640    9.8990 O.2   182  PRO182     -0.2868
     95  CB        -1.9900   14.8660    8.6440 C.3   182  PRO182      0.0268
     96  CG        -2.7280   15.8160    7.7630 C.3   182  PRO182      0.0207
     97  CD        -1.7730   16.1470    6.6500 C.3   182  PRO182      0.0892
     98  N          4.3280   14.5390   10.9480 N.3   185  VAL185     -0.1231
     99  CA         4.8280   14.5040   12.3180 C.3   185  VAL185      0.1692
    100  C          5.5180   13.1790   12.6030 C.2   185  VAL185      0.2592
    101  O          6.6350   13.1310   13.1160 O.2   185  VAL185     -0.2718
    102  CB         3.6800   14.5660   13.3380 C.3   185  VAL185      0.0266
    103  CG1        4.2350   14.6150   14.7530 C.3   185  VAL185      0.0020
    104  CG2        2.7660   15.7430   13.0420 C.3   185  VAL185      0.0020
    105  N          4.7670   12.1080   12.3730 N.am  186  PHE186     -0.1976
    106  CA         5.2530   10.7610   12.6300 C.3   186  PHE186      0.1639
    107  C          6.4760   10.4950   11.7620 C.2   186  PHE186      0.2290
    108  O          7.4290    9.8410   12.1870 O.2   186  PHE186     -0.2864
    109  CB         4.1490    9.7550   12.3060 C.3   186  PHE186      0.0560
    110  CG         2.7680   10.2650   12.6030 C.ar  186  PHE186     -0.0200
    111  CD1        2.1920   11.2440   11.8100 C.ar  186  PHE186     -0.0042
    112  CD2        2.0650    9.7980   13.6990 C.ar  186  PHE186     -0.0042
    113  CE1        0.9280   11.7280   12.0900 C.ar  186  PHE186     -0.0003
    114  CE2        0.8010   10.2760   13.9850 C.ar  186  PHE186     -0.0003
    115  CZ         0.2310   11.2430   13.1800 C.ar  186  PHE186     -0.0000
    116  N          3.3200   34.4360   16.2860 N.3   255  MET255     -0.1245
    117  CA         2.4260   34.2460   17.4230 C.3   255  MET255      0.1570
    118  C          0.9990   34.6880   17.1170 C.2   255  MET255      0.2261
    119  O          0.0450   34.1570   17.6850 O.2   255  MET255     -0.2867
    120  CB         2.9530   34.9980   18.6460 C.3   255  MET255      0.0387
    121  CG         4.0680   34.2670   19.3750 C.3   255  MET255      0.0595
    122  SD         3.6560   32.5430   19.7050 S.3   255  MET255     -0.1393
    123  CE         2.2160   32.7450   20.7500 C.3   255  MET255      0.0692
    124  N         -0.3980   31.8810   14.8530 N.3   258  ALA258     -0.1231
    125  CA        -0.6840   30.7050   15.6650 C.3   258  ALA258      0.1694
    126  C         -2.0020   30.9100   16.4030 C.2   258  ALA258      0.2591
    127  O         -2.8490   30.0190   16.4470 O.2   258  ALA258     -0.2718
    128  CB         0.4460   30.4640   16.6540 C.3   258  ALA258      0.0304
    129  N         -2.1640   32.0990   16.9740 N.am  259  ALA259     -0.1980
    130  CA        -3.3800   32.4510   17.6970 C.3   259  ALA259      0.1597
    131  C         -4.6090   32.3060   16.8070 C.2   259  ALA259      0.2287
    132  O         -5.6160   31.7210   17.2070 O.2   259  ALA259     -0.2864
    133  CB        -3.2810   33.8740   18.2260 C.3   259  ALA259      0.0319
    134  N         -4.8760   30.9630   13.5990 N.3   261  PHE261     -0.1227
    135  CA        -4.9430   29.6320   13.0100 C.3   261  PHE261      0.1736
    136  C         -5.7150   28.6470   13.8820 C.2   261  PHE261      0.2595
    137  O         -6.5720   27.9140   13.3880 O.2   261  PHE261     -0.2718
    138  CB        -3.5310   29.1010   12.7520 C.3   261  PHE261      0.0547
    139  CG        -3.5050   27.7180   12.1700 C.ar  261  PHE261     -0.0202
    140  CD1       -4.0420   27.4710   10.9180 C.ar  261  PHE261     -0.0042
    141  CD2       -2.9580   26.6640   12.8810 C.ar  261  PHE261     -0.0042
    142  CE1       -4.0280   26.1980   10.3810 C.ar  261  PHE261     -0.0003
    143  CE2       -2.9390   25.3880   12.3500 C.ar  261  PHE261     -0.0003
    144  CZ        -3.4750   25.1550   11.0980 C.ar  261  PHE261     -0.0000
    145  N         -5.4000   28.6140   15.1730 N.am  262  ALA262     -0.1980
    146  CA        -5.9710   27.6080   16.0620 C.3   262  ALA262      0.1597
    147  C         -7.4730   27.8200   16.2060 C.2   262  ALA262      0.2287
    148  O         -8.2700   26.9290   15.9120 O.2   262  ALA262     -0.2864
    149  CB        -5.3000   27.6570   17.4260 C.3   262  ALA262      0.0319
    150  N        -10.8810   25.2880   15.0300 N.3   266  THR266     -0.1218
    151  CA       -11.4130   24.6400   16.2180 C.3   266  THR266      0.1862
    152  C        -12.7550   25.2470   16.5920 C.2   266  THR266      0.2287
    153  O        -13.6730   24.5480   17.0200 O.2   266  THR266     -0.2866
    154  CB       -10.4550   24.8060   17.4050 C.3   266  THR266      0.1770
    155  OG1      -10.2350   26.1990   17.6630 O.3   266  THR266     -0.2211
    156  CG2       -9.1380   24.1380   17.0750 C.3   266  THR266      0.0375
    157  N         -9.7980   18.0800   17.4840 N.3   327  LEU327     -0.1231
    158  CA        -8.4620   17.4950   17.4770 C.3   327  LEU327      0.1693
    159  C         -8.4880   16.0820   18.0480 C.2   327  LEU327      0.2592
    160  O         -8.6010   15.8910   19.2590 O.2   327  LEU327     -0.2718
    161  CB        -7.4930   18.3600   18.2850 C.3   327  LEU327      0.0284
    162  CG        -7.3550   19.7970   17.7810 C.3   327  LEU327      0.0019
    163  CD1       -6.3940   20.5830   18.6580 C.3   327  LEU327      0.0001
    164  CD2       -6.8960   19.8000   16.3310 C.3   327  LEU327      0.0001
    165  N         -8.3620   15.0960   17.1670 N.am  328  LEU328     -0.1966
    166  CA        -8.5000   13.6970   17.5540 C.3   328  LEU328      0.1728
    167  C         -7.3740   13.2760   18.4900 C.2   328  LEU328      0.2616
    168  O         -7.5870   12.5120   19.4310 O.2   328  LEU328     -0.2715
    169  CB        -8.4860   12.8080   16.3100 C.3   328  LEU328      0.0311
    170  CG        -9.4040   13.3160   15.1990 C.3   328  LEU328      0.0022
    171  CD1       -9.5410   12.2730   14.1010 C.3   328  LEU328      0.0001
    172  CD2      -10.7610   13.6860   15.7790 C.3   328  LEU328      0.0001
    173  N         -6.1710   13.7640   18.2060 N.am  329  MET329     -0.1977
    174  CA        -4.9610   13.2140   18.8050 C.3   329  MET329      0.1605
    175  C         -4.0590   14.3210   19.3400 C.2   329  MET329      0.2287
    176  O         -3.8270   15.3300   18.6740 O.2   329  MET329     -0.2864
    177  CB        -4.1910   12.3890   17.7730 C.3   329  MET329      0.0413
    178  CG        -4.7970   11.0260   17.4830 C.3   329  MET329      0.0598
    179  SD        -4.0150    9.7080   18.4330 S.3   329  MET329     -0.1393
    180  CE        -2.3740   10.3900   18.6540 C.3   329  MET329      0.0692
    181  N         -0.0040   14.4860   21.1940 N.3   331  MET331     -0.1245
    182  CA         1.1830   13.6340   21.0950 C.3   331  MET331      0.1570
    183  C          2.4510   14.2270   21.7160 C.2   331  MET331      0.2261
    184  O          2.5400   15.4460   21.8820 O.2   331  MET331     -0.2867
    185  CB         1.4530   13.2900   19.6290 C.3   331  MET331      0.0387
    186  CG         0.2630   12.6890   18.8980 C.3   331  MET331      0.0595
    187  SD         0.0510   13.4000   17.2550 S.3   331  MET331     -0.1393
    188  CE        -1.6700   13.0160   16.9470 C.3   331  MET331      0.0692
    189  N         -5.2210   24.1110   26.6940 N.3   393  CYS393     -0.1221
    190  CA        -5.5670   25.2010   25.7980 C.3   393  CYS393      0.1808
    191  C         -5.6160   26.5320   26.5370 C.2   393  CYS393      0.2601
    192  O         -6.2210   26.6240   27.6040 O.2   393  CYS393     -0.2717
    193  CB        -6.9540   24.9120   25.2310 C.3   393  CYS393      0.0970
    194  SG        -7.3720   25.8670   23.7540 S.3   393  CYS393     -0.0800
    195  N         -5.0620   27.5810   25.9380 N.am  394  ILE394     -0.1979
    196  CA        -5.2580   28.9250   26.4690 C.3   394  ILE394      0.1595
    197  C         -6.4380   29.6310   25.8080 C.2   394  ILE394      0.2287
    198  O         -7.0930   30.4710   26.4250 O.2   394  ILE394     -0.2864
    199  CB        -4.0010   29.8020   26.3230 C.3   394  ILE394      0.0276
    200  CG1       -3.5030   29.8110   24.8770 C.3   394  ILE394      0.0022
    201  CG2       -2.9010   29.3140   27.2520 C.3   394  ILE394      0.0022
    202  CD1       -2.1600   30.4900   24.7190 C.3   394  ILE394      0.0001
    203  N        -13.1540   12.5440    8.8010 N.3   428  TYR428     -0.1241
    204  CA       -11.9270   12.3030    9.5520 C.3   428  TYR428      0.1605
    205  C        -10.7030   12.5300    8.6720 C.2   428  TYR428      0.2264
    206  O         -9.5790   12.2050    9.0550 O.2   428  TYR428     -0.2867
    207  CB       -11.9250   10.8780   10.1050 C.3   428  TYR428      0.0534
    208  CG       -13.0210   10.6370   11.1180 C.ar  428  TYR428     -0.0201
    209  CD1      -12.9020   11.1080   12.4190 C.ar  428  TYR428     -0.0009
    210  CD2      -14.1950    9.9870   10.7620 C.ar  428  TYR428     -0.0009
    211  CE1      -13.9070   10.9090   13.3450 C.ar  428  TYR428      0.0417
    212  CE2      -15.2060    9.7830   11.6820 C.ar  428  TYR428      0.0417
    213  CZ       -15.0560   10.2450   12.9720 C.ar  428  TYR428      0.1957
    214  OH       -16.0570   10.0460   13.8950 O.3   428  TYR428     -0.2866
    215  N         -9.4980   15.3350    7.4650 N.3   430  THR430     -0.1203
    216  CA        -8.8290   16.6210    7.6210 C.3   430  THR430      0.1994
    217  C         -7.9900   16.6610    8.8930 C.2   430  THR430      0.2618
    218  O         -8.2130   15.8890    9.8250 O.2   430  THR430     -0.2717
    219  CB        -9.8380   17.7830    7.6420 C.3   430  THR430      0.1784
    220  OG1      -10.9720   17.4240    8.4410 O.3   430  THR430     -0.2211
    221  CG2      -10.2960   18.1120    6.2300 C.3   430  THR430      0.0376
    222  N         -7.0020   17.5500    8.9020 N.am  431  MET431     -0.1965
    223  CA        -6.1250   17.7190   10.0540 C.3   431  MET431      0.1736
    224  C         -6.9400   18.0410   11.3010 C.2   431  MET431      0.2616
    225  O         -6.7230   17.4700   12.3700 O.2   431  MET431     -0.2715
    226  CB        -5.1330   18.8530    9.7920 C.3   431  MET431      0.0427
    227  CG        -4.3190   19.2460   11.0140 C.3   431  MET431      0.0599
    228  SD        -2.7660   20.0450   10.5700 S.3   431  MET431     -0.1393
    229  CE        -2.0190   18.7610    9.5680 C.3   431  MET431      0.0692
    230  N         -7.8670   18.9810   11.1500 N.am  432  VAL432     -0.1977
    231  CA        -8.8400   19.2840   12.1920 C.3   432  VAL432      0.1596
    232  C        -10.2140   18.8150   11.7300 C.2   432  VAL432      0.2287
    233  O        -10.6510   19.1430   10.6260 O.2   432  VAL432     -0.2864
    234  CB        -8.9100   20.7950   12.4760 C.3   432  VAL432      0.0276
    235  CG1       -9.9500   21.0850   13.5480 C.3   432  VAL432      0.0022
    236  CG2       -7.5450   21.3240   12.8870 C.3   432  VAL432      0.0022
@<TRIPOS>BOND
     1   221   219    1
     2    97    91    1
     3    97    96    1
     4    91    92    1
     5   215   216    1
     6   216   219    1
     7   216   217    1
     8   219   220    1
     9    96    95    1
    10    92    95    1
    11    92    93    1
    12   205   206    2
    13   205   204    1
    14   203   204    1
    15    93    94    2
    16   217   222   am
    17   217   218    2
    18   222   223    1
    19   204   207    1
    20   229   228    1
    21   226   223    1
    22   226   227    1
    23     1     2    1
    24    34    33    2
    25     3     4    2
    26     3     2    1
    27   223   224    1
    28   207   208    1
    29   142   140   ar
    30   142   144   ar
    31   228   227    1
    32   233   232    2
    33     2     5    1
    34    35    32    1
    35    35    37    1
    36    35    36    1
    37   210   208   ar
    38   210   212   ar
    39   140   139   ar
    40    98    99    1
    41    33    32    1
    42    33    39   am
    43    32    31    1
    44   144   143   ar
    45   208   209   ar
    46     5     6    1
    47   230   224   am
    48   230   231    1
    49   224   225    2
    50    38    36    1
    51    42    41    2
    52   212   213   ar
    53    47    48    1
    54   232   231    1
    55    18    12    1
    56    18    17    1
    57   107   108    2
    58   107   106    1
    59   111   113   ar
    60   111   110   ar
    61    41    40    1
    62   113   115   ar
    63     6     8   ar
    64     6     7   ar
    65    39    40    1
    66   139   138    1
    67   139   141   ar
    68   231   234    1
    69     8    10   ar
    70    12    13    1
    71    17    16    1
    72    40    43    1
    73   109   110    1
    74   109   106    1
    75    99   100    1
    76    99   102    1
    77    46    45    1
    78   143   141   ar
    79   105   100   am
    80   105   106    1
    81   209   211   ar
    82   234   236    1
    83   234   235    1
    84   100   101    2
    85   110   112   ar
    86    49    48    1
    87    49    50    2
    88   138   135    1
    89    45    44    1
    90    48    51    1
    91   213   211   ar
    92   213   214    1
    93     7     9   ar
    94   135   134    1
    95   135   136    1
    96   104   102    1
    97    10    11   ar
    98   115   114   ar
    99   102   103    1
   100    13    16    1
   101    13    14    1
   102   137   136    2
   103    43    44    1
   104   112   114   ar
   105   136   145   am
   106     9    11   ar
   107    53    55   ar
   108    53    52   ar
   109   171   170    1
   110    51    52    1
   111    55    57   ar
   112    52    54   ar
   113    14    15    2
   114    57    56   ar
   115   124   125    1
   116    22    21    2
   117    54    56   ar
   118   150   151    1
   119    21    20    1
   120   145   146    1
   121   170   172    1
   122   170   169    1
   123   125   126    1
   124   125   128    1
   125   148   147    2
   126   146   147    1
   127   146   149    1
   128    20    19    1
   129    20    23    1
   130   151   152    1
   131   151   154    1
   132   116   117    1
   133   169   166    1
   134   164   162    1
   135   126   127    2
   136   126   129   am
   137   152   153    2
   138   131   132    2
   139   131   130    1
   140   188   187    1
   141   129   130    1
   142   156   154    1
   143   118   117    1
   144   118   119    2
   145   165   166    1
   146   165   159   am
   147   187   186    1
   148    23    24    1
   149   154   155    1
   150   117   120    1
   151   158   157    1
   152   158   159    1
   153   158   161    1
   154   178   177    1
   155   178   179    1
   156   166   167    1
   157    25    24   ar
   158    25    27   ar
   159   130   133    1
   160   177   174    1
   161   162   161    1
   162   162   163    1
   163   159   160    2
   164    24    26   ar
   165   173   167   am
   166   173   174    1
   167    27    29   ar
   168   179   180    1
   169    70    72   ar
   170    70    68   ar
   171   167   168    2
   172   120   121    1
   173   176   175    2
   174    67    68    1
   175    67    64    1
   176    65    64    1
   177    65    66    2
   178   174   175    1
   179    58    59    1
   180    62    59    1
   181   186   185    1
   182    72    73   ar
   183    63    64    1
   184    63    60   am
   185    26    28   ar
   186    68    69   ar
   187   121   122    1
   188    29    28   ar
   189    29    30    1
   190    59    60    1
   191    60    61    2
   192   185   182    1
   193   122   123    1
   194    73    74    1
   195    73    71   ar
   196    69    71   ar
   197   182   181    1
   198   182   183    1
   199    90    88    1
   200   183   184    2
   201    89    88    1
   202    88    87    1
   203    87    84    1
   204    82    80    1
   205   194   193    1
   206    80    81    1
   207    80    79    1
   208    84    83    1
   209    84    85    1
   210    75    76    1
   211   202   200    1
   212   200   199    1
   213    76    79    1
   214    76    77    1
   215    86    85    2
   216   193   190    1
   217   190   191    1
   218   190   189    1
   219   197   198    2
   220   197   196    1
   221   195   196    1
   222   195   191   am
   223    78    77    2
   224   199   196    1
   225   199   201    1
   226   191   192    2
