@<TRIPOS>MOLECULE
tmp/5ajtB00.pdb
 66 63 0 0 0
SMALL
GASTEIGER

@<TRIPOS>ATOM
      1  N         11.1810   11.8380   76.5630 N.3     9  CYS9       -0.1221
      2  CA        10.2620   11.6330   75.4440 C.3     9  CYS9        0.1808
      3  C          8.8230   11.9990   75.7840 C.2     9  CYS9        0.2602
      4  O          8.4800   12.1990   76.9490 O.2     9  CYS9       -0.2717
      5  CB        10.3260   10.1820   74.9650 C.3     9  CYS9        0.0970
      6  SG        10.2630    8.9540   76.2800 S.3     9  CYS9       -0.0800
      7  N          7.9840   12.0740   74.7550 N.am   10  GLY10      -0.1942
      8  CA         6.6100   12.5140   74.9130 C.3    10  GLY10       0.2014
      9  C          5.6870   11.5910   75.6860 C.2    10  GLY10       0.2640
     10  O          5.8060   10.3680   75.6200 O.2    10  GLY10      -0.2714
     11  N          4.7690   12.1940   76.4370 N.am   11  SER11      -0.1935
     12  CA         3.6930   11.4600   77.0900 C.3    11  SER11       0.2055
     13  C          2.7020   10.9640   76.0450 C.2    11  SER11       0.2643
     14  O          2.0510    9.9380   76.2250 O.2    11  SER11      -0.2714
     15  CB         2.9900   12.3350   78.1310 C.3    11  SER11       0.2130
     16  OG         2.5790   13.5720   77.5760 O.3    11  SER11      -0.2179
     17  N          2.5750   11.7290   74.9660 N.am   12  SER12      -0.1949
     18  CA         1.7590   11.3440   73.8220 C.3    12  SER12       0.1924
     19  C          2.5130   10.3650   72.9240 C.2    12  SER12       0.2314
     20  O          3.7400   10.2820   72.9770 O.2    12  SER12      -0.2863
     21  CB         1.3320   12.5820   73.0300 C.3    12  SER12       0.2116
     22  OG         2.4590   13.2820   72.5360 O.3    12  SER12      -0.2180
     23  N          7.2090    7.2830   76.5280 N.3    47  MET47      -0.1245
     24  CA         7.7400    6.9700   77.8570 C.3    47  MET47       0.1570
     25  C          7.3070    5.5770   78.2900 C.2    47  MET47       0.2261
     26  O          8.1310    4.6930   78.5900 O.2    47  MET47      -0.2867
     27  CB         7.2510    7.9910   78.8880 C.3    47  MET47       0.0387
     28  CG         8.0930    9.2440   79.0230 C.3    47  MET47       0.0595
     29  SD         7.5280   10.2800   80.3890 S.3    47  MET47      -0.1393
     30  CE         6.3590   11.3500   79.5570 C.3    47  MET47       0.0692
     31  N          7.6240   17.1990   73.5190 N.3   131  GLY131     -0.1210
     32  CA         7.2220   18.5910   73.4500 C.3   131  GLY131      0.1956
     33  C          8.1240   19.5150   74.2470 C.2   131  GLY131      0.2612
     34  O          9.3320   19.2960   74.3450 O.2   131  GLY131     -0.2717
     35  N          7.5230   20.5580   74.8120 N.am  132  TYR132     -0.1962
     36  CA         8.2440   21.5960   75.5430 C.3   132  TYR132      0.1771
     37  C          9.0350   21.0610   76.7420 C.2   132  TYR132      0.2620
     38  O         10.1880   21.4510   76.9630 O.2   132  TYR132     -0.2715
     39  CB         7.2550   22.6640   76.0130 C.3   132  TYR132      0.0574
     40  CG         6.5650   23.4090   74.8880 C.ar  132  TYR132     -0.0198
     41  CD1        7.2900   23.9170   73.8170 C.ar  132  TYR132     -0.0009
     42  CD2        5.1880   23.5960   74.8940 C.ar  132  TYR132     -0.0009
     43  CE1        6.6650   24.5980   72.7880 C.ar  132  TYR132      0.0417
     44  CE2        4.5540   24.2780   73.8700 C.ar  132  TYR132      0.0417
     45  CZ         5.2970   24.7750   72.8190 C.ar  132  TYR132      0.1957
     46  OH         4.6710   25.4500   71.7960 O.3   132  TYR132     -0.2866
     47  N          8.4150   20.1650   77.5060 N.am  133  GLY133     -0.1940
     48  CA         9.0170   19.6390   78.7200 C.3   133  GLY133      0.2014
     49  C         10.2980   18.8560   78.4910 C.2   133  GLY133      0.2639
     50  O         11.3050   19.0720   79.1830 O.2   133  GLY133     -0.2714
     51  N         10.2750   17.9610   77.5060 N.am  134  THR134     -0.1950
     52  CA        11.4560   17.1670   77.1820 C.3   134  THR134      0.1897
     53  C         12.5670   18.0790   76.7060 C.2   134  THR134      0.2313
     54  O         13.7380   17.8280   76.9670 O.2   134  THR134     -0.2863
     55  CB        11.1820   16.1170   76.0910 C.3   134  THR134      0.1794
     56  OG1       10.9320   16.7790   74.8450 O.3   134  THR134     -0.2208
     57  CG2        9.9870   15.2650   76.4490 C.3   134  THR134      0.0378
     58  N         14.1310   19.6920   79.6650 N.3   137  GLU137     -0.1245
     59  CA        14.9790   18.6930   80.3120 C.3   137  GLU137      0.1567
     60  C         16.3230   18.5180   79.5930 C.2   137  GLU137      0.2260
     61  O         17.4010   18.5370   80.2170 O.2   137  GLU137     -0.2867
     62  CB        14.2300   17.3600   80.3810 C.3   137  GLU137      0.0388
     63  CG        13.3440   17.2150   81.6110 C.3   137  GLU137      0.1160
     64  CD        11.9980   16.5840   81.2980 C.2   137  GLU137      0.3649
     65  OE1       11.9660   15.4630   80.7510 O.co2 137  GLU137     -0.2457
     66  OE2       10.9630   17.2090   81.6120 O.co2 137  GLU137     -0.2457
@<TRIPOS>BOND
     1    46    45    1
     2    22    21    1
     3    43    45   ar
     4    43    41   ar
     5    45    44   ar
     6    19    20    2
     7    19    18    1
     8    21    18    1
     9    32    31    1
    10    32    33    1
    11    41    40   ar
    12    18    17    1
    13    44    42   ar
    14    33    34    2
    15    33    35   am
    16     7     8    1
    17     7     3   am
    18    35    36    1
    19    56    55    1
    20    40    42   ar
    21    40    39    1
    22     8     9    1
    23     5     2    1
    24     5     6    1
    25    17    13   am
    26     2     3    1
    27     2     1    1
    28    36    39    1
    29    36    37    1
    30    10     9    2
    31     9    11   am
    32     3     4    2
    33    13    14    2
    34    13    12    1
    35    55    57    1
    36    55    52    1
    37    11    12    1
    38    23    24    1
    39    53    54    2
    40    53    52    1
    41    37    38    2
    42    37    47   am
    43    12    15    1
    44    52    51    1
    45    47    48    1
    46    51    49   am
    47    16    15    1
    48    24    25    1
    49    24    27    1
    50    25    26    2
    51    49    48    1
    52    49    50    2
    53    27    28    1
    54    28    29    1
    55    30    29    1
    56    60    61    2
    57    60    59    1
    58    58    59    1
    59    59    62    1
    60    62    63    1
    61    65    64   ar
    62    64    63    1
    63    64    66   ar
