@<TRIPOS>MOLECULE
tmp/5ajtD00.pdb
 61 59 0 0 0
SMALL
GASTEIGER

@<TRIPOS>ATOM
      1  N          0.1090   68.6460  117.2120 N.3     9  CYS9       -0.1221
      2  CA         0.0260   69.6110  116.1230 C.3     9  CYS9        0.1808
      3  C          0.3500   71.0270  116.5900 C.2     9  CYS9        0.2602
      4  O          0.3850   71.3120  117.7880 O.2     9  CYS9       -0.2717
      5  CB        -1.3650   69.5730  115.4830 C.3     9  CYS9        0.0970
      6  SG        -2.7370   69.5840  116.6550 S.3     9  CYS9       -0.0800
      7  N          0.5780   71.9110  115.6260 N.am   10  GLY10      -0.1942
      8  CA         0.9900   73.2750  115.9020 C.3    10  GLY10       0.2014
      9  C         -0.0610   74.1510  116.5530 C.2    10  GLY10       0.2640
     10  O         -1.2580   73.9940  116.3100 O.2    10  GLY10      -0.2714
     11  N          0.3960   75.0760  117.3910 N.am   11  SER11      -0.1935
     12  CA        -0.4690   76.1040  117.9520 C.3    11  SER11       0.2055
     13  C         -0.9150   77.0680  116.8570 C.2    11  SER11       0.2643
     14  O         -1.9880   77.6620  116.9420 O.2    11  SER11      -0.2714
     15  CB         0.2420   76.8640  119.0730 C.3    11  SER11       0.2130
     16  OG         1.4990   77.3530  118.6430 O.3    11  SER11      -0.2179
     17  N         -0.0710   77.2380  115.8430 N.am   12  SER12      -0.1949
     18  CA        -0.4170   78.0530  114.6820 C.3    12  SER12       0.1924
     19  C         -1.3140   77.2860  113.7120 C.2    12  SER12       0.2314
     20  O         -1.3320   76.0550  113.7090 O.2    12  SER12      -0.2863
     21  CB         0.8490   78.5300  113.9630 C.3    12  SER12       0.2116
     22  OG         1.6110   77.4350  113.4880 O.3    12  SER12      -0.2180
     23  N         -4.6360   72.4820  117.0810 N.3    47  MET47      -0.1245
     24  CA        -4.9890   71.9090  118.3770 C.3    47  MET47       0.1570
     25  C         -6.4160   72.2970  118.7460 C.2    47  MET47       0.2261
     26  O         -7.2930   71.4410  118.9740 O.2    47  MET47      -0.2867
     27  CB        -4.0220   72.3990  119.4590 C.3    47  MET47       0.0387
     28  CG        -2.7500   71.5840  119.6040 C.3    47  MET47       0.0595
     29  SD        -1.7520   72.1170  121.0110 S.3    47  MET47      -0.1393
     30  CE        -0.6850   73.3320  120.2450 C.3    47  MET47       0.0692
     31  N          3.0360   70.5030  112.3590 N.3   130  GLY130     -0.1210
     32  CA         3.5270   71.2090  113.5260 C.3   130  GLY130      0.1956
     33  C          4.9960   71.5530  113.3980 C.2   130  GLY130      0.2612
     34  O          5.6640   71.1410  112.4490 O.2   130  GLY130     -0.2717
     35  N          5.4980   72.3150  114.3630 N.am  131  GLY131     -0.1942
     36  CA         6.8880   72.7300  114.3800 C.3   131  GLY131      0.2014
     37  C          7.7850   71.8560  115.2350 C.2   131  GLY131      0.2639
     38  O          7.5940   70.6430  115.3310 O.2   131  GLY131     -0.2714
     39  N          8.7720   72.4930  115.8550 N.am  132  TYR132     -0.1959
     40  CA         9.7890   71.8100  116.6500 C.3   132  TYR132      0.1771
     41  C          9.2360   71.0000  117.8250 C.2   132  TYR132      0.2620
     42  O          9.6620   69.8650  118.0580 O.2   132  TYR132     -0.2715
     43  CB        10.7930   72.8370  117.1770 C.3   132  TYR132      0.0574
     44  CG        11.5730   73.5470  116.0940 C.ar  132  TYR132     -0.0198
     45  CD1       12.1580   72.8380  115.0530 C.ar  132  TYR132     -0.0009
     46  CD2       11.7210   74.9290  116.1100 C.ar  132  TYR132     -0.0009
     47  CE1       12.8740   73.4840  114.0610 C.ar  132  TYR132      0.0417
     48  CE2       12.4360   75.5830  115.1230 C.ar  132  TYR132      0.0417
     49  CZ        13.0090   74.8560  114.1010 C.ar  132  TYR132      0.1957
     50  OH        13.7190   75.5020  113.1150 O.3   132  TYR132     -0.2866
     51  N          8.2890   71.5790  118.5590 N.am  133  GLY133     -0.1940
     52  CA         7.7570   70.9410  119.7510 C.3   133  GLY133      0.2014
     53  C          7.0320   69.6360  119.4810 C.2   133  GLY133      0.2639
     54  O          7.2810   68.6240  120.1470 O.2   133  GLY133     -0.2714
     55  N          6.1440   69.6530  118.4920 N.am  134  THR134     -0.1950
     56  CA         5.4150   68.4500  118.1110 C.3   134  THR134      0.1897
     57  C          6.3690   67.4090  117.5570 C.2   134  THR134      0.2313
     58  O          6.1640   66.2140  117.7400 O.2   134  THR134     -0.2863
     59  CB         4.3230   68.7390  117.0720 C.3   134  THR134      0.1794
     60  OG1        4.9320   69.1410  115.8400 O.3   134  THR134     -0.2208
     61  CG2        3.4160   69.8440  117.5590 C.3   134  THR134      0.0378
@<TRIPOS>BOND
     1    31    32    1
     2    34    33    2
     3    50    49    1
     4    33    32    1
     5    33    35   am
     6    22    21    1
     7    20    19    2
     8    19    18    1
     9    21    18    1
    10    47    49   ar
    11    47    45   ar
    12    49    48   ar
    13    35    36    1
    14    36    37    1
    15    18    17    1
    16    45    44   ar
    17    48    46   ar
    18    37    38    2
    19    37    39   am
    20     5     2    1
    21     5     6    1
    22     7     8    1
    23     7     3   am
    24    60    59    1
    25    17    13   am
    26    39    40    1
    27     8     9    1
    28    44    46   ar
    29    44    43    1
    30     2     3    1
    31     2     1    1
    32    10     9    2
    33     9    11   am
    34     3     4    2
    35    40    43    1
    36    40    41    1
    37    13    14    2
    38    13    12    1
    39    59    61    1
    40    59    56    1
    41    23    24    1
    42    11    12    1
    43    57    58    2
    44    57    56    1
    45    41    42    2
    46    41    51   am
    47    12    15    1
    48    56    55    1
    49    24    25    1
    50    24    27    1
    51    55    53   am
    52    51    52    1
    53    16    15    1
    54    25    26    2
    55    27    28    1
    56    53    52    1
    57    53    54    2
    58    28    29    1
    59    30    29    1
