@<TRIPOS>MOLECULE
tmp/5ajuA00.pdb
 97 90 0 0 0
SMALL
GASTEIGER

@<TRIPOS>ATOM
      1  N         -3.3740  -12.4790  -23.9360 N.3     9  CYS9       -0.1221
      2  CA        -4.2620  -12.6150  -25.0850 C.3     9  CYS9        0.1808
      3  C         -5.6980  -12.2730  -24.7110 C.2     9  CYS9        0.2602
      4  O         -6.0220  -12.1100  -23.5360 O.2     9  CYS9       -0.2717
      5  CB        -4.1810  -14.0260  -25.6680 C.3     9  CYS9        0.0970
      6  SG        -4.2030  -15.3400  -24.4410 S.3     9  CYS9       -0.0800
      7  N         -6.5500  -12.1520  -25.7230 N.am   10  GLY10      -0.1942
      8  CA        -7.8980  -11.6530  -25.5330 C.3    10  GLY10       0.2014
      9  C         -8.8280  -12.5580  -24.7500 C.2    10  GLY10       0.2640
     10  O         -8.6300  -13.7700  -24.6800 O.2    10  GLY10      -0.2714
     11  N         -9.8540  -11.9570  -24.1580 N.am   11  SER11      -0.1935
     12  CA       -10.8750  -12.7140  -23.4490 C.3    11  SER11       0.2055
     13  C        -11.9350  -13.1940  -24.4310 C.2    11  SER11       0.2643
     14  O        -12.8350  -13.9540  -24.0770 O.2    11  SER11      -0.2714
     15  CB       -11.5020  -11.8690  -22.3370 C.3    11  SER11       0.2130
     16  OG       -11.7400  -10.5400  -22.7700 O.3    11  SER11      -0.2179
     17  N        -11.8150  -12.7520  -25.6760 N.am   12  SER12      -0.1949
     18  CA       -12.7280  -13.1840  -26.7240 C.3    12  SER12       0.1924
     19  C        -11.9870  -14.0520  -27.7470 C.2    12  SER12       0.2314
     20  O        -10.7670  -13.9620  -27.8740 O.2    12  SER12      -0.2863
     21  CB       -13.3810  -11.9690  -27.3870 C.3    12  SER12       0.2116
     22  OG       -12.4370  -10.9350  -27.6080 O.3    12  SER12      -0.2180
     23  N         -3.7860  -14.7890  -17.2940 N.3    40  GLY40      -0.1225
     24  CA        -4.6430  -14.0140  -16.4180 C.3    40  GLY40       0.1811
     25  C         -5.9090  -14.7090  -15.9590 C.2    40  GLY40       0.2280
     26  O         -6.9010  -14.0500  -15.6440 O.2    40  GLY40      -0.2866
     27  N         -7.1420  -16.9570  -23.9170 N.3    47  MET47      -0.1245
     28  CA        -6.5810  -17.2870  -22.6100 C.3    47  MET47       0.1570
     29  C         -7.0340  -18.6720  -22.1660 C.2    47  MET47       0.2261
     30  O         -6.2150  -19.5660  -21.9110 O.2    47  MET47      -0.2867
     31  CB        -6.9940  -16.2450  -21.5680 C.3    47  MET47       0.0387
     32  CG        -6.7450  -14.8080  -21.9880 C.3    47  MET47       0.0595
     33  SD        -7.2510  -13.6120  -20.7370 S.3    47  MET47      -0.1393
     34  CE        -8.9840  -14.0280  -20.5680 C.3    47  MET47       0.0692
     35  N        -13.4990  -10.8300  -10.7140 N.3    71  LEU71      -0.1245
     36  CA       -13.8820  -11.7830  -11.7510 C.3    71  LEU71       0.1561
     37  C        -14.1350  -13.1670  -11.1660 C.2    71  LEU71       0.2260
     38  O        -14.3110  -14.1400  -11.8990 O.2    71  LEU71      -0.2867
     39  CB       -12.8060  -11.8570  -12.8350 C.3    71  LEU71       0.0270
     40  CG       -12.4530  -10.5340  -13.5170 C.3    71  LEU71       0.0019
     41  CD1      -11.5050  -10.7620  -14.6890 C.3    71  LEU71       0.0001
     42  CD2      -13.7110   -9.8000  -13.9630 C.3    71  LEU71       0.0001
     43  N         -5.8430   -5.5240   -9.5970 N.3   105  MET105     -0.1245
     44  CA        -5.2560   -5.6900  -10.9210 C.3   105  MET105      0.1570
     45  C         -3.7600   -5.4110  -10.8990 C.2   105  MET105      0.2261
     46  O         -2.9790   -6.0890  -11.5700 O.2   105  MET105     -0.2867
     47  CB        -5.9410   -4.7610  -11.9270 C.3   105  MET105      0.0387
     48  CG        -7.4520   -4.8950  -11.9770 C.3   105  MET105      0.0595
     49  SD        -7.9790   -6.4650  -12.6830 S.3   105  MET105     -0.1393
     50  CE        -7.2720   -6.3430  -14.3230 C.3   105  MET105      0.0692
     51  N         -1.9420   -8.1290   -9.3970 N.3   108  ARG108     -0.1245
     52  CA        -2.0810   -9.2290  -10.3480 C.3   108  ARG108      0.1563
     53  C         -0.9790   -9.1860  -11.4010 C.2   108  ARG108      0.2260
     54  O         -0.2090  -10.1430  -11.5560 O.2   108  ARG108     -0.2867
     55  CB        -3.4540   -9.1840  -11.0210 C.3   108  ARG108      0.0307
     56  CG        -3.6220  -10.1390  -12.1940 C.3   108  ARG108      0.0489
     57  CD        -5.0780  -10.1860  -12.6290 C.3   108  ARG108      0.2205
     58  NE        -5.2830  -10.8790  -13.8980 N.pl3 108  ARG108     -0.0865
     59  CZ        -5.4180  -10.2620  -15.0670 C.cat 108  ARG108      0.5346
     60  NH1       -5.3650   -8.9390  -15.1250 N.pl3 108  ARG108      0.1354
     61  NH2       -5.6060  -10.9620  -16.1770 N.pl3 108  ARG108      0.1354
     62  N         -7.2370   -7.3460  -27.2830 N.3   131  GLY131     -0.1210
     63  CA        -7.6580   -5.9600  -27.3930 C.3   131  GLY131      0.1956
     64  C         -6.8130   -4.9910  -26.5860 C.2   131  GLY131      0.2612
     65  O         -5.5900   -5.1170  -26.5210 O.2   131  GLY131     -0.2717
     66  N         -7.4760   -4.0250  -25.9600 N.am  132  TYR132     -0.1962
     67  CA        -6.7950   -2.9670  -25.2200 C.3   132  TYR132      0.1771
     68  C         -6.0300   -3.4830  -23.9960 C.2   132  TYR132      0.2620
     69  O         -4.9610   -2.9670  -23.6610 O.2   132  TYR132     -0.2715
     70  CB        -7.8110   -1.9040  -24.7980 C.3   132  TYR132      0.0574
     71  CG        -8.3840   -1.1090  -25.9540 C.ar  132  TYR132     -0.0198
     72  CD1       -7.5710   -0.6690  -26.9930 C.ar  132  TYR132     -0.0009
     73  CD2       -9.7370   -0.7930  -26.0040 C.ar  132  TYR132     -0.0009
     74  CE1       -8.0900    0.0650  -28.0470 C.ar  132  TYR132      0.0417
     75  CE2      -10.2640   -0.0580  -27.0540 C.ar  132  TYR132      0.0417
     76  CZ        -9.4360    0.3670  -28.0730 C.ar  132  TYR132      0.1957
     77  OH        -9.9510    1.0950  -29.1230 O.3   132  TYR132     -0.2866
     78  N         -6.5720   -4.5020  -23.3370 N.am  133  GLY133     -0.1940
     79  CA        -5.9420   -5.0590  -22.1530 C.3   133  GLY133      0.2014
     80  C         -4.6000   -5.7060  -22.4390 C.2   133  GLY133      0.2639
     81  O         -3.5960   -5.3820  -21.7990 O.2   133  GLY133     -0.2714
     82  N         -4.5860   -6.6230  -23.4020 N.am  134  THR134     -0.1950
     83  CA        -3.3700   -7.3440  -23.7570 C.3   134  THR134      0.1897
     84  C         -2.3100   -6.3920  -24.2750 C.2   134  THR134      0.2313
     85  O         -1.1220   -6.5670  -24.0140 O.2   134  THR134     -0.2863
     86  CB        -3.6350   -8.4040  -24.8240 C.3   134  THR134      0.1794
     87  OG1       -3.6180   -7.7900  -26.1180 O.3   134  THR134     -0.2208
     88  CG2       -4.9780   -9.0510  -24.5890 C.3   134  THR134      0.0378
     89  N         -0.8570   -4.5200  -21.3260 N.3   137  GLU137     -0.1245
     90  CA         0.0620   -5.4070  -20.6210 C.3   137  GLU137      0.1567
     91  C          1.3850   -5.5260  -21.3580 C.2   137  GLU137      0.2260
     92  O          2.4540   -5.4310  -20.7460 O.2   137  GLU137     -0.2867
     93  CB        -0.5640   -6.7880  -20.4370 C.3   137  GLU137      0.0388
     94  CG        -1.6860   -6.8190  -19.4050 C.3   137  GLU137      0.1160
     95  CD        -2.4650   -8.1250  -19.4160 C.2   137  GLU137      0.3649
     96  OE1       -2.6900   -8.6760  -20.5190 O.co2 137  GLU137     -0.2457
     97  OE2       -2.8540   -8.6010  -18.3230 O.co2 137  GLU137     -0.2457
@<TRIPOS>BOND
     1    77    76    1
     2    76    74   ar
     3    76    75   ar
     4    74    72   ar
     5    20    19    2
     6    19    18    1
     7    22    21    1
     8    63    62    1
     9    63    64    1
    10    21    18    1
    11    75    73   ar
    12    72    71   ar
    13    18    17    1
    14    64    65    2
    15    64    66   am
    16    87    86    1
    17    73    71   ar
    18    66    67    1
    19    71    70    1
    20     7     8    1
    21     7     3   am
    22    17    13   am
    23     5     2    1
    24     5     6    1
    25     8     9    1
    26    67    70    1
    27    67    68    1
    28     2     3    1
    29     2     1    1
    30    86    88    1
    31    86    83    1
    32     9    10    2
    33     9    11   am
    34     3     4    2
    35    13    14    2
    36    13    12    1
    37    84    85    2
    38    84    83    1
    39    11    12    1
    40    68    69    2
    41    68    78   am
    42    27    28    1
    43    83    82    1
    44    12    15    1
    45    82    80   am
    46    78    79    1
    47    16    15    1
    48    28    29    1
    49    28    31    1
    50    80    79    1
    51    80    81    2
    52    29    30    2
    53    32    31    1
    54    32    33    1
    55    91    92    2
    56    91    90    1
    57    89    90    1
    58    33    34    1
    59    90    93    1
    60    96    95   ar
    61    93    94    1
    62    95    94    1
    63    95    97   ar
    64    23    24    1
    65    24    25    1
    66    61    59    1
    67    25    26    2
    68    60    59    1
    69    59    58    2
    70    41    40    1
    71    50    49    1
    72    42    40    1
    73    58    57    1
    74    40    39    1
    75    39    36    1
    76    49    48    1
    77    57    56    1
    78    56    55    1
    79    48    47    1
    80    47    44    1
    81    38    37    2
    82    36    37    1
    83    36    35    1
    84    46    45    2
    85    54    53    2
    86    53    52    1
    87    55    52    1
    88    44    45    1
    89    44    43    1
    90    52    51    1
