@<TRIPOS>MOLECULE
tmp/5ajvA01.pdb
 191 181 0 0 0
SMALL
GASTEIGER

@<TRIPOS>ATOM
      1  N         11.5670  -30.3770   17.6840 N.3   242  ARG242     -0.1231
      2  CA        10.9540  -29.1560   18.2190 C.3   242  ARG242      0.1694
      3  C         10.0900  -29.5120   19.3950 C.2   242  ARG242      0.2592
      4  O          9.7860  -30.6790   19.5900 O.2   242  ARG242     -0.2718
      5  CB        10.0650  -28.4690   17.1880 C.3   242  ARG242      0.0321
      6  CG        10.8170  -28.0250   15.9550 C.3   242  ARG242      0.0489
      7  CD         9.9000  -27.9190   14.7560 C.3   242  ARG242      0.2205
      8  NE         8.9880  -26.7800   14.8550 N.pl3 242  ARG242     -0.0865
      9  CZ         8.1400  -26.4290   13.8920 C.cat 242  ARG242      0.5346
     10  NH1        8.0780  -27.1120   12.7640 N.pl3 242  ARG242      0.1354
     11  NH2        7.3500  -25.3940   14.0520 N.pl3 242  ARG242      0.1354
     12  N          9.7320  -28.4920   20.1730 N.am  243  HIS243     -0.1976
     13  CA         8.6470  -28.5470   21.1390 C.3   243  HIS243      0.1656
     14  C          7.3560  -29.0140   20.5260 C.2   243  HIS243      0.2291
     15  O          7.0550  -28.6630   19.3840 O.2   243  HIS243     -0.2864
     16  CB         8.3820  -27.1520   21.6320 C.3   243  HIS243      0.0771
     17  CG         8.0220  -26.2030   20.5330 C.ar  243  HIS243      0.0820
     18  ND1        6.7700  -26.1160   20.0370 N.ar  243  HIS243     -0.2267
     19  CD2        8.8100  -25.3410   19.7790 C.ar  243  HIS243      0.1154
     20  CE1        6.7550  -25.2140   19.0470 C.ar  243  HIS243      0.1986
     21  NE2        8.0070  -24.7490   18.8840 N.ar  243  HIS243     -0.2212
     22  N          2.3180  -25.7120   20.2430 N.3   246  ASN246     -0.1240
     23  CA         1.9970  -24.7430   21.2800 C.3   246  ASN246      0.1653
     24  C          0.7640  -23.9050   20.8920 C.2   246  ASN246      0.2266
     25  O          0.3490  -23.9000   19.7250 O.2   246  ASN246     -0.2867
     26  CB         3.2100  -23.8330   21.5260 C.3   246  ASN246      0.1155
     27  CG         3.5630  -22.9660   20.3080 C.2   246  ASN246      0.2627
     28  OD1        2.7020  -22.2990   19.6740 O.2   246  ASN246     -0.2716
     29  ND2        4.8450  -22.9850   19.9630 N.am  246  ASN246     -0.0877
     30  N          1.2000  -21.7890   17.7890 N.3   249  ASN249     -0.1240
     31  CA         1.1890  -22.5530   16.5680 C.3   249  ASN249      0.1653
     32  C         -0.2470  -22.7000   16.1580 C.2   249  ASN249      0.2266
     33  O         -0.5350  -22.6180   14.9670 O.2   249  ASN249     -0.2867
     34  CB         1.7170  -23.9770   16.7150 C.3   249  ASN249      0.1155
     35  CG         3.1760  -24.0580   17.0610 C.2   249  ASN249      0.2627
     36  OD1        4.0340  -23.3440   16.5060 O.2   249  ASN249     -0.2716
     37  ND2        3.4840  -25.0030   17.9400 N.am  249  ASN249     -0.0877
     38  N          0.6200  -18.1540   14.8090 N.3   253  ARG253     -0.1231
     39  CA         1.3020  -16.9350   15.2020 C.3   253  ARG253      0.1694
     40  C          2.7590  -17.2120   15.5130 C.2   253  ARG253      0.2592
     41  O          3.0950  -18.2570   16.0800 O.2   253  ARG253     -0.2718
     42  CB         0.6500  -16.3480   16.4540 C.3   253  ARG253      0.0321
     43  CG        -0.5080  -15.4110   16.1620 C.3   253  ARG253      0.0489
     44  CD        -1.1970  -14.8370   17.4120 C.3   253  ARG253      0.2205
     45  NE        -2.4180  -14.1600   16.9960 N.pl3 253  ARG253     -0.0865
     46  CZ        -2.4540  -12.9880   16.3680 C.cat 253  ARG253      0.5346
     47  NH1       -1.3410  -12.3180   16.1150 N.pl3 253  ARG253      0.1354
     48  NH2       -3.6090  -12.4680   15.9880 N.pl3 253  ARG253      0.1354
     49  N          3.6200  -16.2520   15.1820 N.am  254  ILE254     -0.1966
     50  CA         5.0460  -16.4940   15.2920 C.3   254  ILE254      0.1727
     51  C          5.5890  -15.9210   16.5820 C.2   254  ILE254      0.2616
     52  O          5.0390  -14.9810   17.1190 O.2   254  ILE254     -0.2715
     53  CB         5.8440  -16.0120   14.0570 C.3   254  ILE254      0.0290
     54  CG1        5.9060  -14.4960   13.9650 C.3   254  ILE254      0.0022
     55  CG2        5.2620  -16.6090   12.7780 C.3   254  ILE254      0.0023
     56  CD1        6.9230  -14.0110   12.9510 C.3   254  ILE254      0.0001
     57  N          6.6650  -16.5230   17.0770 N.am  255  GLY255     -0.1955
     58  CA         7.3130  -16.0560   18.2760 C.3   255  GLY255      0.1869
     59  C          6.4720  -16.2510   19.5130 C.2   255  GLY255      0.2309
     60  O          5.6200  -17.1400   19.5820 O.2   255  GLY255     -0.2863
     61  N         14.0880  -19.5050   19.8640 N.3   312  GLU312     -0.1231
     62  CA        13.7520  -19.2850   18.4540 C.3   312  GLU312      0.1699
     63  C         14.1690  -17.8830   17.9690 C.2   312  GLU312      0.2592
     64  O         14.3800  -16.9890   18.7430 O.2   312  GLU312     -0.2718
     65  CB        12.2750  -19.5540   18.2020 C.3   312  GLU312      0.0402
     66  CG        11.8070  -19.4460   16.7480 C.3   312  GLU312      0.1161
     67  CD        12.3850  -20.4850   15.7740 C.2   312  GLU312      0.3649
     68  OE1       13.6220  -20.5580   15.5710 O.co2 312  GLU312     -0.2457
     69  OE2       11.5740  -21.2390   15.1710 O.co2 312  GLU312     -0.2457
     70  N         14.3630  -17.7500   16.6670 N.am  313  ILE313     -0.1980
     71  CA        14.6910  -16.4880   16.0200 C.3   313  ILE313      0.1595
     72  C         13.7830  -15.3990   16.5780 C.2   313  ILE313      0.2287
     73  O         12.6010  -15.6170   16.7840 O.2   313  ILE313     -0.2864
     74  CB        14.5730  -16.6280   14.4530 C.3   313  ILE313      0.0276
     75  CG1       15.2560  -15.4760   13.6920 C.3   313  ILE313      0.0022
     76  CG2       13.1300  -16.7470   13.9900 C.3   313  ILE313      0.0022
     77  CD1       15.3960  -15.7370   12.2010 C.3   313  ILE313      0.0001
     78  N         11.5970  -12.3130   16.1440 N.3   315  ALA315     -0.1245
     79  CA        10.8800  -11.6430   15.0330 C.3   315  ALA315      0.1562
     80  C         10.7460  -10.1300   15.2150 C.2   315  ALA315      0.2260
     81  O         10.1060   -9.4740   14.3940 O.2   315  ALA315     -0.2867
     82  CB         9.5080  -12.2590   14.8250 C.3   315  ALA315      0.0290
     83  N          1.4100  -14.4290    9.9490 N.3   323  TYR323     -0.1241
     84  CA         2.0720  -14.1070    8.6700 C.3   323  TYR323      0.1605
     85  C          1.1960  -13.1460    7.8640 C.2   323  TYR323      0.2264
     86  O          1.7130  -12.2050    7.2550 O.2   323  TYR323     -0.2867
     87  CB         2.4100  -15.3810    7.8580 C.3   323  TYR323      0.0534
     88  CG         3.6650  -16.1530    8.3090 C.ar  323  TYR323     -0.0201
     89  CD1        4.9440  -15.6120    8.1460 C.ar  323  TYR323     -0.0009
     90  CD2        3.5730  -17.4330    8.8690 C.ar  323  TYR323     -0.0009
     91  CE1        6.0850  -16.3060    8.5470 C.ar  323  TYR323      0.0417
     92  CE2        4.7080  -18.1380    9.2690 C.ar  323  TYR323      0.0417
     93  CZ         5.9640  -17.5750    9.1160 C.ar  323  TYR323      0.1957
     94  OH         7.1070  -18.2610    9.5090 O.3   323  TYR323     -0.2866
     95  N         11.9520  -10.0640    3.0790 N.3   337  ARG337     -0.1245
     96  CA        12.1870  -11.3490    3.7140 C.3   337  ARG337      0.1563
     97  C         12.1580  -12.4730    2.6760 C.2   337  ARG337      0.2260
     98  O         13.1150  -13.2490    2.5800 O.2   337  ARG337     -0.2867
     99  CB        11.2190  -11.6230    4.8600 C.3   337  ARG337      0.0307
    100  CG        11.6940  -12.7720    5.7430 C.3   337  ARG337      0.0489
    101  CD        10.9110  -12.8900    7.0340 C.3   337  ARG337      0.2205
    102  NE        11.6830  -13.6220    8.0280 N.pl3 337  ARG337     -0.0865
    103  CZ        11.6140  -14.9280    8.2890 C.cat 337  ARG337      0.5346
    104  NH1       10.7640  -15.7090    7.6670 N.pl3 337  ARG337      0.1354
    105  NH2       12.4020  -15.4530    9.2240 N.pl3 337  ARG337      0.1354
    106  N         15.8560  -14.6880    2.6300 N.3   341  LYS341     -0.1245
    107  CA        15.4430  -15.2310    3.9160 C.3   341  LYS341      0.1561
    108  C         16.6000  -15.4900    4.9030 C.2   341  LYS341      0.2260
    109  O         16.4090  -15.4280    6.1280 O.2   341  LYS341     -0.2867
    110  CB        14.5830  -16.4950    3.6940 C.3   341  LYS341      0.0271
    111  CG        13.7230  -16.9080    4.8940 C.3   341  LYS341      0.0035
    112  CD        12.7760  -18.1030    4.6360 C.3   341  LYS341      0.0206
    113  CE        11.8540  -18.3780    5.8280 C.3   341  LYS341      0.1093
    114  NZ        11.3100  -19.7460    5.8240 N.3   341  LYS341     -0.1314
    115  N         14.5950   -9.0110   11.0180 N.3   346  TYR346     -0.1241
    116  CA        13.3800   -8.2830   11.4100 C.3   346  TYR346      0.1605
    117  C         13.7750   -6.9910   12.0820 C.2   346  TYR346      0.2264
    118  O         14.8100   -6.9280   12.7160 O.2   346  TYR346     -0.2867
    119  CB        12.5360   -9.0780   12.4130 C.3   346  TYR346      0.0534
    120  CG        11.7550  -10.2160   11.8220 C.ar  346  TYR346     -0.0201
    121  CD1       10.5500   -9.9920   11.1560 C.ar  346  TYR346     -0.0009
    122  CD2       12.2040  -11.5190   11.9330 C.ar  346  TYR346     -0.0009
    123  CE1        9.8310  -11.0470   10.6030 C.ar  346  TYR346      0.0417
    124  CE2       11.4870  -12.5820   11.3850 C.ar  346  TYR346      0.0417
    125  CZ        10.3090  -12.3420   10.7200 C.ar  346  TYR346      0.1957
    126  OH         9.6220  -13.3900   10.1830 O.3   346  TYR346     -0.2866
    127  N         18.6090  -15.3760   10.0840 N.3   352  TYR352     -0.1241
    128  CA        19.1600  -16.7390   10.2600 C.3   352  TYR352      0.1605
    129  C         20.6830  -16.6890   10.5290 C.2   352  TYR352      0.2264
    130  O         21.2370  -17.3590   11.4100 O.2   352  TYR352     -0.2867
    131  CB        18.8520  -17.6100    9.0490 C.3   352  TYR352      0.0534
    132  CG        17.5240  -18.3610    9.1200 C.ar  352  TYR352     -0.0201
    133  CD1       16.3290  -17.7410    8.7990 C.ar  352  TYR352     -0.0009
    134  CD2       17.4670  -19.6980    9.4810 C.ar  352  TYR352     -0.0009
    135  CE1       15.1180  -18.4220    8.8530 C.ar  352  TYR352      0.0417
    136  CE2       16.2600  -20.3800    9.5270 C.ar  352  TYR352      0.0417
    137  CZ        15.0880  -19.7350    9.2100 C.ar  352  TYR352      0.1957
    138  OH        13.8830  -20.4010    9.2540 O.3   352  TYR352     -0.2866
    139  N         13.4110  -25.1910   18.2940 N.3   377  HIS377     -0.1226
    140  CA        12.4120  -24.4470   17.5730 C.3   377  HIS377      0.1752
    141  C         12.6600  -24.6170   16.1130 C.2   377  HIS377      0.2596
    142  O         13.6910  -25.1360   15.7550 O.2   377  HIS377     -0.2718
    143  CB        12.5000  -23.0010   17.9910 C.3   377  HIS377      0.0759
    144  CG        12.1930  -22.7860   19.4420 C.ar  377  HIS377      0.0818
    145  ND1       10.9440  -22.7610   19.9050 N.ar  377  HIS377     -0.2268
    146  CD2       13.0290  -22.6230   20.5560 C.ar  377  HIS377      0.1154
    147  CE1       10.9610  -22.5860   21.2520 C.ar  377  HIS377      0.1986
    148  NE2       12.2310  -22.4950   21.6500 N.ar  377  HIS377     -0.2212
    149  N         11.7410  -24.1860   15.2530 N.am  378  GLN378     -0.1965
    150  CA        11.8600  -24.4080   13.8070 C.3   378  GLN378      0.1733
    151  C         13.1260  -23.8220   13.1650 C.2   378  GLN378      0.2616
    152  O         13.9060  -24.5650   12.5760 O.2   378  GLN378     -0.2715
    153  CB        10.6370  -23.8940   13.0660 C.3   378  GLN378      0.0408
    154  CG        10.4470  -24.5040   11.6750 C.3   378  GLN378      0.0908
    155  CD         9.2280  -23.9670   10.9200 C.2   378  GLN378      0.2608
    156  OE1        8.7350  -24.5810    9.9680 O.2   378  GLN378     -0.2717
    157  NE2        8.7560  -22.8150   11.3330 N.am  378  GLN378     -0.0878
    158  N         13.3460  -22.5100   13.2490 N.am  379  ALA379     -0.1977
    159  CA        14.5780  -21.8950   12.6660 C.3   379  ALA379      0.1597
    160  C         15.8580  -22.4090   13.3640 C.2   379  ALA379      0.2287
    161  O         16.8480  -22.7740   12.7180 O.2   379  ALA379     -0.2864
    162  CB        14.5100  -20.3710   12.7040 C.3   379  ALA379      0.0319
    163  N         16.5310  -25.6810   11.8930 N.3   382  ARG382     -0.1245
    164  CA        17.0950  -25.5920   10.5250 C.3   382  ARG382      0.1563
    165  C         18.5970  -25.3420   10.5000 C.2   382  ARG382      0.2260
    166  O         19.3180  -26.0400    9.8410 O.2   382  ARG382     -0.2867
    167  CB        16.3950  -24.5030    9.7420 C.3   382  ARG382      0.0307
    168  CG        15.0080  -24.9080    9.4020 C.3   382  ARG382      0.0489
    169  CD        14.2700  -23.7670    8.7890 C.3   382  ARG382      0.2205
    170  NE        13.1170  -24.3010    8.0770 N.pl3 382  ARG382     -0.0865
    171  CZ        11.9250  -23.7340    8.0040 C.cat 382  ARG382      0.5346
    172  NH1       11.6410  -22.5770    8.5850 N.pl3 382  ARG382      0.1354
    173  NH2       11.0050  -24.3650    7.3310 N.pl3 382  ARG382      0.1354
    174  N          3.3770  -25.8790   10.3500 N.3   430  THR430     -0.1218
    175  CA         3.9470  -24.5320   10.3760 C.3   430  THR430      0.1862
    176  C          5.0170  -24.2840    9.2570 C.2   430  THR430      0.2287
    177  O          5.8510  -23.3950    9.3830 O.2   430  THR430     -0.2866
    178  CB         4.5410  -24.2280   11.7720 C.3   430  THR430      0.1770
    179  OG1        5.7480  -24.9840   11.9460 O.3   430  THR430     -0.2211
    180  CG2        3.5370  -24.5620   12.8750 C.3   430  THR430      0.0375
    181  N          5.9200  -23.3840    5.0190 N.3   432  ARG432     -0.1245
    182  CA         5.4190  -22.5500    3.9240 C.3   432  ARG432      0.1563
    183  C          6.4440  -22.6450    2.7730 C.2   432  ARG432      0.2260
    184  O          7.6250  -22.2880    2.9530 O.2   432  ARG432     -0.2867
    185  CB         5.2530  -21.1200    4.4190 C.3   432  ARG432      0.0307
    186  CG         6.3040  -20.7450    5.4540 C.3   432  ARG432      0.0489
    187  CD         6.0260  -19.3950    6.0700 C.3   432  ARG432      0.2205
    188  NE         6.1010  -18.3290    5.0720 N.pl3 432  ARG432     -0.0865
    189  CZ         5.0860  -17.5660    4.6670 C.cat 432  ARG432      0.5346
    190  NH1        3.8580  -17.7040    5.1720 N.pl3 432  ARG432      0.1354
    191  NH2        5.3110  -16.6350    3.7480 N.pl3 432  ARG432      0.1354
@<TRIPOS>BOND
     1    98    97    2
     2   106   107    1
     3    97    96    1
     4   183   184    2
     5   183   182    1
     6    95    96    1
     7   110   107    1
     8   110   111    1
     9    96    99    1
    10   191   189    1
    11   107   108    1
    12   182   185    1
    13   182   181    1
    14   185   186    1
    15   112   111    1
    16   112   113    1
    17   189   188    2
    18   189   190    1
    19    99   100    1
    20   108   109    2
    21   188   187    1
    22   186   187    1
    23   100   101    1
    24   114   113    1
    25   101   102    1
    26    86    85    2
    27   173   171    1
    28   104   103    1
    29    87    88    1
    30    87    84    1
    31    85    84    1
    32   171   170    2
    33   171   172    1
    34   102   103    2
    35   170   169    1
    36    89    88   ar
    37    89    91   ar
    38   103   105    1
    39    88    90   ar
    40    91    93   ar
    41    84    83    1
    42   169   168    1
    43   133   135   ar
    44   133   132   ar
    45   135   137   ar
    46    90    92   ar
    47   131   132    1
    48   131   128    1
    49    93    92   ar
    50    93    94    1
    51   132   134   ar
    52   137   138    1
    53   137   136   ar
    54   176   177    2
    55   176   175    1
    56   168   167    1
    57   134   136   ar
    58   167   164    1
    59   166   165    2
    60   156   155    2
    61   127   128    1
    62   126   125    1
    63   128   129    1
    64   174   175    1
    65   175   178    1
    66   165   164    1
    67   164   163    1
    68   129   130    2
    69   123   125   ar
    70   123   121   ar
    71   125   124   ar
    72   155   157   am
    73   155   154    1
    74   115   116    1
    75   121   120   ar
    76   124   122   ar
    77   116   117    1
    78   116   119    1
    79   154   153    1
    80   178   179    1
    81   178   180    1
    82   120   122   ar
    83   120   119    1
    84   117   118    2
    85    77    75    1
    86   152   151    2
    87   159   162    1
    88   159   158    1
    89   159   160    1
    90   161   160    2
    91    10     9    1
    92    55    53    1
    93    56    54    1
    94   153   150    1
    95   151   158   am
    96   151   150    1
    97    75    74    1
    98   150   149    1
    99     9    11    1
   100     9     8    2
   101    54    53    1
   102    76    74    1
   103    53    50    1
   104    81    80    2
   105    74    71    1
   106     7     8    1
   107     7     6    1
   108    38    39    1
   109    82    79    1
   110    33    32    2
   111    79    80    1
   112    79    78    1
   113    69    67   ar
   114    49    50    1
   115    49    40   am
   116    39    40    1
   117    39    42    1
   118   149   141   am
   119    50    51    1
   120    40    41    2
   121    68    67   ar
   122   142   141    2
   123    67    66    1
   124     6     5    1
   125    48    46    1
   126    71    72    1
   127    71    70    1
   128   141   140    1
   129    47    46    1
   130    32    31    1
   131    43    42    1
   132    43    44    1
   133    46    45    2
   134    36    35    2
   135    31    34    1
   136    31    30    1
   137    72    73    2
   138    51    57   am
   139    51    52    2
   140    70    63   am
   141    34    35    1
   142    66    65    1
   143    45    44    1
   144    35    37   am
   145    57    58    1
   146     5     2    1
   147   140   143    1
   148   140   139    1
   149     1     2    1
   150    63    62    1
   151    63    64    2
   152   143   144    1
   153    65    62    1
   154     2     3    1
   155    58    59    1
   156    62    61    1
   157    21    20   ar
   158    21    19   ar
   159    20    18   ar
   160    15    14    2
   161     3     4    2
   162     3    12   am
   163   144   145   ar
   164   144   146   ar
   165    59    60    2
   166    28    27    2
   167    25    24    2
   168    19    17   ar
   169   145   147   ar
   170    29    27   am
   171    18    17   ar
   172    12    13    1
   173    22    23    1
   174    27    26    1
   175    14    13    1
   176    17    16    1
   177   146   148   ar
   178    24    23    1
   179    13    16    1
   180   147   148   ar
   181    23    26    1
