@<TRIPOS>MOLECULE
tmp/5ajvA00.pdb
 163 155 0 0 0
SMALL
GASTEIGER

@<TRIPOS>ATOM
      1  N         45.1650  -43.6180    5.2360 N.3    34  ALA34      -0.1231
      2  CA        44.3650  -44.2010    6.3300 C.3    34  ALA34       0.1694
      3  C         44.6440  -43.5040    7.6430 C.2    34  ALA34       0.2592
      4  O         44.5810  -44.1360    8.6770 O.2    34  ALA34      -0.2718
      5  CB        44.6210  -45.7070    6.4890 C.3    34  ALA34       0.0304
      6  N         44.9810  -42.2220    7.6040 N.am   35  ARG35      -0.1966
      7  CA        45.1930  -41.4390    8.8330 C.3    35  ARG35       0.1729
      8  C         44.1180  -40.3800    9.1270 C.2    35  ARG35       0.2616
      9  O         44.2870  -39.5810   10.0460 O.2    35  ARG35      -0.2715
     10  CB        46.5450  -40.7580    8.7830 C.3    35  ARG35       0.0348
     11  CG        47.5910  -41.5210    9.5070 C.3    35  ARG35       0.0492
     12  CD        47.9800  -42.7680    8.7570 C.3    35  ARG35       0.2205
     13  NE        48.9650  -43.5000    9.5440 N.pl3  35  ARG35      -0.0865
     14  CZ        49.4180  -44.7100    9.2630 C.cat  35  ARG35       0.5346
     15  NH1       49.0220  -45.3640    8.1820 N.pl3  35  ARG35       0.1354
     16  NH2       50.2680  -45.2730   10.0830 N.pl3  35  ARG35       0.1354
     17  N         43.0450  -40.3770    8.3370 N.am   36  GLY36      -0.1955
     18  CA        41.8990  -39.5250    8.5820 C.3    36  GLY36       0.1869
     19  C         42.1100  -38.1070    8.1310 C.2    36  GLY36       0.2309
     20  O         41.4500  -37.1850    8.6030 O.2    36  GLY36      -0.2863
     21  N         38.9040  -37.0060    6.4700 N.3    39  TYR39      -0.1227
     22  CA        37.8880  -36.8680    7.5080 C.3    39  TYR39       0.1736
     23  C         38.0740  -35.5820    8.2770 C.2    39  TYR39       0.2595
     24  O         37.1310  -34.8530    8.5040 O.2    39  TYR39      -0.2718
     25  CB        37.9880  -38.0210    8.4730 C.3    39  TYR39       0.0548
     26  CG        36.9820  -37.9750    9.5580 C.ar   39  TYR39      -0.0200
     27  CD1       37.2640  -37.3100   10.7470 C.ar   39  TYR39      -0.0009
     28  CD2       35.7360  -38.6110    9.4200 C.ar   39  TYR39      -0.0009
     29  CE1       36.3330  -37.2600   11.7630 C.ar   39  TYR39       0.0417
     30  CE2       34.7970  -38.5720   10.4430 C.ar   39  TYR39       0.0417
     31  CZ        35.1010  -37.8840   11.6060 C.ar   39  TYR39       0.1957
     32  OH        34.2080  -37.7880   12.6440 O.3    39  TYR39      -0.2866
     33  N         39.2930  -35.3010    8.7040 N.am   40  ILE40      -0.1980
     34  CA        39.5770  -34.0340    9.3110 C.3    40  ILE40       0.1595
     35  C         39.3080  -32.9570    8.3000 C.2    40  ILE40       0.2287
     36  O         38.8970  -31.8830    8.6570 O.2    40  ILE40      -0.2864
     37  CB        41.0360  -33.9380    9.7240 C.3    40  ILE40       0.0276
     38  CG1       41.3080  -34.8770   10.8940 C.3    40  ILE40       0.0022
     39  CG2       41.3800  -32.5200   10.1420 C.3    40  ILE40       0.0022
     40  CD1       42.7640  -35.1120   11.1300 C.3    40  ILE40       0.0001
     41  N         48.3760  -35.6080   10.7530 N.3   142  SER142     -0.1217
     42  CA        47.7790  -36.6670   11.5660 C.3   142  SER142      0.1889
     43  C         48.7290  -37.8470   11.5680 C.2   142  SER142      0.2288
     44  O         49.0530  -38.3670   10.5260 O.2   142  SER142     -0.2866
     45  CB        46.4430  -37.0960   10.9810 C.3   142  SER142      0.2089
     46  OG        46.0310  -38.3580   11.4610 O.3   142  SER142     -0.2183
     47  N         49.6890  -41.5630   13.4110 N.3   144  CYS144     -0.1235
     48  CA        49.2910  -42.7150   14.2360 C.3   144  CYS144      0.1677
     49  C         49.8920  -44.0060   13.7500 C.2   144  CYS144      0.2270
     50  O         49.8650  -44.2680   12.5520 O.2   144  CYS144     -0.2867
     51  CB        47.7870  -42.9020   14.2110 C.3   144  CYS144      0.0956
     52  SG        47.3540  -44.2990   15.2400 S.3   144  CYS144     -0.0801
     53  N         43.8910  -48.9430   14.4260 N.3   149  VAL149     -0.1231
     54  CA        43.2950  -47.7240   13.8980 C.3   149  VAL149      0.1692
     55  C         43.3190  -47.6830   12.3570 C.2   149  VAL149      0.2591
     56  O         42.3840  -47.1470   11.7270 O.2   149  VAL149     -0.2718
     57  CB        43.9800  -46.4790   14.4690 C.3   149  VAL149      0.0266
     58  CG1       43.5580  -45.2320   13.6840 C.3   149  VAL149      0.0020
     59  CG2       43.6990  -46.3960   15.9640 C.3   149  VAL149      0.0020
     60  N         44.3660  -48.2440   11.7440 N.am  150  VAL150     -0.1980
     61  CA        44.4860  -48.1470   10.2910 C.3   150  VAL150      0.1595
     62  C         43.5180  -49.1090    9.6410 C.2   150  VAL150      0.2287
     63  O         42.7880  -48.7500    8.7240 O.2   150  VAL150     -0.2864
     64  CB        45.9130  -48.4010    9.8130 C.3   150  VAL150      0.0276
     65  CG1       45.9720  -48.3360    8.3080 C.3   150  VAL150      0.0022
     66  CG2       46.8510  -47.3710   10.4220 C.3   150  VAL150      0.0022
     67  N         40.0900  -47.6850    9.6430 N.3   153  ASN153     -0.1240
     68  CA        39.9120  -46.6940    8.5830 C.3   153  ASN153      0.1653
     69  C         39.6900  -47.3680    7.2270 C.2   153  ASN153      0.2266
     70  O         38.7290  -47.0670    6.5020 O.2   153  ASN153     -0.2867
     71  CB        41.1560  -45.8210    8.5250 C.3   153  ASN153      0.1155
     72  CG        41.0480  -44.6650    7.5230 C.2   153  ASN153      0.2627
     73  OD1       40.7000  -44.8360    6.3350 O.2   153  ASN153     -0.2716
     74  ND2       41.4040  -43.4650    7.9970 N.am  153  ASN153     -0.0877
     75  N         48.4230  -33.7990   15.0890 N.3   204  VAL204     -0.1245
     76  CA        47.4810  -34.6770   15.7880 C.3   204  VAL204      0.1561
     77  C         48.0830  -36.0740   15.9970 C.2   204  VAL204      0.2260
     78  O         48.4350  -36.7580   15.0240 O.2   204  VAL204     -0.2867
     79  CB        46.1970  -34.8850   14.9830 C.3   204  VAL204      0.0252
     80  CG1       45.2140  -35.7100   15.8030 C.3   204  VAL204      0.0019
     81  CG2       45.5990  -33.5510   14.5840 C.3   204  VAL204      0.0019
     82  N         44.9760  -40.0920   17.0810 N.3   207  VAL207     -0.1231
     83  CA        43.5460  -39.8130   16.9860 C.3   207  VAL207      0.1692
     84  C         43.1500  -38.9420   18.1740 C.2   207  VAL207      0.2592
     85  O         42.1660  -39.1850   18.8440 O.2   207  VAL207     -0.2718
     86  CB        42.7000  -41.1320   16.8910 C.3   207  VAL207      0.0266
     87  CG1       41.3630  -40.8740   16.2190 C.3   207  VAL207      0.0020
     88  CG2       43.4390  -42.2050   16.0980 C.3   207  VAL207      0.0020
     89  N         43.9570  -37.9290   18.4540 N.am  208  GLY208     -0.1957
     90  CA        43.5890  -36.8990   19.4410 C.3   208  GLY208      0.1869
     91  C         43.9750  -37.1190   20.8920 C.2   208  GLY208      0.2309
     92  O         43.6400  -36.3010   21.7540 O.2   208  GLY208     -0.2863
     93  N         48.6710  -33.5660   21.1860 N.3   211  PHE211     -0.1241
     94  CA        48.9110  -32.5710   20.1420 C.3   211  PHE211      0.1605
     95  C         50.0940  -31.6940   20.3590 C.2   211  PHE211      0.2264
     96  O         50.3330  -31.1800   21.4410 O.2   211  PHE211     -0.2867
     97  CB        47.7760  -31.5960   20.0390 C.3   211  PHE211      0.0534
     98  CG        46.4460  -32.2190   19.8210 C.ar  211  PHE211     -0.0203
     99  CD1       45.7440  -32.7610   20.8870 C.ar  211  PHE211     -0.0042
    100  CD2       45.8650  -32.2230   18.5600 C.ar  211  PHE211     -0.0042
    101  CE1       44.5060  -33.3210   20.6920 C.ar  211  PHE211     -0.0003
    102  CE2       44.6140  -32.7720   18.3630 C.ar  211  PHE211     -0.0003
    103  CZ        43.9340  -33.3190   19.4310 C.ar  211  PHE211     -0.0000
    104  N         39.5730  -28.8220   16.9950 N.3   228  LEU228     -0.1231
    105  CA        40.1720  -30.1620   16.9880 C.3   228  LEU228      0.1693
    106  C         40.2370  -30.7870   18.3970 C.2   228  LEU228      0.2592
    107  O         40.1770  -32.0110   18.5560 O.2   228  LEU228     -0.2718
    108  CB        41.5480  -30.1740   16.3070 C.3   228  LEU228      0.0284
    109  CG        41.5480  -30.0390   14.7720 C.3   228  LEU228      0.0019
    110  CD1       42.9730  -29.8720   14.2190 C.3   228  LEU228      0.0001
    111  CD2       40.8160  -31.2000   14.1130 C.3   228  LEU228      0.0001
    112  N         40.3000  -29.9570   19.4240 N.am  229  MET229     -0.1965
    113  CA        40.2790  -30.5110   20.7590 C.3   229  MET229      0.1736
    114  C         38.9260  -30.8740   21.2160 C.2   229  MET229      0.2616
    115  O         38.7900  -31.6470   22.1400 O.2   229  MET229     -0.2715
    116  CB        40.8930  -29.5660   21.7490 C.3   229  MET229      0.0427
    117  CG        42.3010  -30.0350   22.0380 C.3   229  MET229      0.0599
    118  SD        43.3860  -28.6660   21.8600 S.3   229  MET229     -0.1393
    119  CE        42.6130  -27.6260   23.1040 C.3   229  MET229      0.0692
    120  N         37.9190  -30.3240   20.5560 N.am  230  ASN230     -0.1958
    121  CA        36.5500  -30.6620   20.8820 C.3   230  ASN230      0.1819
    122  C         35.9520  -31.8360   20.1200 C.2   230  ASN230      0.2621
    123  O         35.0990  -32.5140   20.6850 O.2   230  ASN230     -0.2715
    124  CB        35.6860  -29.4230   20.7900 C.3   230  ASN230      0.1195
    125  CG        36.0580  -28.4080   21.8390 C.2   230  ASN230      0.2630
    126  OD1       36.4170  -28.7590   22.9630 O.2   230  ASN230     -0.2716
    127  ND2       36.0000  -27.1420   21.4760 N.am  230  ASN230     -0.0877
    128  N         36.3890  -32.1080   18.8840 N.am  231  ILE231     -0.1963
    129  CA        35.8390  -33.2840   18.1870 C.3   231  ILE231      0.1727
    130  C         36.3490  -34.6210   18.7620 C.2   231  ILE231      0.2616
    131  O         37.2520  -34.6620   19.6160 O.2   231  ILE231     -0.2715
    132  CB        35.9870  -33.2490   16.6520 C.3   231  ILE231      0.0290
    133  CG1       37.4300  -33.3780   16.2310 C.3   231  ILE231      0.0022
    134  CG2       35.3520  -31.9860   16.0830 C.3   231  ILE231      0.0023
    135  CD1       37.5700  -33.2620   14.7230 C.3   231  ILE231      0.0001
    136  N         35.6880  -35.6990   18.3320 N.am  232  HIS232     -0.1959
    137  CA        36.0710  -37.0650   18.6610 C.3   232  HIS232      0.1787
    138  C         35.4650  -38.0460   17.6820 C.2   232  HIS232      0.2620
    139  O         34.7190  -37.6570   16.7930 O.2   232  HIS232     -0.2715
    140  CB        35.6260  -37.3640   20.0550 C.3   232  HIS232      0.0785
    141  CG        34.1610  -37.4710   20.1920 C.ar  232  HIS232      0.0821
    142  ND1       33.4850  -38.5490   19.7810 N.ar  232  HIS232     -0.2267
    143  CD2       33.2380  -36.6010   20.7440 C.ar  232  HIS232      0.1154
    144  CE1       32.1800  -38.3680   20.0330 C.ar  232  HIS232      0.1986
    145  NE2       32.0300  -37.1730   20.6260 N.ar  232  HIS232     -0.2212
    146  N         35.7820  -39.3260   17.8040 N.am  233  VAL233     -0.1977
    147  CA        35.2990  -40.3200   16.8140 C.3   233  VAL233      0.1596
    148  C         34.5180  -41.4830   17.4140 C.2   233  VAL233      0.2287
    149  O         34.1060  -42.4050   16.7140 O.2   233  VAL233     -0.2864
    150  CB        36.4520  -40.8310   15.9330 C.3   233  VAL233      0.0276
    151  CG1       36.7830  -39.7500   14.8980 C.3   233  VAL233      0.0022
    152  CG2       37.6560  -41.2260   16.7950 C.3   233  VAL233      0.0022
    153  N         31.5820  -32.1990   21.3390 N.3   368  ARG368     -0.1245
    154  CA        32.2330  -32.7240   22.5450 C.3   368  ARG368      0.1563
    155  C         31.5250  -33.9690   23.0500 C.2   368  ARG368      0.2260
    156  O         32.1700  -34.8790   23.5150 O.2   368  ARG368     -0.2867
    157  CB        32.2930  -31.6830   23.6970 C.3   368  ARG368      0.0307
    158  CG        33.4920  -30.7320   23.6900 C.3   368  ARG368      0.0489
    159  CD        33.9260  -30.2760   25.0930 C.3   368  ARG368      0.2205
    160  NE        34.7500  -31.2920   25.7740 N.pl3 368  ARG368     -0.0865
    161  CZ        36.0020  -31.6870   25.4250 C.cat 368  ARG368      0.5346
    162  NH1       36.6600  -31.1800   24.3740 N.pl3 368  ARG368      0.1354
    163  NH2       36.6210  -32.6230   26.1400 N.pl3 368  ARG368      0.1354
@<TRIPOS>BOND
     1     1     2    1
     2     2     5    1
     3     2     3    1
     4    73    72    2
     5    21    22    1
     6    70    69    2
     7    69    68    1
     8    22    23    1
     9    22    25    1
    10    72    74   am
    11    72    71    1
    12     6     3   am
    13     6     7    1
    14     3     4    2
    15    19    18    1
    16    19    20    2
    17    15    14    1
    18    23    24    2
    19    23    33   am
    20    35    36    2
    21    35    34    1
    22    65    64    1
    23    17    18    1
    24    17     8   am
    25    25    26    1
    26    71    68    1
    27    68    67    1
    28    33    34    1
    29    63    62    2
    30    12    11    1
    31    12    13    1
    32    10     7    1
    33    10    11    1
    34     7     8    1
    35     8     9    2
    36    14    13    2
    37    14    16    1
    38    34    37    1
    39    28    26   ar
    40    28    30   ar
    41    26    27   ar
    42    62    61    1
    43    37    39    1
    44    37    38    1
    45    64    61    1
    46    64    66    1
    47    61    60    1
    48    30    31   ar
    49    44    43    2
    50    27    29   ar
    51    41    42    1
    52    38    40    1
    53    45    46    1
    54    45    42    1
    55    42    43    1
    56    31    29   ar
    57    31    32    1
    58    56    55    2
    59    60    55   am
    60    55    54    1
    61    50    49    2
    62    47    48    1
    63    58    57    1
    64    49    48    1
    65    54    53    1
    66    54    57    1
    67   111   109    1
    68    51    48    1
    69    51    52    1
    70   110   109    1
    71    57    59    1
    72    81    79    1
    73   135   133    1
    74   109   108    1
    75   151   150    1
    76    79    76    1
    77    79    80    1
    78    78    77    2
    79    75    76    1
    80    76    77    1
    81   150   152    1
    82   150   147    1
    83   134   132    1
    84    88    86    1
    85    87    86    1
    86   133   132    1
    87   108   105    1
    88   132   129    1
    89   149   148    2
    90   139   138    2
    91   147   148    1
    92   147   146    1
    93    86    83    1
    94    83    82    1
    95    83    84    1
    96   105   104    1
    97   105   106    1
    98   138   146   am
    99   138   137    1
   100    84    89   am
   101    84    85    2
   102   129   130    1
   103   129   128    1
   104   136   137    1
   105   136   130   am
   106   102   100   ar
   107   102   103   ar
   108   106   107    2
   109   106   112   am
   110    89    90    1
   111   100    98   ar
   112   137   140    1
   113   130   131    2
   114   128   122   am
   115   112   113    1
   116   103   101   ar
   117    90    91    1
   118   142   144   ar
   119   142   141   ar
   120    98    97    1
   121    98    99   ar
   122   144   145   ar
   123    97    94    1
   124   140   141    1
   125   122   123    2
   126   122   121    1
   127    94    95    1
   128    94    93    1
   129   141   143   ar
   130    95    96    2
   131   120   121    1
   132   120   114   am
   133   145   143   ar
   134   101    99   ar
   135   113   114    1
   136   113   116    1
   137   124   121    1
   138   124   125    1
   139    91    92    2
   140   114   115    2
   141   153   154    1
   142   127   125   am
   143   116   117    1
   144   125   126    2
   145   118   117    1
   146   118   119    1
   147   154   155    1
   148   154   157    1
   149   155   156    2
   150   158   157    1
   151   158   159    1
   152   162   161    1
   153   159   160    1
   154   161   160    2
   155   161   163    1
