@<TRIPOS>MOLECULE
tmp/5ajwA01.pdb
 194 184 0 0 0
SMALL
GASTEIGER

@<TRIPOS>ATOM
      1  N        -45.6430  -43.6130   -5.1680 N.3    38  ALA38      -0.1231
      2  CA       -44.7980  -44.1940   -6.2210 C.3    38  ALA38       0.1694
      3  C        -45.0690  -43.5790   -7.6200 C.2    38  ALA38       0.2592
      4  O        -44.9750  -44.2590   -8.6480 O.2    38  ALA38      -0.2718
      5  CB       -44.8970  -45.7240   -6.2350 C.3    38  ALA38       0.0304
      6  N        -45.3710  -42.2690   -7.6430 N.am   39  ARG39      -0.1966
      7  CA       -45.6380  -41.5070   -8.8690 C.3    39  ARG39       0.1729
      8  C        -44.5530  -40.4710   -9.1650 C.2    39  ARG39       0.2616
      9  O        -44.7460  -39.5960   -9.9980 O.2    39  ARG39      -0.2715
     10  CB       -47.0510  -40.8770   -8.8480 C.3    39  ARG39       0.0348
     11  CG       -48.0970  -41.6760   -9.6240 C.3    39  ARG39       0.0492
     12  CD       -48.4750  -42.9440   -8.9030 C.3    39  ARG39       0.2205
     13  NE       -49.4060  -43.7590   -9.6780 N.pl3  39  ARG39      -0.0865
     14  CZ       -49.8630  -44.9420   -9.2850 C.cat  39  ARG39       0.5346
     15  NH1      -49.4770  -45.4620   -8.1250 N.pl3  39  ARG39       0.1354
     16  NH2      -50.7110  -45.6160  -10.0510 N.pl3  39  ARG39       0.1354
     17  N        -43.4160  -40.5920   -8.4940 N.am   40  GLY40      -0.1955
     18  CA       -42.2820  -39.6960   -8.6940 C.3    40  GLY40       0.1869
     19  C        -42.4400  -38.2720   -8.1810 C.2    40  GLY40       0.2309
     20  O        -41.6920  -37.3810   -8.6100 O.2    40  GLY40      -0.2863
     21  N        -39.2700  -37.3150   -6.4560 N.3    43  TYR43      -0.1227
     22  CA       -38.2780  -37.1790   -7.5150 C.3    43  TYR43       0.1736
     23  C        -38.4270  -35.7710   -8.1490 C.2    43  TYR43       0.2595
     24  O        -37.4350  -35.0550   -8.2570 O.2    43  TYR43      -0.2718
     25  CB       -38.4500  -38.2940   -8.5660 C.3    43  TYR43       0.0548
     26  CG       -37.4660  -38.1980   -9.7090 C.ar   43  TYR43      -0.0200
     27  CD1      -37.6920  -37.3290  -10.7820 C.ar   43  TYR43      -0.0009
     28  CD2      -36.2940  -38.9420   -9.7080 C.ar   43  TYR43      -0.0009
     29  CE1      -36.7780  -37.2210  -11.8310 C.ar   43  TYR43       0.0417
     30  CE2      -35.3630  -38.8300  -10.7430 C.ar   43  TYR43       0.0417
     31  CZ       -35.6060  -37.9620  -11.8000 C.ar   43  TYR43       0.1957
     32  OH       -34.6860  -37.8580  -12.8160 O.3    43  TYR43      -0.2866
     33  N        -39.6710  -35.3760   -8.5140 N.am   44  ILE44      -0.1980
     34  CA       -39.9860  -34.0610   -9.0890 C.3    44  ILE44       0.1595
     35  C        -39.6220  -32.9410   -8.1090 C.2    44  ILE44       0.2287
     36  O        -38.9050  -32.0140   -8.4930 O.2    44  ILE44      -0.2864
     37  CB       -41.4530  -33.9470   -9.5990 C.3    44  ILE44       0.0276
     38  CG1      -41.7350  -34.9340  -10.7630 C.3    44  ILE44       0.0022
     39  CG2      -41.7770  -32.4990  -10.0100 C.3    44  ILE44       0.0022
     40  CD1      -43.2350  -35.3860  -10.8850 C.3    44  ILE44       0.0001
     41  N        -48.7390  -35.8160  -10.8360 N.3   146  SER146     -0.1217
     42  CA       -48.1300  -36.8940  -11.6040 C.3   146  SER146      0.1889
     43  C        -49.1380  -38.0480  -11.6890 C.2   146  SER146      0.2288
     44  O        -49.5210  -38.6220  -10.6590 O.2   146  SER146     -0.2866
     45  CB       -46.8190  -37.3450  -10.9780 C.3   146  SER146      0.2089
     46  OG       -46.2680  -38.3850  -11.7630 O.3   146  SER146     -0.2183
     47  N        -50.0220  -41.7370  -13.5480 N.3   148  CYS148     -0.1235
     48  CA       -49.4840  -42.9180  -14.2380 C.3   148  CYS148      0.1677
     49  C        -50.1860  -44.1920  -13.8230 C.2   148  CYS148      0.2270
     50  O        -50.2660  -44.5000  -12.6340 O.2   148  CYS148     -0.2867
     51  CB       -47.9700  -43.0420  -14.0880 C.3   148  CYS148      0.0956
     52  SG       -47.2490  -44.4470  -14.9810 S.3   148  CYS148     -0.0801
     53  N        -43.8660  -49.2010  -14.2190 N.3   153  VAL153     -0.1231
     54  CA       -43.3300  -47.9350  -13.7000 C.3   153  VAL153      0.1692
     55  C        -43.4610  -47.9060  -12.1700 C.2   153  VAL153      0.2591
     56  O        -42.4950  -47.5630  -11.4830 O.2   153  VAL153     -0.2718
     57  CB       -44.0080  -46.6980  -14.3790 C.3   153  VAL153      0.0266
     58  CG1      -43.6690  -45.3840  -13.6640 C.3   153  VAL153      0.0020
     59  CG2      -43.6370  -46.6060  -15.8570 C.3   153  VAL153      0.0020
     60  N        -44.6530  -48.2730  -11.6510 N.am  154  VAL154     -0.1980
     61  CA       -44.9660  -48.3080  -10.2150 C.3   154  VAL154      0.1595
     62  C        -44.0390  -49.3070   -9.4910 C.2   154  VAL154      0.2287
     63  O        -43.3930  -48.9290   -8.5080 O.2   154  VAL154     -0.2864
     64  CB       -46.4850  -48.5720   -9.9490 C.3   154  VAL154      0.0276
     65  CG1      -46.7780  -48.7670   -8.4590 C.3   154  VAL154      0.0022
     66  CG2      -47.3530  -47.4510  -10.5270 C.3   154  VAL154      0.0022
     67  N        -41.1480  -50.5800  -10.5280 N.3   156  SER156     -0.1202
     68  CA       -39.7700  -50.1130  -10.6980 C.3   156  SER156      0.2020
     69  C        -39.4080  -49.0440   -9.6410 C.2   156  SER156      0.2618
     70  O        -38.3320  -49.1250   -9.0390 O.2   156  SER156     -0.2717
     71  CB       -39.5630  -49.5910  -12.1150 C.3   156  SER156      0.2103
     72  OG       -38.2230  -49.1830  -12.3160 O.3   156  SER156     -0.2182
     73  N        -40.3320  -48.0850   -9.3880 N.am  157  ASN157     -0.1974
     74  CA       -40.1820  -47.0320   -8.3810 C.3   157  ASN157      0.1688
     75  C        -40.0950  -47.6390   -6.9690 C.2   157  ASN157      0.2292
     76  O        -39.2810  -47.1830   -6.1620 O.2   157  ASN157     -0.2864
     77  CB       -41.3400  -46.0100   -8.4850 C.3   157  ASN157      0.1181
     78  CG       -41.2640  -44.8420   -7.5250 C.2   157  ASN157      0.2629
     79  OD1      -41.5530  -44.9690   -6.3370 O.2   157  ASN157     -0.2716
     80  ND2      -40.9030  -43.6720   -8.0240 N.am  157  ASN157     -0.0877
     81  N        -36.6290  -49.3810   -6.8190 N.3   160  GLU160     -0.1245
     82  CA       -35.5180  -48.4330   -6.8510 C.3   160  GLU160      0.1567
     83  C        -35.3660  -47.5790   -5.5920 C.2   160  GLU160      0.2260
     84  O        -34.2460  -47.4490   -5.0970 O.2   160  GLU160     -0.2867
     85  CB       -35.5900  -47.5360   -8.0960 C.3   160  GLU160      0.0388
     86  CG       -34.4720  -46.5460   -8.2090 C.3   160  GLU160      0.1160
     87  CD       -34.4350  -45.7330   -9.4670 C.2   160  GLU160      0.3649
     88  OE1      -35.3290  -45.8390  -10.2810 O.co2 160  GLU160     -0.2457
     89  OE2      -33.6030  -44.8300   -9.6460 O.co2 160  GLU160     -0.2457
     90  N        -48.5700  -33.9660  -15.2430 N.3   208  VAL208     -0.1245
     91  CA       -47.5000  -34.7400  -15.8680 C.3   208  VAL208      0.1561
     92  C        -48.1590  -36.1230  -16.0330 C.2   208  VAL208      0.2260
     93  O        -48.4840  -36.7830  -15.0390 O.2   208  VAL208     -0.2867
     94  CB       -46.1970  -34.8050  -15.0030 C.3   208  VAL208      0.0252
     95  CG1      -45.1470  -35.6850  -15.6680 C.3   208  VAL208      0.0019
     96  CG2      -45.6360  -33.4170  -14.7100 C.3   208  VAL208      0.0019
     97  N        -45.3060  -40.4380  -17.1210 N.3   211  VAL211     -0.1231
     98  CA       -43.8900  -40.1180  -16.9230 C.3   211  VAL211      0.1692
     99  C        -43.3810  -39.0800  -18.0020 C.2   211  VAL211      0.2593
    100  O        -42.3540  -39.2800  -18.6500 O.2   211  VAL211     -0.2718
    101  CB       -42.9920  -41.4030  -16.7790 C.3   211  VAL211      0.0266
    102  CG1      -41.6950  -41.0890  -16.0500 C.3   211  VAL211      0.0020
    103  CG2      -43.7280  -42.5350  -16.0530 C.3   211  VAL211      0.0020
    104  N        -44.1410  -37.9980  -18.1740 N.am  212  GLY212     -0.1942
    105  CA       -43.7930  -36.8920  -19.0640 C.3   212  GLY212      0.2014
    106  C        -44.0120  -37.0780  -20.5460 C.2   212  GLY212      0.2638
    107  O        -43.4080  -36.3650  -21.3480 O.2   212  GLY212     -0.2714
    108  N        -44.8640  -38.0250  -20.9260 N.am  213  ARG213     -0.1977
    109  CA       -45.2080  -38.2890  -22.3230 C.3   213  ARG213      0.1597
    110  C        -46.1850  -37.1860  -22.8030 C.2   213  ARG213      0.2287
    111  O        -46.1560  -36.7780  -23.9700 O.2   213  ARG213     -0.2864
    112  CB       -45.8770  -39.6820  -22.4140 C.3   213  ARG213      0.0334
    113  CG       -46.2810  -40.1430  -23.8370 C.3   213  ARG213      0.0492
    114  CD       -45.0590  -40.0490  -24.7510 C.3   213  ARG213      0.2205
    115  NE       -43.8170  -40.2810  -23.9850 N.pl3 213  ARG213     -0.0865
    116  CZ       -42.5970  -39.9180  -24.3670 C.cat 213  ARG213      0.5346
    117  NH1      -42.4360  -39.3020  -25.5230 N.pl3 213  ARG213      0.1354
    118  NH2      -41.5560  -40.1300  -23.5560 N.pl3 213  ARG213      0.1354
    119  N        -48.6660  -33.5340  -21.2130 N.3   215  PHE215     -0.1241
    120  CA       -48.8510  -32.5300  -20.1710 C.3   215  PHE215      0.1605
    121  C        -50.1270  -31.7300  -20.3680 C.2   215  PHE215      0.2264
    122  O        -50.4550  -31.3270  -21.4840 O.2   215  PHE215     -0.2867
    123  CB       -47.6550  -31.5410  -20.1160 C.3   215  PHE215      0.0534
    124  CG       -46.2700  -32.1280  -19.9930 C.ar  215  PHE215     -0.0203
    125  CD1      -45.5490  -32.5060  -21.1270 C.ar  215  PHE215     -0.0042
    126  CD2      -45.7140  -32.3770  -18.7460 C.ar  215  PHE215     -0.0042
    127  CE1      -44.2790  -33.0880  -21.0060 C.ar  215  PHE215     -0.0003
    128  CE2      -44.4440  -32.9450  -18.6320 C.ar  215  PHE215     -0.0003
    129  CZ       -43.7160  -33.2520  -19.7620 C.ar  215  PHE215     -0.0000
    130  N        -39.7570  -29.1000  -16.7370 N.3   232  LEU232     -0.1231
    131  CA       -40.4360  -30.4050  -16.7010 C.3   232  LEU232      0.1693
    132  C        -40.5700  -31.0070  -18.0840 C.2   232  LEU232      0.2592
    133  O        -40.4670  -32.2130  -18.2410 O.2   232  LEU232     -0.2718
    134  CB       -41.8140  -30.3030  -16.0020 C.3   232  LEU232      0.0284
    135  CG       -41.7740  -30.0150  -14.4930 C.3   232  LEU232      0.0019
    136  CD1      -43.1770  -29.7660  -13.9410 C.3   232  LEU232      0.0001
    137  CD2      -41.0720  -31.1440  -13.7250 C.3   232  LEU232      0.0001
    138  N        -40.7120  -30.1610  -19.0910 N.am  233  MET233     -0.1965
    139  CA       -40.7880  -30.5770  -20.4800 C.3   233  MET233      0.1736
    140  C        -39.4460  -30.9020  -21.1120 C.2   233  MET233      0.2616
    141  O        -39.4260  -31.5120  -22.1760 O.2   233  MET233     -0.2715
    142  CB       -41.5150  -29.5220  -21.2850 C.3   233  MET233      0.0427
    143  CG       -42.9940  -29.5070  -20.9670 C.3   233  MET233      0.0599
    144  SD       -43.9170  -28.4300  -22.0510 S.3   233  MET233     -0.1393
    145  CE       -43.2260  -28.9010  -23.6190 C.3   233  MET233      0.0692
    146  N        -38.3290  -30.4990  -20.4720 N.am  234  ASN234     -0.1958
    147  CA       -36.9660  -30.7250  -20.9660 C.3   234  ASN234      0.1819
    148  C        -36.2460  -31.8740  -20.3010 C.2   234  ASN234      0.2621
    149  O        -35.4210  -32.5230  -20.9350 O.2   234  ASN234     -0.2715
    150  CB       -36.1420  -29.4540  -20.8750 C.3   234  ASN234      0.1195
    151  CG       -36.5280  -28.4450  -21.9200 C.2   234  ASN234      0.2630
    152  OD1      -36.9030  -28.7750  -23.0410 O.2   234  ASN234     -0.2716
    153  ND2      -36.4270  -27.1880  -21.5750 N.am  234  ASN234     -0.0877
    154  N        -36.5780  -32.1510  -19.0380 N.am  235  ILE235     -0.1963
    155  CA       -35.9900  -33.2670  -18.3040 C.3   235  ILE235      0.1727
    156  C        -36.5910  -34.5620  -18.8350 C.2   235  ILE235      0.2616
    157  O        -37.6000  -34.5160  -19.5330 O.2   235  ILE235     -0.2715
    158  CB       -36.1410  -33.0950  -16.7590 C.3   235  ILE235      0.0290
    159  CG1      -37.6240  -33.2440  -16.2810 C.3   235  ILE235      0.0022
    160  CG2      -35.4960  -31.7790  -16.2910 C.3   235  ILE235      0.0023
    161  CD1      -37.8300  -33.4580  -14.7190 C.3   235  ILE235      0.0001
    162  N        -35.9520  -35.7000  -18.5590 N.am  236  HIS236     -0.1959
    163  CA       -36.4350  -37.0350  -18.9420 C.3   236  HIS236      0.1787
    164  C        -35.8910  -38.0130  -17.9120 C.2   236  HIS236      0.2620
    165  O        -34.9990  -37.6510  -17.1390 O.2   236  HIS236     -0.2715
    166  CB       -36.0100  -37.4280  -20.3790 C.3   236  HIS236      0.0785
    167  CG       -34.5300  -37.5180  -20.5710 C.ar  236  HIS236      0.0821
    168  ND1      -33.8080  -38.6320  -20.1710 N.ar  236  HIS236     -0.2267
    169  CD2      -33.6760  -36.6050  -21.0810 C.ar  236  HIS236      0.1154
    170  CE1      -32.5550  -38.3700  -20.4780 C.ar  236  HIS236      0.1986
    171  NE2      -32.4250  -37.1560  -21.0080 N.ar  236  HIS236     -0.2212
    172  N        -36.4050  -39.2480  -17.9060 N.am  237  VAL237     -0.1977
    173  CA       -35.9650  -40.2740  -16.9550 C.3   237  VAL237      0.1596
    174  C        -35.2100  -41.4270  -17.6600 C.2   237  VAL237      0.2287
    175  O        -34.9830  -42.4790  -17.0610 O.2   237  VAL237     -0.2864
    176  CB       -37.1180  -40.7680  -16.0400 C.3   237  VAL237      0.0276
    177  CG1      -37.6910  -39.6190  -15.1970 C.3   237  VAL237      0.0022
    178  CG2      -38.2100  -41.4620  -16.8450 C.3   237  VAL237      0.0022
    179  N        -32.1180  -32.2560  -21.5970 N.3   372  ARG372     -0.1245
    180  CA       -32.7230  -32.8160  -22.8060 C.3   372  ARG372      0.1563
    181  C        -31.9520  -33.9990  -23.3880 C.2   372  ARG372      0.2260
    182  O        -32.5480  -34.9650  -23.8700 O.2   372  ARG372     -0.2867
    183  CB       -32.8660  -31.7310  -23.9020 C.3   372  ARG372      0.0307
    184  CG       -33.9390  -30.6660  -23.6490 C.3   372  ARG372      0.0489
    185  CD       -34.6550  -30.2350  -24.9330 C.3   372  ARG372      0.2205
    186  NE       -35.3230  -31.3700  -25.5780 N.pl3 372  ARG372     -0.0865
    187  CZ       -36.5940  -31.7170  -25.3940 C.cat 372  ARG372      0.5346
    188  NH1      -37.3870  -30.9910  -24.6190 N.pl3 372  ARG372      0.1354
    189  NH2      -37.0850  -32.7930  -26.0000 N.pl3 372  ARG372      0.1354
    190  N        -31.6210  -42.7720   -8.3230 N.3   417  ALA417     -0.1245
    191  CA       -32.4240  -42.6450   -7.0810 C.3   417  ALA417      0.1562
    192  C        -32.3620  -41.2740   -6.3750 C.2   417  ALA417      0.2260
    193  O        -31.7190  -41.1910   -5.3250 O.2   417  ALA417     -0.2867
    194  CB       -31.9900  -43.7320   -6.0980 C.3   417  ALA417      0.0290
@<TRIPOS>BOND
     1   189   187    1
     2   186   187    2
     3   186   185    1
     4   117   116    1
     5   187   188    1
     6   185   184    1
     7   114   115    1
     8   114   113    1
     9   116   115    2
    10   116   118    1
    11   111   110    2
    12   183   184    1
    13   183   180    1
    14   182   181    2
    15   113   112    1
    16   145   144    1
    17   181   180    1
    18   152   151    2
    19   180   179    1
    20   110   109    1
    21   112   109    1
    22   109   108    1
    23   141   140    2
    24   144   143    1
    25   151   153   am
    26   151   150    1
    27   122   121    2
    28   107   106    2
    29   142   143    1
    30   142   139    1
    31   119   120    1
    32   125   127   ar
    33   125   124   ar
    34   140   139    1
    35   140   146   am
    36   169   171   ar
    37   169   167   ar
    38   171   170   ar
    39   127   129   ar
    40   147   150    1
    41   147   146    1
    42   147   148    1
    43   149   148    2
    44   108   106   am
    45   167   166    1
    46   167   168   ar
    47   106   105    1
    48   139   138    1
    49   170   168   ar
    50   166   163    1
    51   121   120    1
    52   148   154   am
    53   120   123    1
    54   123   124    1
    55   124   126   ar
    56   129   128   ar
    57   157   156    2
    58   138   132   am
    59   105   104    1
    60   154   155    1
    61   163   162    1
    62   163   164    1
    63   156   162   am
    64   156   155    1
    65   126   128   ar
    66   100    99    2
    67   155   158    1
    68   133   132    2
    69   104    99   am
    70   132   131    1
    71    99    98    1
    72   164   172   am
    73   164   165    2
    74   172   173    1
    75   174   175    2
    76   174   173    1
    77    97    98    1
    78   173   176    1
    79    98   101    1
    80   178   176    1
    81   101   103    1
    82   101   102    1
    83   158   160    1
    84   158   159    1
    85   130   131    1
    86   131   134    1
    87   159   161    1
    88   176   177    1
    89    92    91    1
    90    92    93    2
    91   134   135    1
    92    91    90    1
    93    91    94    1
    94    59    57    1
    95    95    94    1
    96    94    96    1
    97    52    51    1
    98   135   136    1
    99   135   137    1
   100    57    54    1
   101    57    58    1
   102    48    51    1
   103    48    49    1
   104    48    47    1
   105    53    54    1
   106    49    50    2
   107    54    55    1
   108    32    31    1
   109    72    71    1
   110    55    60   am
   111    55    56    2
   112    71    68    1
   113    29    31   ar
   114    29    27   ar
   115    31    30   ar
   116    46    45    1
   117    43    42    1
   118    43    44    2
   119    60    61    1
   120    42    45    1
   121    42    41    1
   122    40    38    1
   123    27    26   ar
   124    38    37    1
   125    30    28   ar
   126    68    67    1
   127    68    69    1
   128    66    64    1
   129    88    87   ar
   130    61    64    1
   131    61    62    1
   132    16    14    1
   133    39    37    1
   134     9     8    2
   135    64    65    1
   136    26    28   ar
   137    26    25    1
   138    13    14    2
   139    13    12    1
   140    89    87   ar
   141    69    73   am
   142    69    70    2
   143    11    12    1
   144    11    10    1
   145    37    34    1
   146    62    63    2
   147    87    86    1
   148    73    74    1
   149    14    15    1
   150     8     7    1
   151     8    17   am
   152    34    33    1
   153    34    35    1
   154     7    10    1
   155     7     6    1
   156    18    17    1
   157    18    19    1
   158     4     3    2
   159    20    19    2
   160    25    22    1
   161    33    23   am
   162    36    35    2
   163    77    74    1
   164    77    78    1
   165    74    75    1
   166   190   191    1
   167    24    23    2
   168    86    85    1
   169    23    22    1
   170    85    82    1
   171    80    78   am
   172     6     3   am
   173     3     2    1
   174    78    79    2
   175    22    21    1
   176   191   192    1
   177   191   194    1
   178    75    76    2
   179    82    81    1
   180    82    83    1
   181   192   193    2
   182     5     2    1
   183     2     1    1
   184    83    84    2
