@<TRIPOS>MOLECULE
tmp/5ajxA01.pdb
 194 185 0 0 0
SMALL
GASTEIGER

@<TRIPOS>ATOM
      1  N        -45.3780  -43.5460   -5.2930 N.3    41  ALA41      -0.1231
      2  CA       -44.5540  -44.1400   -6.3620 C.3    41  ALA41       0.1694
      3  C        -44.8300  -43.5150   -7.7540 C.2    41  ALA41       0.2592
      4  O        -44.7530  -44.1980   -8.7830 O.2    41  ALA41      -0.2718
      5  CB       -44.6880  -45.6690   -6.3830 C.3    41  ALA41       0.0304
      6  N        -45.1280  -42.2020   -7.7690 N.am   42  ARG42      -0.1966
      7  CA       -45.4050  -41.4320   -8.9880 C.3    42  ARG42       0.1729
      8  C        -44.3120  -40.3860   -9.2860 C.2    42  ARG42       0.2616
      9  O        -44.4930  -39.5110  -10.1250 O.2    42  ARG42      -0.2715
     10  CB       -46.8220  -40.8120   -8.9510 C.3    42  ARG42       0.0348
     11  CG       -47.8680  -41.6230   -9.7200 C.3    42  ARG42       0.0492
     12  CD       -48.2520  -42.8920   -8.9930 C.3    42  ARG42       0.2205
     13  NE       -49.2120  -43.6960   -9.7430 N.pl3  42  ARG42      -0.0865
     14  CZ       -49.6810  -44.8690   -9.3310 C.cat  42  ARG42       0.5346
     15  NH1      -49.2770  -45.3860   -8.1730 N.pl3  42  ARG42       0.1354
     16  NH2      -50.5560  -45.5360  -10.0710 N.pl3  42  ARG42       0.1354
     17  N        -43.1740  -40.5140   -8.6160 N.am   43  GLY43      -0.1955
     18  CA       -42.0350  -39.6260   -8.8160 C.3    43  GLY43       0.1869
     19  C        -42.1870  -38.2200   -8.2740 C.2    43  GLY43       0.2309
     20  O        -41.4340  -37.3340   -8.6860 O.2    43  GLY43      -0.2863
     21  N        -39.0060  -37.2150   -6.5280 N.3    46  TYR46      -0.1227
     22  CA       -38.0070  -37.0620   -7.5790 C.3    46  TYR46       0.1736
     23  C        -38.1770  -35.6790   -8.2360 C.2    46  TYR46       0.2595
     24  O        -37.1960  -34.9470   -8.3440 O.2    46  TYR46      -0.2718
     25  CB       -38.1230  -38.1930   -8.6120 C.3    46  TYR46       0.0548
     26  CG       -37.1140  -38.0850   -9.7350 C.ar   46  TYR46      -0.0200
     27  CD1      -35.8310  -38.6040   -9.5970 C.ar   46  TYR46      -0.0009
     28  CD2      -37.4250  -37.4160  -10.9180 C.ar   46  TYR46      -0.0009
     29  CE1      -34.8860  -38.4790  -10.6150 C.ar   46  TYR46       0.0417
     30  CE2      -36.4960  -37.3060  -11.9530 C.ar   46  TYR46       0.0417
     31  CZ       -35.2300  -37.8490  -11.7990 C.ar   46  TYR46       0.1957
     32  OH       -34.3150  -37.7540  -12.8130 O.3    46  TYR46      -0.2866
     33  N        -39.4280  -35.3080   -8.6150 N.am   47  ILE47      -0.1980
     34  CA       -39.7500  -34.0030   -9.2040 C.3    47  ILE47       0.1595
     35  C        -39.4120  -32.8770   -8.2190 C.2    47  ILE47       0.2287
     36  O        -38.7170  -31.9390   -8.6020 O.2    47  ILE47      -0.2864
     37  CB       -41.2110  -33.9130   -9.7280 C.3    47  ILE47       0.0276
     38  CG1      -41.4730  -34.9270  -10.8720 C.3    47  ILE47       0.0022
     39  CG2      -41.5510  -32.4810  -10.1800 C.3    47  ILE47       0.0022
     40  CD1      -42.9730  -35.3450  -11.0350 C.3    47  ILE47       0.0001
     41  N        -48.5540  -35.7590  -10.8750 N.3   149  SER149     -0.1202
     42  CA       -47.9460  -36.8320  -11.6540 C.3   149  SER149      0.2020
     43  C        -48.9430  -37.9940  -11.7160 C.2   149  SER149      0.2619
     44  O        -49.2920  -38.5640  -10.6810 O.2   149  SER149     -0.2717
     45  CB       -46.6120  -37.2620  -11.0580 C.3   149  SER149      0.2103
     46  OG       -46.0550  -38.2830  -11.8660 O.3   149  SER149     -0.2182
     47  N        -49.4510  -38.2830  -12.9310 N.am  150  VAL150     -0.1965
     48  CA       -50.4460  -39.3270  -13.2140 C.3   150  VAL150      0.1727
     49  C        -49.8180  -40.4430  -14.0500 C.2   150  VAL150      0.2616
     50  O        -49.2750  -40.1630  -15.1140 O.2   150  VAL150     -0.2715
     51  CB       -51.7050  -38.7530  -13.9400 C.3   150  VAL150      0.0290
     52  CG1      -52.8000  -39.8060  -14.0680 C.3   150  VAL150      0.0023
     53  CG2      -52.2450  -37.5070  -13.2500 C.3   150  VAL150      0.0023
     54  N        -49.9180  -41.6990  -13.5870 N.am  151  CYS151     -0.1968
     55  CA       -49.4350  -42.8880  -14.3050 C.3   151  CYS151      0.1712
     56  C        -50.1570  -44.1480  -13.8640 C.2   151  CYS151      0.2296
     57  O        -50.2150  -44.4440  -12.6720 O.2   151  CYS151     -0.2864
     58  CB       -47.9200  -43.0470  -14.2110 C.3   151  CYS151      0.0983
     59  SG       -47.2560  -44.4390  -15.1690 S.3   151  CYS151     -0.0798
     60  N        -43.9610  -49.2560  -14.3710 N.3   156  VAL156     -0.1245
     61  CA       -43.4000  -47.9960  -13.8630 C.3   156  VAL156      0.1561
     62  C        -43.4940  -47.9620  -12.3270 C.2   156  VAL156      0.2260
     63  O        -42.5100  -47.6200  -11.6590 O.2   156  VAL156     -0.2867
     64  CB       -44.0810  -46.7560  -14.5350 C.3   156  VAL156      0.0252
     65  CG1      -43.7130  -45.4470  -13.8390 C.3   156  VAL156      0.0019
     66  CG2      -43.7450  -46.6740  -16.0220 C.3   156  VAL156      0.0019
     67  N        -41.1820  -50.7130  -10.7190 N.3   159  SER159     -0.1202
     68  CA       -39.8010  -50.2740  -10.9170 C.3   159  SER159      0.2020
     69  C        -39.4030  -49.2170   -9.8750 C.2   159  SER159      0.2618
     70  O        -38.3200  -49.3180   -9.2960 O.2   159  SER159     -0.2717
     71  CB       -39.6160  -49.7410  -12.3340 C.3   159  SER159      0.2103
     72  OG       -38.2780  -49.3400  -12.5750 O.3   159  SER159     -0.2182
     73  N        -40.2990  -48.2320   -9.6160 N.am  160  ASN160     -0.1974
     74  CA       -40.1030  -47.1650   -8.6280 C.3   160  ASN160      0.1688
     75  C        -40.0100  -47.7370   -7.2040 C.2   160  ASN160      0.2292
     76  O        -39.1780  -47.2780   -6.4180 O.2   160  ASN160     -0.2864
     77  CB       -41.2130  -46.1020   -8.7270 C.3   160  ASN160      0.1181
     78  CG       -40.8650  -44.9740   -9.6740 C.2   160  ASN160      0.2629
     79  OD1      -39.6820  -44.6930   -9.9560 O.2   160  ASN160     -0.2716
     80  ND2      -41.8890  -44.3180  -10.1840 N.am  160  ASN160     -0.0877
     81  N        -36.5770  -49.5270   -7.0860 N.3   163  GLU163     -0.1245
     82  CA       -35.4520  -48.6010   -7.1660 C.3   163  GLU163      0.1567
     83  C        -35.2580  -47.7320   -5.9230 C.2   163  GLU163      0.2260
     84  O        -34.1280  -47.6290   -5.4420 O.2   163  GLU163     -0.2867
     85  CB       -35.5420  -47.7260   -8.4270 C.3   163  GLU163      0.0388
     86  CG       -34.3490  -46.8230   -8.6700 C.3   163  GLU163      0.1160
     87  CD       -33.1570  -47.5330   -9.1950 C.2   163  GLU163      0.3649
     88  OE1      -33.3130  -48.4170  -10.0750 O.co2 163  GLU163     -0.2457
     89  OE2      -32.0350  -47.0680   -8.7840 O.co2 163  GLU163     -0.2457
     90  N        -48.4490  -33.9400  -15.2880 N.3   211  VAL211     -0.1245
     91  CA       -47.3960  -34.7210  -15.9340 C.3   211  VAL211      0.1561
     92  C        -48.0520  -36.1050  -16.0830 C.2   211  VAL211      0.2260
     93  O        -48.3430  -36.7750  -15.0820 O.2   211  VAL211     -0.2867
     94  CB       -46.0840  -34.7820  -15.1000 C.3   211  VAL211      0.0252
     95  CG1      -45.0400  -35.6450  -15.8000 C.3   211  VAL211      0.0019
     96  CG2      -45.5270  -33.3850  -14.8080 C.3   211  VAL211      0.0019
     97  N        -45.2190  -40.4000  -17.2670 N.3   214  VAL214     -0.1231
     98  CA       -43.8020  -40.0650  -17.1090 C.3   214  VAL214      0.1692
     99  C        -43.3370  -39.0650  -18.2220 C.2   214  VAL214      0.2593
    100  O        -42.3340  -39.2790  -18.9160 O.2   214  VAL214     -0.2718
    101  CB       -42.8850  -41.3230  -16.9460 C.3   214  VAL214      0.0266
    102  CG1      -41.5540  -40.9640  -16.2840 C.3   214  VAL214      0.0020
    103  CG2      -43.5910  -42.4310  -16.1540 C.3   214  VAL214      0.0020
    104  N        -44.0900  -37.9750  -18.3600 N.am  215  GLY215     -0.1942
    105  CA       -43.7730  -36.8840  -19.2780 C.3   215  GLY215      0.2014
    106  C        -44.0540  -37.0870  -20.7510 C.2   215  GLY215      0.2638
    107  O        -43.5010  -36.3750  -21.5860 O.2   215  GLY215     -0.2714
    108  N        -44.9280  -38.0320  -21.0870 N.am  216  ARG216     -0.1977
    109  CA       -45.3300  -38.3090  -22.4630 C.3   216  ARG216      0.1597
    110  C        -46.3290  -37.2220  -22.9150 C.2   216  ARG216      0.2287
    111  O        -46.3970  -36.8680  -24.0950 O.2   216  ARG216     -0.2864
    112  CB       -45.9730  -39.7040  -22.5180 C.3   216  ARG216      0.0334
    113  CG       -46.2890  -40.2200  -23.9190 C.3   216  ARG216      0.0492
    114  CD       -47.6540  -39.7340  -24.4310 C.3   216  ARG216      0.2205
    115  NE       -47.8380  -40.1030  -25.8410 N.pl3 216  ARG216     -0.0865
    116  CZ       -48.9910  -40.0740  -26.5000 C.cat 216  ARG216      0.5346
    117  NH1      -50.1110  -39.6900  -25.9060 N.pl3 216  ARG216      0.1354
    118  NH2      -49.0160  -40.4510  -27.7710 N.pl3 216  ARG216      0.1354
    119  N        -48.6960  -33.5280  -21.2510 N.3   218  PHE218     -0.1241
    120  CA       -48.8270  -32.5010  -20.2240 C.3   218  PHE218      0.1605
    121  C        -50.0860  -31.7060  -20.3990 C.2   218  PHE218      0.2264
    122  O        -50.4260  -31.3110  -21.5130 O.2   218  PHE218     -0.2867
    123  CB       -47.6270  -31.5280  -20.2220 C.3   218  PHE218      0.0534
    124  CG       -46.2520  -32.1450  -20.0930 C.ar  218  PHE218     -0.0203
    125  CD1      -45.5310  -32.5200  -21.2220 C.ar  218  PHE218     -0.0042
    126  CD2      -45.6660  -32.3230  -18.8460 C.ar  218  PHE218     -0.0042
    127  CE1      -44.2610  -33.0900  -21.1000 C.ar  218  PHE218     -0.0003
    128  CE2      -44.3900  -32.8860  -18.7260 C.ar  218  PHE218     -0.0003
    129  CZ       -43.6940  -33.2600  -19.8540 C.ar  218  PHE218     -0.0000
    130  N        -39.6060  -29.0960  -16.9480 N.3   235  LEU235     -0.1231
    131  CA       -40.2780  -30.4060  -16.9480 C.3   235  LEU235      0.1693
    132  C        -40.3720  -31.0080  -18.3480 C.2   235  LEU235      0.2592
    133  O        -40.2520  -32.2090  -18.5230 O.2   235  LEU235     -0.2718
    134  CB       -41.6620  -30.3260  -16.2690 C.3   235  LEU235      0.0284
    135  CG       -41.6490  -30.0460  -14.7490 C.3   235  LEU235      0.0019
    136  CD1      -43.0530  -29.8150  -14.2140 C.3   235  LEU235      0.0001
    137  CD2      -40.9300  -31.1470  -13.9630 C.3   235  LEU235      0.0001
    138  N        -40.4870  -30.1650  -19.3440 N.am  236  MET236     -0.1965
    139  CA       -40.5070  -30.5910  -20.7300 C.3   236  MET236      0.1736
    140  C        -39.1330  -30.8530  -21.3380 C.2   236  MET236      0.2616
    141  O        -39.0560  -31.4300  -22.4190 O.2   236  MET236     -0.2715
    142  CB       -41.2680  -29.5910  -21.5500 C.3   236  MET236      0.0427
    143  CG       -42.7490  -29.6110  -21.2220 C.3   236  MET236      0.0599
    144  SD       -43.6060  -28.6110  -22.4010 S.3   236  MET236     -0.1393
    145  CE       -42.2150  -27.7260  -23.1320 C.3   236  MET236      0.0692
    146  N        -38.0490  -30.4590  -20.6450 N.am  237  ASN237     -0.1958
    147  CA       -36.6700  -30.6700  -21.0980 C.3   237  ASN237      0.1819
    148  C        -35.9740  -31.8220  -20.4090 C.2   237  ASN237      0.2621
    149  O        -35.1430  -32.4830  -21.0250 O.2   237  ASN237     -0.2715
    150  CB       -35.8480  -29.3990  -20.9960 C.3   237  ASN237      0.1195
    151  CG       -36.2040  -28.4130  -22.0620 C.2   237  ASN237      0.2630
    152  OD1      -36.4740  -28.7670  -23.2030 O.2   237  ASN237     -0.2716
    153  ND2      -36.1900  -27.1520  -21.7260 N.am  237  ASN237     -0.0877
    154  N        -36.3310  -32.0890  -19.1490 N.am  238  ILE238     -0.1963
    155  CA       -35.7610  -33.2090  -18.3940 C.3   238  ILE238      0.1727
    156  C        -36.3300  -34.5100  -18.9220 C.2   238  ILE238      0.2616
    157  O        -37.3180  -34.4830  -19.6530 O.2   238  ILE238     -0.2715
    158  CB       -35.9450  -33.0470  -16.8600 C.3   238  ILE238      0.0290
    159  CG1      -37.4340  -33.1960  -16.4190 C.3   238  ILE238      0.0022
    160  CG2      -35.3120  -31.7330  -16.3750 C.3   238  ILE238      0.0023
    161  CD1      -37.6570  -33.4010  -14.8620 C.3   238  ILE238      0.0001
    162  N        -35.6780  -35.6360  -18.6150 N.am  239  HIS239     -0.1959
    163  CA       -36.1280  -36.9760  -19.0060 C.3   239  HIS239      0.1787
    164  C        -35.5640  -37.9650  -17.9950 C.2   239  HIS239      0.2620
    165  O        -34.6720  -37.6040  -17.2180 O.2   239  HIS239     -0.2715
    166  CB       -35.7090  -37.3400  -20.4500 C.3   239  HIS239      0.0785
    167  CG       -34.2300  -37.4120  -20.6470 C.ar  239  HIS239      0.0821
    168  ND1      -33.4880  -38.5040  -20.2180 N.ar  239  HIS239     -0.2267
    169  CD2      -33.3960  -36.5140  -21.2140 C.ar  239  HIS239      0.1154
    170  CE1      -32.2340  -38.2330  -20.5400 C.ar  239  HIS239      0.1986
    171  NE2      -32.1290  -37.0410  -21.1270 N.ar  239  HIS239     -0.2212
    172  N        -36.0760  -39.2060  -18.0120 N.am  240  VAL240     -0.1977
    173  CA       -35.6530  -40.2700  -17.0940 C.3   240  VAL240      0.1596
    174  C        -34.9300  -41.4110  -17.8530 C.2   240  VAL240      0.2287
    175  O        -34.7720  -42.5120  -17.3290 O.2   240  VAL240     -0.2864
    176  CB       -36.8200  -40.7610  -16.1880 C.3   240  VAL240      0.0276
    177  CG1      -37.3240  -39.6380  -15.2670 C.3   240  VAL240      0.0022
    178  CG2      -37.9660  -41.3550  -17.0130 C.3   240  VAL240      0.0022
    179  N        -31.8380  -32.1770  -21.6560 N.3   375  ARG375     -0.1245
    180  CA       -32.5000  -32.7330  -22.8370 C.3   375  ARG375      0.1563
    181  C        -31.6720  -33.8320  -23.5440 C.2   375  ARG375      0.2260
    182  O        -32.2640  -34.7430  -24.1460 O.2   375  ARG375     -0.2867
    183  CB       -32.9700  -31.5530  -23.7340 C.3   375  ARG375      0.0307
    184  CG       -32.7020  -31.6610  -25.2340 C.3   375  ARG375      0.0489
    185  CD       -34.0010  -31.6240  -26.0280 C.3   375  ARG375      0.2205
    186  NE       -34.2230  -32.8830  -26.7400 N.pl3 375  ARG375     -0.0865
    187  CZ       -33.5670  -33.2560  -27.8330 C.cat 375  ARG375      0.5346
    188  NH1      -32.6340  -32.4660  -28.3570 N.pl3 375  ARG375      0.1354
    189  NH2      -33.8240  -34.4250  -28.4020 N.pl3 375  ARG375      0.1354
    190  N        -31.6930  -42.4680   -8.8450 N.3   420  ALA420     -0.1245
    191  CA       -33.0090  -42.0050   -8.4060 C.3   420  ALA420      0.1562
    192  C        -32.9820  -40.8200   -7.4200 C.2   420  ALA420      0.2260
    193  O        -33.9330  -40.0430   -7.4150 O.2   420  ALA420     -0.2867
    194  CB       -33.7960  -43.1610   -7.8260 C.3   420  ALA420      0.0290
@<TRIPOS>BOND
     1   189   187    1
     2   188   187    1
     3   187   186    2
     4   118   116    1
     5   186   185    1
     6   116   117    1
     7   116   115    2
     8   185   184    1
     9   115   114    1
    10   184   183    1
    11   114   113    1
    12   182   181    2
    13   111   110    2
    14   113   112    1
    15   183   180    1
    16   181   180    1
    17   152   151    2
    18   145   144    1
    19   110   109    1
    20   180   179    1
    21   112   109    1
    22   109   108    1
    23   141   140    2
    24   144   143    1
    25   151   153   am
    26   151   150    1
    27   107   106    2
    28   142   143    1
    29   142   139    1
    30   122   121    2
    31   140   139    1
    32   140   146   am
    33   119   120    1
    34   125   127   ar
    35   125   124   ar
    36   169   171   ar
    37   169   167   ar
    38   171   170   ar
    39   127   129   ar
    40   147   150    1
    41   147   146    1
    42   147   148    1
    43   108   106   am
    44   149   148    2
    45   106   105    1
    46   139   138    1
    47   167   166    1
    48   167   168   ar
    49   170   168   ar
    50   166   163    1
    51   148   154   am
    52   121   120    1
    53   120   123    1
    54   123   124    1
    55   124   126   ar
    56   129   128   ar
    57   157   156    2
    58   138   132   am
    59   105   104    1
    60   154   155    1
    61   163   162    1
    62   163   164    1
    63   156   162   am
    64   156   155    1
    65   100    99    2
    66   126   128   ar
    67   133   132    2
    68   155   158    1
    69   104    99   am
    70   132   131    1
    71    99    98    1
    72   172   164   am
    73   172   173    1
    74   164   165    2
    75   174   175    2
    76   174   173    1
    77    97    98    1
    78    98   101    1
    79   173   176    1
    80   178   176    1
    81   130   131    1
    82   131   134    1
    83   101   102    1
    84   101   103    1
    85   158   159    1
    86   158   160    1
    87   159   161    1
    88   134   135    1
    89   176   177    1
    90    92    91    1
    91    92    93    2
    92    66    64    1
    93    91    90    1
    94    91    94    1
    95    95    94    1
    96    59    58    1
    97    50    49    2
    98    94    96    1
    99   135   136    1
   100   135   137    1
   101    64    61    1
   102    64    65    1
   103    60    61    1
   104    55    58    1
   105    55    56    1
   106    55    54    1
   107    52    51    1
   108    49    54   am
   109    49    48    1
   110    51    53    1
   111    51    48    1
   112    56    57    2
   113    61    62    1
   114    48    47    1
   115    47    43   am
   116    32    31    1
   117    72    71    1
   118    71    68    1
   119    62    63    2
   120    30    31   ar
   121    30    28   ar
   122    46    45    1
   123    31    29   ar
   124    43    42    1
   125    43    44    2
   126    42    45    1
   127    42    41    1
   128    40    38    1
   129    28    26   ar
   130    68    67    1
   131    68    69    1
   132    38    37    1
   133    29    27   ar
   134    80    78   am
   135    39    37    1
   136     9     8    2
   137    88    87   ar
   138    16    14    1
   139    79    78    2
   140    69    73   am
   141    69    70    2
   142    13    14    2
   143    13    12    1
   144    26    27   ar
   145    26    25    1
   146    37    34    1
   147    11    12    1
   148    11    10    1
   149    78    77    1
   150    73    74    1
   151    14    15    1
   152     8     7    1
   153     8    17   am
   154    34    33    1
   155    34    35    1
   156    87    89   ar
   157    87    86    1
   158     7    10    1
   159     7     6    1
   160   190   191    1
   161    18    17    1
   162    18    19    1
   163     4     3    2
   164    77    74    1
   165    20    19    2
   166    86    85    1
   167    74    75    1
   168    33    23   am
   169    25    22    1
   170    36    35    2
   171    85    82    1
   172   191   194    1
   173   191   192    1
   174    24    23    2
   175    23    22    1
   176     6     3   am
   177     3     2    1
   178    22    21    1
   179   192   193    2
   180    75    76    2
   181    82    81    1
   182    82    83    1
   183     5     2    1
   184     2     1    1
   185    83    84    2
