@<TRIPOS>MOLECULE
tmp/5ajyA01.pdb
 195 186 0 0 0
SMALL
GASTEIGER

@<TRIPOS>ATOM
      1  N        -45.8480  -43.5660   -5.2630 N.3    39  ALA39      -0.1231
      2  CA       -44.9860  -44.1330   -6.3090 C.3    39  ALA39       0.1694
      3  C        -45.2590  -43.5210   -7.7050 C.2    39  ALA39       0.2592
      4  O        -45.1440  -44.1930   -8.7410 O.2    39  ALA39      -0.2718
      5  CB       -45.0760  -45.6630   -6.3280 C.3    39  ALA39       0.0304
      6  N        -45.5950  -42.2270   -7.7210 N.am   40  ARG40      -0.1966
      7  CA       -45.8700  -41.4880   -8.9530 C.3    40  ARG40       0.1729
      8  C        -44.7750  -40.4710   -9.2680 C.2    40  ARG40       0.2616
      9  O        -44.9520  -39.6300  -10.1310 O.2    40  ARG40      -0.2715
     10  CB       -47.2740  -40.8490   -8.9120 C.3    40  ARG40       0.0348
     11  CG       -48.3200  -41.6490   -9.6740 C.3    40  ARG40       0.0492
     12  CD       -48.6970  -42.9260   -8.9650 C.3    40  ARG40       0.2205
     13  NE       -49.6310  -43.7340   -9.7440 N.pl3  40  ARG40      -0.0865
     14  CZ       -50.0650  -44.9350   -9.3770 C.cat  40  ARG40       0.5346
     15  NH1      -49.6540  -45.4770   -8.2340 N.pl3  40  ARG40       0.1354
     16  NH2      -50.9070  -45.6070  -10.1520 N.pl3  40  ARG40       0.1354
     17  N        -43.6460  -40.5760   -8.5760 N.am   41  GLY41      -0.1955
     18  CA       -42.5070  -39.6900   -8.7820 C.3    41  GLY41       0.1869
     19  C        -42.6650  -38.2710   -8.2670 C.2    41  GLY41       0.2309
     20  O        -41.9320  -37.3810   -8.7180 O.2    41  GLY41      -0.2863
     21  N        -39.5210  -37.2960   -6.4960 N.3    44  TYR44      -0.1227
     22  CA       -38.5180  -37.1580   -7.5480 C.3    44  TYR44       0.1736
     23  C        -38.6540  -35.7570   -8.2060 C.2    44  TYR44       0.2595
     24  O        -37.6650  -35.0330   -8.3000 O.2    44  TYR44      -0.2718
     25  CB       -38.6480  -38.2990   -8.5730 C.3    44  TYR44       0.0548
     26  CG       -37.6560  -38.1890   -9.7110 C.ar   44  TYR44      -0.0200
     27  CD1      -36.3470  -38.6420   -9.5650 C.ar   44  TYR44      -0.0009
     28  CD2      -38.0100  -37.5850  -10.9180 C.ar   44  TYR44      -0.0009
     29  CE1      -35.4210  -38.5140  -10.5930 C.ar   44  TYR44       0.0417
     30  CE2      -37.0900  -37.4550  -11.9580 C.ar   44  TYR44       0.0417
     31  CZ       -35.7960  -37.9260  -11.7900 C.ar   44  TYR44       0.1957
     32  OH       -34.8630  -37.8170  -12.7900 O.3    44  TYR44      -0.2866
     33  N        -39.8930  -35.3690   -8.5870 N.am   45  ILE45      -0.1980
     34  CA       -40.1970  -34.0570   -9.1540 C.3    45  ILE45       0.1595
     35  C        -39.8450  -32.9400   -8.1510 C.2    45  ILE45       0.2287
     36  O        -39.1290  -32.0120   -8.5190 O.2    45  ILE45      -0.2864
     37  CB       -41.6650  -33.9550   -9.6590 C.3    45  ILE45       0.0276
     38  CG1      -41.9050  -34.9040  -10.8610 C.3    45  ILE45       0.0022
     39  CG2      -42.0220  -32.5050  -10.0290 C.3    45  ILE45       0.0022
     40  CD1      -43.3810  -35.4090  -11.0280 C.3    45  ILE45       0.0001
     41  N        -48.9650  -35.7850  -10.8830 N.3   147  SER147     -0.1217
     42  CA       -48.3330  -36.8460  -11.6440 C.3   147  SER147      0.1889
     43  C        -49.3270  -38.0160  -11.7340 C.2   147  SER147      0.2288
     44  O        -49.7110  -38.5950  -10.7110 O.2   147  SER147     -0.2866
     45  CB       -47.0120  -37.2710  -11.0190 C.3   147  SER147      0.2089
     46  OG       -46.4440  -38.3000  -11.8090 O.3   147  SER147     -0.2183
     47  N        -50.0840  -41.6860  -13.5930 N.3   149  CYS149     -0.1235
     48  CA       -49.5100  -42.8490  -14.2820 C.3   149  CYS149      0.1677
     49  C        -50.2280  -44.1320  -13.9310 C.2   149  CYS149      0.2270
     50  O        -50.3630  -44.4800  -12.7600 O.2   149  CYS149     -0.2867
     51  CB       -48.0010  -42.9750  -14.0860 C.3   149  CYS149      0.0956
     52  SG       -47.2520  -44.3450  -15.0150 S.3   149  CYS149     -0.0801
     53  N        -43.9010  -49.1440  -14.3300 N.3   154  VAL154     -0.1245
     54  CA       -43.3650  -47.8780  -13.8120 C.3   154  VAL154      0.1561
     55  C        -43.5310  -47.8180  -12.2860 C.2   154  VAL154      0.2260
     56  O        -42.5840  -47.4400  -11.5930 O.2   154  VAL154     -0.2867
     57  CB       -44.0060  -46.6490  -14.5250 C.3   154  VAL154      0.0252
     58  CG1      -43.6680  -45.3410  -13.8160 C.3   154  VAL154      0.0019
     59  CG2      -43.5810  -46.5820  -15.9910 C.3   154  VAL154      0.0019
     60  N        -41.1890  -50.4370  -10.6210 N.3   157  SER157     -0.1202
     61  CA       -39.8200  -49.9220  -10.7810 C.3   157  SER157      0.2020
     62  C        -39.4970  -48.8640   -9.7070 C.2   157  SER157      0.2618
     63  O        -38.4250  -48.9220   -9.1050 O.2   157  SER157     -0.2717
     64  CB       -39.6050  -49.3750  -12.1960 C.3   157  SER157      0.2103
     65  OG       -39.3730  -47.9720  -12.2810 O.3   157  SER157     -0.2182
     66  N        -40.4360  -47.9160   -9.4690 N.am  158  ASN158     -0.1974
     67  CA       -40.3170  -46.8550   -8.4620 C.3   158  ASN158      0.1688
     68  C        -40.2320  -47.4530   -7.0470 C.2   158  ASN158      0.2292
     69  O        -39.4340  -46.9780   -6.2370 O.2   158  ASN158     -0.2864
     70  CB       -41.4810  -45.8490   -8.5820 C.3   158  ASN158      0.1181
     71  CG       -41.4160  -44.6840   -7.6200 C.2   158  ASN158      0.2629
     72  OD1      -41.7320  -44.8030   -6.4320 O.2   158  ASN158     -0.2716
     73  ND2      -41.0060  -43.5280   -8.1140 N.am  158  ASN158     -0.0877
     74  N        -36.7340  -49.1540   -6.8770 N.3   161  GLU161     -0.1231
     75  CA       -35.6410  -48.1840   -6.9210 C.3   161  GLU161      0.1699
     76  C        -35.4980  -47.3310   -5.6640 C.2   161  GLU161      0.2592
     77  O        -34.3740  -47.1640   -5.1820 O.2   161  GLU161     -0.2718
     78  CB       -35.7400  -47.2810   -8.1660 C.3   161  GLU161      0.0402
     79  CG       -34.6400  -46.2710   -8.2860 C.3   161  GLU161      0.1161
     80  CD       -34.6290  -45.4540   -9.5410 C.2   161  GLU161      0.3649
     81  OE1      -35.5280  -45.5720  -10.3470 O.co2 161  GLU161     -0.2457
     82  OE2      -33.8140  -44.5360   -9.7240 O.co2 161  GLU161     -0.2457
     83  N        -36.6030  -46.7560   -5.1450 N.am  162  VAL162     -0.1980
     84  CA       -36.4670  -45.8280   -4.0250 C.3   162  VAL162      0.1595
     85  C        -37.4390  -46.0800   -2.8330 C.2   162  VAL162      0.2287
     86  O        -37.1780  -45.5540   -1.7440 O.2   162  VAL162     -0.2864
     87  CB       -36.5600  -44.3790   -4.5960 C.3   162  VAL162      0.0276
     88  CG1      -38.0030  -43.9040   -4.7620 C.3   162  VAL162      0.0022
     89  CG2      -35.7050  -43.3950   -3.8110 C.3   162  VAL162      0.0022
     90  N        -48.7230  -33.9620  -15.3020 N.3   209  VAL209     -0.1245
     91  CA       -47.6460  -34.7360  -15.9270 C.3   209  VAL209      0.1561
     92  C        -48.2910  -36.1160  -16.0890 C.2   209  VAL209      0.2260
     93  O        -48.5920  -36.7830  -15.0920 O.2   209  VAL209     -0.2867
     94  CB       -46.3530  -34.8050  -15.0580 C.3   209  VAL209      0.0252
     95  CG1      -45.2770  -35.6630  -15.7310 C.3   209  VAL209      0.0019
     96  CG2      -45.8150  -33.4090  -14.7310 C.3   209  VAL209      0.0019
     97  N        -45.4260  -40.4480  -17.2080 N.3   212  VAL212     -0.1231
     98  CA       -43.9940  -40.1580  -17.0460 C.3   212  VAL212      0.1692
     99  C        -43.5180  -39.1210  -18.1230 C.2   212  VAL212      0.2592
    100  O        -42.5110  -39.3250  -18.8110 O.2   212  VAL212     -0.2718
    101  CB       -43.1160  -41.4640  -16.9700 C.3   212  VAL212      0.0266
    102  CG1      -41.7620  -41.2020  -16.3280 C.3   212  VAL212      0.0020
    103  CG2      -43.8350  -42.5790  -16.2120 C.3   212  VAL212      0.0020
    104  N        -44.2780  -38.0320  -18.2540 N.am  213  GLY213     -0.1957
    105  CA       -43.9500  -36.9120  -19.1310 C.3   213  GLY213      0.1869
    106  C        -44.1650  -37.0900  -20.6150 C.2   213  GLY213      0.2309
    107  O        -43.5580  -36.3780  -21.4080 O.2   213  GLY213     -0.2863
    108  N        -48.8440  -33.5520  -21.2820 N.3   216  PHE216     -0.1241
    109  CA       -49.0200  -32.5290  -20.2590 C.3   216  PHE216      0.1605
    110  C        -50.3000  -31.7520  -20.4530 C.2   216  PHE216      0.2264
    111  O        -50.6270  -31.3490  -21.5730 O.2   216  PHE216     -0.2867
    112  CB       -47.8280  -31.5340  -20.2240 C.3   216  PHE216      0.0534
    113  CG       -46.4530  -32.1510  -20.0580 C.ar  216  PHE216     -0.0203
    114  CD1      -45.7010  -32.5290  -21.1680 C.ar  216  PHE216     -0.0042
    115  CD2      -45.9040  -32.3390  -18.7930 C.ar  216  PHE216     -0.0042
    116  CE1      -44.4320  -33.1070  -21.0150 C.ar  216  PHE216     -0.0003
    117  CE2      -44.6330  -32.9150  -18.6410 C.ar  216  PHE216     -0.0003
    118  CZ       -43.9000  -33.2820  -19.7540 C.ar  216  PHE216     -0.0000
    119  N        -39.9660  -29.2150  -16.7130 N.3   233  LEU233     -0.1231
    120  CA       -40.6540  -30.5180  -16.6740 C.3   233  LEU233      0.1693
    121  C        -40.7960  -31.1380  -18.0530 C.2   233  LEU233      0.2592
    122  O        -40.6890  -32.3500  -18.2040 O.2   233  LEU233     -0.2718
    123  CB       -42.0260  -30.3980  -15.9800 C.3   233  LEU233      0.0284
    124  CG       -41.9900  -30.0840  -14.4740 C.3   233  LEU233      0.0019
    125  CD1      -43.3900  -29.8330  -13.9230 C.3   233  LEU233      0.0001
    126  CD2      -41.2750  -31.1840  -13.6920 C.3   233  LEU233      0.0001
    127  N        -40.9490  -30.2980  -19.0640 N.am  234  MET234     -0.1965
    128  CA       -41.0420  -30.7330  -20.4430 C.3   234  MET234      0.1736
    129  C        -39.6960  -31.0840  -21.0730 C.2   234  MET234      0.2616
    130  O        -39.6940  -31.7360  -22.1130 O.2   234  MET234     -0.2715
    131  CB       -41.7440  -29.6690  -21.2620 C.3   234  MET234      0.0427
    132  CG       -43.2200  -29.5770  -20.9440 C.3   234  MET234      0.0599
    133  SD       -44.1060  -28.4800  -22.0630 S.3   234  MET234     -0.1393
    134  CE       -43.4590  -29.0570  -23.6210 C.3   234  MET234      0.0692
    135  N        -38.5590  -30.6590  -20.4670 N.am  235  ASN235     -0.1958
    136  CA       -37.1970  -30.8970  -20.9800 C.3   235  ASN235      0.1819
    137  C        -36.4660  -32.0340  -20.3140 C.2   235  ASN235      0.2621
    138  O        -35.6370  -32.6780  -20.9480 O.2   235  ASN235     -0.2715
    139  CB       -36.3610  -29.6260  -20.9180 C.3   235  ASN235      0.1195
    140  CG       -36.7800  -28.6420  -21.9720 C.2   235  ASN235      0.2630
    141  OD1      -37.1710  -29.0090  -23.0740 O.2   235  ASN235     -0.2716
    142  ND2      -36.7150  -27.3780  -21.6590 N.am  235  ASN235     -0.0877
    143  N        -36.7720  -32.2870  -19.0370 N.am  236  ILE236     -0.1963
    144  CA       -36.1600  -33.3770  -18.2850 C.3   236  ILE236      0.1727
    145  C        -36.7570  -34.6870  -18.7780 C.2   236  ILE236      0.2616
    146  O        -37.7820  -34.6660  -19.4590 O.2   236  ILE236     -0.2715
    147  CB       -36.2920  -33.1780  -16.7400 C.3   236  ILE236      0.0290
    148  CG1      -37.7670  -33.3140  -16.2440 C.3   236  ILE236      0.0022
    149  CG2      -35.6460  -31.8560  -16.3150 C.3   236  ILE236      0.0023
    150  CD1      -37.9590  -33.4700  -14.6650 C.3   236  ILE236      0.0001
    151  N        -36.0980  -35.8100  -18.4880 N.am  237  HIS237     -0.1959
    152  CA       -36.5540  -37.1520  -18.8650 C.3   237  HIS237      0.1787
    153  C        -35.9800  -38.1270  -17.8550 C.2   237  HIS237      0.2620
    154  O        -35.0810  -37.7610  -17.0950 O.2   237  HIS237     -0.2715
    155  CB       -36.1350  -37.5250  -20.3070 C.3   237  HIS237      0.0785
    156  CG       -34.6490  -37.5890  -20.5120 C.ar  237  HIS237      0.0821
    157  ND1      -33.9100  -38.7030  -20.1350 N.ar  237  HIS237     -0.2267
    158  CD2      -33.8090  -36.6790  -21.0490 C.ar  237  HIS237      0.1154
    159  CE1      -32.6550  -38.4280  -20.4530 C.ar  237  HIS237      0.1986
    160  NE2      -32.5470  -37.2190  -20.9900 N.ar  237  HIS237     -0.2212
    161  N        -36.4880  -39.3640  -17.8490 N.am  238  VAL238     -0.1977
    162  CA       -36.0450  -40.4130  -16.9250 C.3   238  VAL238      0.1596
    163  C        -35.3060  -41.5430  -17.6590 C.2   238  VAL238      0.2287
    164  O        -35.0850  -42.6040  -17.0870 O.2   238  VAL238     -0.2864
    165  CB       -37.1930  -40.9310  -16.0120 C.3   238  VAL238      0.0276
    166  CG1      -37.7570  -39.7950  -15.1530 C.3   238  VAL238      0.0022
    167  CG2      -38.2960  -41.6120  -16.8240 C.3   238  VAL238      0.0022
    168  N        -32.2580  -32.3430  -21.5920 N.3   373  ARG373     -0.1245
    169  CA       -32.8820  -32.9080  -22.8080 C.3   373  ARG373      0.1563
    170  C        -32.0930  -34.0790  -23.4080 C.2   373  ARG373      0.2260
    171  O        -32.6790  -34.9970  -23.9780 O.2   373  ARG373     -0.2867
    172  CB       -33.0120  -31.8380  -23.9080 C.3   373  ARG373      0.0307
    173  CG       -34.0200  -30.7230  -23.6500 C.3   373  ARG373      0.0489
    174  CD       -34.5870  -30.2000  -24.9780 C.3   373  ARG373      0.2205
    175  NE       -35.1250  -31.3100  -25.7670 N.pl3 373  ARG373     -0.0865
    176  CZ       -36.3710  -31.7800  -25.6920 C.cat 373  ARG373      0.5346
    177  NH1      -37.2770  -31.1660  -24.9350 N.pl3 373  ARG373      0.1354
    178  NH2      -36.7320  -32.8400  -26.4000 N.pl3 373  ARG373      0.1354
    179  N        -31.6600  -42.6860   -8.1640 N.3   418  ALA418     -0.1231
    180  CA       -32.6180  -42.3790   -7.0830 C.3   418  ALA418      0.1694
    181  C        -33.0960  -40.9070   -7.1410 C.2   418  ALA418      0.2592
    182  O        -33.8260  -40.5570   -8.0740 O.2   418  ALA418     -0.2718
    183  CB       -32.0340  -42.7270   -5.7140 C.3   418  ALA418      0.0304
    184  N        -32.6360  -40.0430   -6.2130 N.am  419  TYR419     -0.1976
    185  CA       -33.0150  -38.6280   -6.1730 C.3   419  TYR419      0.1639
    186  C        -31.8630  -37.6420   -6.4610 C.2   419  TYR419      0.2290
    187  O        -31.9930  -36.4540   -6.1600 O.2   419  TYR419     -0.2864
    188  CB       -33.7130  -38.2870   -4.8350 C.3   419  TYR419      0.0560
    189  CG       -35.0140  -39.0140   -4.5740 C.ar  419  TYR419     -0.0198
    190  CD1      -36.0080  -39.0780   -5.5500 C.ar  419  TYR419     -0.0009
    191  CD2      -35.2890  -39.5620   -3.3270 C.ar  419  TYR419     -0.0009
    192  CE1      -37.2170  -39.7310   -5.3080 C.ar  419  TYR419      0.0417
    193  CE2      -36.5080  -40.1830   -3.0610 C.ar  419  TYR419      0.0417
    194  CZ       -37.4630  -40.2840   -4.0620 C.ar  419  TYR419      0.1957
    195  OH       -38.6660  -40.8980   -3.8030 O.3   419  TYR419     -0.2866
@<TRIPOS>BOND
     1   178   176    1
     2   175   176    2
     3   175   174    1
     4   176   177    1
     5   174   173    1
     6   171   170    2
     7   172   173    1
     8   172   169    1
     9   134   133    1
    10   170   169    1
    11   141   140    2
    12   169   168    1
    13   130   129    2
    14   133   132    1
    15   140   142   am
    16   140   139    1
    17   111   110    2
    18   107   106    2
    19   108   109    1
    20   131   132    1
    21   131   128    1
    22   114   116   ar
    23   114   113   ar
    24   129   135   am
    25   129   128    1
    26   158   160   ar
    27   158   156   ar
    28   116   118   ar
    29   160   159   ar
    30   136   139    1
    31   136   135    1
    32   136   137    1
    33   138   137    2
    34   106   105    1
    35   156   155    1
    36   156   157   ar
    37   159   157   ar
    38   110   109    1
    39   128   127    1
    40   137   143   am
    41   155   152    1
    42   109   112    1
    43   112   113    1
    44   113   115   ar
    45   118   117   ar
    46   146   145    2
    47   105   104    1
    48   127   121   am
    49   143   144    1
    50   152   151    1
    51   152   153    1
    52   100    99    2
    53   115   117   ar
    54   145   151   am
    55   145   144    1
    56   144   147    1
    57   104    99   am
    58   122   121    2
    59    99    98    1
    60   121   120    1
    61   153   161   am
    62   153   154    2
    63   161   162    1
    64   163   164    2
    65   163   162    1
    66    97    98    1
    67    98   101    1
    68   101   102    1
    69   101   103    1
    70   162   165    1
    71   167   165    1
    72   147   149    1
    73   147   148    1
    74   119   120    1
    75   120   123    1
    76   148   150    1
    77    92    91    1
    78    92    93    2
    79   165   166    1
    80    59    57    1
    81   123   124    1
    82    91    90    1
    83    91    94    1
    84    95    94    1
    85    94    96    1
    86    52    51    1
    87    57    58    1
    88    57    54    1
    89   124   125    1
    90   124   126    1
    91    53    54    1
    92    48    51    1
    93    48    49    1
    94    48    47    1
    95    49    50    2
    96    54    55    1
    97    32    31    1
    98    55    56    2
    99    65    64    1
   100    64    61    1
   101    30    31   ar
   102    30    28   ar
   103    46    45    1
   104    31    29   ar
   105    43    42    1
   106    43    44    2
   107    42    45    1
   108    42    41    1
   109    40    38    1
   110    28    26   ar
   111    38    37    1
   112    61    60    1
   113    61    62    1
   114    29    27   ar
   115    81    80   ar
   116    16    14    1
   117     9     8    2
   118    39    37    1
   119    13    14    2
   120    13    12    1
   121    82    80   ar
   122    26    27   ar
   123    26    25    1
   124    62    66   am
   125    62    63    2
   126    11    12    1
   127    11    10    1
   128    37    34    1
   129    80    79    1
   130    66    67    1
   131    14    15    1
   132     8     7    1
   133     8    17   am
   134    34    33    1
   135    34    35    1
   136     7    10    1
   137     7     6    1
   138    18    17    1
   139    18    19    1
   140     4     3    2
   141    20    19    2
   142    33    23   am
   143    70    67    1
   144    70    71    1
   145    25    22    1
   146    36    35    2
   147    67    68    1
   148    24    23    2
   149    79    78    1
   150    23    22    1
   151    78    75    1
   152   179   180    1
   153    73    71   am
   154   182   181    2
   155     6     3   am
   156     3     2    1
   157    71    72    2
   158    22    21    1
   159   181   180    1
   160   181   184   am
   161   180   183    1
   162    68    69    2
   163    75    74    1
   164    75    76    1
   165   186   185    1
   166   186   187    2
   167     5     2    1
   168     2     1    1
   169   184   185    1
   170   185   188    1
   171    76    77    2
   172    76    83   am
   173   190   192   ar
   174   190   189   ar
   175   192   194   ar
   176    83    84    1
   177   188   189    1
   178    88    87    1
   179    87    84    1
   180    87    89    1
   181   189   191   ar
   182   194   195    1
   183   194   193   ar
   184    84    85    1
   185   191   193   ar
   186    85    86    2
