@<TRIPOS>MOLECULE
tmp/5ajzA01.pdb
 163 155 0 0 0
SMALL
GASTEIGER

@<TRIPOS>ATOM
      1  N        -45.7180  -43.4420   -5.1760 N.3    39  ALA39      -0.1231
      2  CA       -44.8600  -44.0110   -6.2250 C.3    39  ALA39       0.1694
      3  C        -45.1400  -43.4040   -7.6100 C.2    39  ALA39       0.2592
      4  O        -45.0360  -44.0800   -8.6370 O.2    39  ALA39      -0.2718
      5  CB       -44.9420  -45.5410   -6.2540 C.3    39  ALA39       0.0304
      6  N        -45.4690  -42.1060   -7.6210 N.am   40  ARG40      -0.1966
      7  CA       -45.7300  -41.3610   -8.8440 C.3    40  ARG40       0.1729
      8  C        -44.6300  -40.3270   -9.1100 C.2    40  ARG40       0.2616
      9  O        -44.7760  -39.4790   -9.9770 O.2    40  ARG40      -0.2715
     10  CB       -47.1390  -40.7460   -8.8290 C.3    40  ARG40       0.0348
     11  CG       -48.1620  -41.5700   -9.6150 C.3    40  ARG40       0.0492
     12  CD       -48.5470  -42.8330   -8.8920 C.3    40  ARG40       0.2205
     13  NE       -49.4840  -43.6480   -9.6600 N.pl3  40  ARG40      -0.0865
     14  CZ       -49.9320  -44.8370   -9.2680 C.cat  40  ARG40       0.5346
     15  NH1      -49.5370  -45.3570   -8.1080 N.pl3  40  ARG40       0.1354
     16  NH2      -50.7790  -45.5150  -10.0300 N.pl3  40  ARG40       0.1354
     17  N        -43.5160  -40.4470   -8.3950 N.am   41  GLY41      -0.1955
     18  CA       -42.3630  -39.5730   -8.5680 C.3    41  GLY41       0.1869
     19  C        -42.5290  -38.1730   -8.0070 C.2    41  GLY41       0.2309
     20  O        -41.7690  -37.2830   -8.4000 O.2    41  GLY41      -0.2863
     21  N        -39.3870  -37.1930   -6.2080 N.3    44  TYR44      -0.1227
     22  CA       -38.3740  -37.0490   -7.2440 C.3    44  TYR44       0.1736
     23  C        -38.5300  -35.6530   -7.8980 C.2    44  TYR44       0.2595
     24  O        -37.5460  -34.9160   -7.9800 O.2    44  TYR44      -0.2718
     25  CB       -38.4790  -38.1970   -8.2620 C.3    44  TYR44       0.0548
     26  CG       -37.4660  -38.0890   -9.3790 C.ar   44  TYR44      -0.0200
     27  CD1      -37.7260  -37.3190  -10.5120 C.ar   44  TYR44      -0.0009
     28  CD2      -36.2260  -38.7160   -9.2860 C.ar   44  TYR44      -0.0009
     29  CE1      -36.7880  -37.1980  -11.5350 C.ar   44  TYR44       0.0417
     30  CE2      -35.2770  -38.5980  -10.2990 C.ar   44  TYR44       0.0417
     31  CZ       -35.5630  -37.8400  -11.4270 C.ar   44  TYR44       0.1957
     32  OH       -34.6300  -37.7260  -12.4360 O.3    44  TYR44      -0.2866
     33  N        -39.7730  -35.2800   -8.2870 N.am   45  ILE45      -0.1980
     34  CA       -40.0890  -33.9740   -8.8710 C.3    45  ILE45       0.1595
     35  C        -39.7510  -32.8430   -7.8840 C.2    45  ILE45       0.2287
     36  O        -39.0300  -31.9150   -8.2490 O.2    45  ILE45      -0.2864
     37  CB       -41.5420  -33.8830   -9.3970 C.3    45  ILE45       0.0276
     38  CG1      -41.7740  -34.8790  -10.5710 C.3    45  ILE45       0.0022
     39  CG2      -41.8650  -32.4460   -9.8110 C.3    45  ILE45       0.0022
     40  CD1      -43.2730  -35.3270  -10.7680 C.3    45  ILE45       0.0001
     41  N        -48.8230  -35.7180  -10.7180 N.3   147  SER147     -0.1217
     42  CA       -48.1970  -36.7780  -11.4910 C.3   147  SER147      0.1889
     43  C        -49.2010  -37.9440  -11.5940 C.2   147  SER147      0.2288
     44  O        -49.5940  -38.5180  -10.5760 O.2   147  SER147     -0.2866
     45  CB       -46.8790  -37.2040  -10.8640 C.3   147  SER147      0.2089
     46  OG       -46.3460  -38.2610  -11.6350 O.3   147  SER147     -0.2183
     47  N        -50.1330  -41.6130  -13.5110 N.3   149  CYS149     -0.1235
     48  CA       -49.6070  -42.7880  -14.2140 C.3   149  CYS149      0.1677
     49  C        -50.3000  -44.0540  -13.7890 C.2   149  CYS149      0.2270
     50  O        -50.3560  -44.3590  -12.5990 O.2   149  CYS149     -0.2867
     51  CB       -48.0940  -42.9150  -14.0770 C.3   149  CYS149      0.0956
     52  SG       -47.3880  -44.2890  -15.0210 S.3   149  CYS149     -0.0801
     53  N        -43.9430  -48.9360  -14.2840 N.3   154  VAL154     -0.1231
     54  CA       -43.4340  -47.6650  -13.7670 C.3   154  VAL154      0.1692
     55  C        -43.5470  -47.6340  -12.2350 C.2   154  VAL154      0.2591
     56  O        -42.5950  -47.2290  -11.5570 O.2   154  VAL154     -0.2718
     57  CB       -44.1630  -46.4550  -14.4300 C.3   154  VAL154      0.0266
     58  CG1      -43.8590  -45.1460  -13.7020 C.3   154  VAL154      0.0020
     59  CG2      -43.8200  -46.3420  -15.9160 C.3   154  VAL154      0.0020
     60  N        -44.7100  -48.0550  -11.7050 N.am  155  VAL155     -0.1980
     61  CA       -44.9990  -48.0960  -10.2630 C.3   155  VAL155      0.1595
     62  C        -44.0280  -49.0670   -9.5610 C.2   155  VAL155      0.2287
     63  O        -43.3810  -48.6740   -8.5830 O.2   155  VAL155     -0.2864
     64  CB       -46.5080  -48.4070   -9.9770 C.3   155  VAL155      0.0276
     65  CG1      -46.7710  -48.6220   -8.4900 C.3   155  VAL155      0.0022
     66  CG2      -47.4140  -47.3010  -10.5230 C.3   155  VAL155      0.0022
     67  N        -40.3660  -47.7240   -9.5020 N.3   158  ASN158     -0.1240
     68  CA       -40.2340  -46.6800   -8.4840 C.3   158  ASN158      0.1653
     69  C        -40.1170  -47.2910   -7.0770 C.2   158  ASN158      0.2266
     70  O        -39.3170  -46.8100   -6.2700 O.2   158  ASN158     -0.2867
     71  CB       -41.4030  -45.6790   -8.5680 C.3   158  ASN158      0.1155
     72  CG       -41.3110  -44.5340   -7.5820 C.2   158  ASN158      0.2627
     73  OD1      -41.6210  -44.6750   -6.4000 O.2   158  ASN158     -0.2716
     74  ND2      -40.8660  -43.3790   -8.0420 N.am  158  ASN158     -0.0877
     75  N        -48.6080  -33.8860  -15.1410 N.3   209  VAL209     -0.1245
     76  CA       -47.5270  -34.6610  -15.7600 C.3   209  VAL209      0.1561
     77  C        -48.1790  -36.0370  -15.9270 C.2   209  VAL209      0.2260
     78  O        -48.4910  -36.7020  -14.9360 O.2   209  VAL209     -0.2867
     79  CB       -46.2390  -34.7350  -14.8780 C.3   209  VAL209      0.0252
     80  CG1      -45.1630  -35.6010  -15.5400 C.3   209  VAL209      0.0019
     81  CG2      -45.6950  -33.3400  -14.5390 C.3   209  VAL209      0.0019
     82  N        -45.3240  -40.3600  -17.0350 N.3   212  VAL212     -0.1231
     83  CA       -43.9040  -40.0390  -16.8350 C.3   212  VAL212      0.1692
     84  C        -43.4010  -38.9950  -17.9090 C.2   212  VAL212      0.2592
     85  O        -42.3590  -39.1710  -18.5480 O.2   212  VAL212     -0.2718
     86  CB       -43.0090  -41.3200  -16.7150 C.3   212  VAL212      0.0266
     87  CG1      -41.7210  -41.0210  -15.9640 C.3   212  VAL212      0.0020
     88  CG2      -43.7580  -42.4450  -16.0070 C.3   212  VAL212      0.0020
     89  N        -44.1650  -37.9190  -18.0760 N.am  213  GLY213     -0.1957
     90  CA       -43.8040  -36.8090  -18.9500 C.3   213  GLY213      0.1869
     91  C        -44.0080  -36.9870  -20.4360 C.2   213  GLY213      0.2309
     92  O        -43.3960  -36.2720  -21.2300 O.2   213  GLY213     -0.2863
     93  N        -48.7240  -33.4740  -21.1190 N.3   216  PHE216     -0.1241
     94  CA       -48.9160  -32.4600  -20.0940 C.3   216  PHE216      0.1605
     95  C        -50.1950  -31.6960  -20.2770 C.2   216  PHE216      0.2264
     96  O        -50.5270  -31.2970  -21.3880 O.2   216  PHE216     -0.2867
     97  CB       -47.7260  -31.4540  -20.0520 C.3   216  PHE216      0.0534
     98  CG       -46.3470  -32.0650  -19.8870 C.ar  216  PHE216     -0.0203
     99  CD1      -45.5900  -32.4330  -21.0010 C.ar  216  PHE216     -0.0042
    100  CD2      -45.8040  -32.2680  -18.6210 C.ar  216  PHE216     -0.0042
    101  CE1      -44.3170  -33.0070  -20.8490 C.ar  216  PHE216     -0.0003
    102  CE2      -44.5290  -32.8370  -18.4700 C.ar  216  PHE216     -0.0003
    103  CZ       -43.7900  -33.1920  -19.5840 C.ar  216  PHE216     -0.0000
    104  N        -39.8980  -29.1330  -16.4760 N.3   233  LEU233     -0.1231
    105  CA       -40.5920  -30.4250  -16.4530 C.3   233  LEU233      0.1693
    106  C        -40.7290  -31.0410  -17.8250 C.2   233  LEU233      0.2592
    107  O        -40.6030  -32.2540  -17.9710 O.2   233  LEU233     -0.2718
    108  CB       -41.9600  -30.2910  -15.7660 C.3   233  LEU233      0.0284
    109  CG       -41.9070  -30.0050  -14.2570 C.3   233  LEU233      0.0019
    110  CD1      -43.3010  -29.7410  -13.7050 C.3   233  LEU233      0.0001
    111  CD2      -41.1850  -31.1350  -13.4960 C.3   233  LEU233      0.0001
    112  N        -40.8890  -30.2000  -18.8440 N.am  234  MET234     -0.1965
    113  CA       -40.9570  -30.6410  -20.2270 C.3   234  MET234      0.1736
    114  C        -39.6110  -30.9930  -20.8330 C.2   234  MET234      0.2616
    115  O        -39.6000  -31.6430  -21.8700 O.2   234  MET234     -0.2715
    116  CB       -41.6350  -29.5840  -21.0680 C.3   234  MET234      0.0427
    117  CG       -43.0870  -29.4860  -20.7840 C.3   234  MET234      0.0599
    118  SD       -43.8980  -28.4200  -21.9610 S.3   234  MET234     -0.1393
    119  CE       -45.4320  -28.2360  -21.0710 C.3   234  MET234      0.0692
    120  N        -38.4830  -30.5730  -20.2120 N.am  235  ASN235     -0.1958
    121  CA       -37.1220  -30.8070  -20.7210 C.3   235  ASN235      0.1819
    122  C        -36.3910  -31.9340  -20.0390 C.2   235  ASN235      0.2621
    123  O        -35.5650  -32.5890  -20.6700 O.2   235  ASN235     -0.2715
    124  CB       -36.2880  -29.5300  -20.6760 C.3   235  ASN235      0.1195
    125  CG       -36.7180  -28.5570  -21.7370 C.2   235  ASN235      0.2630
    126  OD1      -37.0980  -28.9320  -22.8440 O.2   235  ASN235     -0.2716
    127  ND2      -36.6520  -27.2910  -21.4280 N.am  235  ASN235     -0.0877
    128  N        -36.7090  -32.1790  -18.7620 N.am  236  ILE236     -0.1963
    129  CA       -36.1080  -33.2790  -18.0180 C.3   236  ILE236      0.1727
    130  C        -36.7060  -34.5830  -18.5250 C.2   236  ILE236      0.2616
    131  O        -37.7180  -34.5530  -19.2140 O.2   236  ILE236     -0.2715
    132  CB       -36.2560  -33.0970  -16.4780 C.3   236  ILE236      0.0290
    133  CG1      -37.7390  -33.2390  -15.9990 C.3   236  ILE236      0.0022
    134  CG2      -35.6110  -31.7750  -16.0350 C.3   236  ILE236      0.0023
    135  CD1      -37.9490  -33.4180  -14.3790 C.3   236  ILE236      0.0001
    136  N        -36.0560  -35.7090  -18.2360 N.am  237  HIS237     -0.1959
    137  CA       -36.5240  -37.0540  -18.5950 C.3   237  HIS237      0.1787
    138  C        -35.9390  -37.9960  -17.5630 C.2   237  HIS237      0.2620
    139  O        -35.0410  -37.5980  -16.8020 O.2   237  HIS237     -0.2715
    140  CB       -36.1050  -37.4560  -20.0350 C.3   237  HIS237      0.0785
    141  CG       -34.6220  -37.5200  -20.2350 C.ar  237  HIS237      0.0821
    142  ND1      -33.8840  -38.6190  -19.8350 N.ar  237  HIS237     -0.2267
    143  CD2      -33.7850  -36.6030  -20.7610 C.ar  237  HIS237      0.1154
    144  CE1      -32.6320  -38.3420  -20.1440 C.ar  237  HIS237      0.1986
    145  NE2      -32.5240  -37.1370  -20.6920 N.ar  237  HIS237     -0.2212
    146  N        -36.4510  -39.2290  -17.5240 N.am  238  VAL238     -0.1977
    147  CA       -36.0020  -40.2560  -16.5730 C.3   238  VAL238      0.1596
    148  C        -35.2750  -41.4020  -17.2900 C.2   238  VAL238      0.2287
    149  O        -35.0570  -42.4550  -16.6980 O.2   238  VAL238     -0.2864
    150  CB       -37.1280  -40.7510  -15.6300 C.3   238  VAL238      0.0276
    151  CG1      -37.6640  -39.6050  -14.7620 C.3   238  VAL238      0.0022
    152  CG2      -38.2500  -41.4260  -16.4140 C.3   238  VAL238      0.0022
    153  N        -32.2340  -32.2550  -21.3250 N.3   373  ARG373     -0.1245
    154  CA       -32.8690  -32.8370  -22.5320 C.3   373  ARG373      0.1563
    155  C        -32.0980  -34.0190  -23.1280 C.2   373  ARG373      0.2260
    156  O        -32.6920  -34.9360  -23.6970 O.2   373  ARG373     -0.2867
    157  CB       -32.9920  -31.7820  -23.6450 C.3   373  ARG373      0.0307
    158  CG       -33.9750  -30.6400  -23.4010 C.3   373  ARG373      0.0489
    159  CD       -34.5290  -30.1100  -24.7360 C.3   373  ARG373      0.2205
    160  NE       -35.0640  -31.2190  -25.5300 N.pl3 373  ARG373     -0.0865
    161  CZ       -36.3000  -31.7100  -25.4330 C.cat 373  ARG373      0.5346
    162  NH1      -37.1950  -31.1330  -24.6390 N.pl3 373  ARG373      0.1354
    163  NH2      -36.6530  -32.7760  -26.1390 N.pl3 373  ARG373      0.1354
@<TRIPOS>BOND
     1   163   161    1
     2   160   161    2
     3   160   159    1
     4   161   162    1
     5   159   158    1
     6   156   155    2
     7   157   158    1
     8   157   154    1
     9   155   154    1
    10   126   125    2
    11   154   153    1
    12   118   119    1
    13   118   117    1
    14   115   114    2
    15   125   127   am
    16   125   124    1
    17    96    95    2
    18    92    91    2
    19    93    94    1
    20   116   117    1
    21   116   113    1
    22    99   101   ar
    23    99    98   ar
    24   101   103   ar
    25   114   113    1
    26   114   120   am
    27   143   145   ar
    28   143   141   ar
    29   121   124    1
    30   121   120    1
    31   121   122    1
    32   145   144   ar
    33   123   122    2
    34    91    90    1
    35    95    94    1
    36   141   140    1
    37   141   142   ar
    38   113   112    1
    39   144   142   ar
    40    94    97    1
    41    97    98    1
    42   122   128   am
    43   140   137    1
    44    98   100   ar
    45   103   102   ar
    46   131   130    2
    47    90    89    1
    48   112   106   am
    49   128   129    1
    50   100   102   ar
    51   137   136    1
    52   137   138    1
    53    85    84    2
    54   130   136   am
    55   130   129    1
    56    89    84   am
    57   129   132    1
    58   107   106    2
    59    84    83    1
    60   106   105    1
    61   138   146   am
    62   138   139    2
    63   146   147    1
    64   148   149    2
    65   148   147    1
    66    82    83    1
    67    83    86    1
    68    86    88    1
    69    86    87    1
    70   147   150    1
    71   132   134    1
    72   132   133    1
    73   104   105    1
    74   105   108    1
    75   152   150    1
    76   133   135    1
    77    77    76    1
    78    77    78    2
    79    59    57    1
    80   108   109    1
    81    76    75    1
    82    76    79    1
    83   150   151    1
    84    80    79    1
    85    52    51    1
    86    79    81    1
    87    57    54    1
    88    57    58    1
    89    53    54    1
    90   109   110    1
    91   109   111    1
    92    48    51    1
    93    48    49    1
    94    48    47    1
    95    49    50    2
    96    54    55    1
    97    32    31    1
    98    55    60   am
    99    55    56    2
   100    60    61    1
   101    46    45    1
   102    43    42    1
   103    43    44    2
   104    29    31   ar
   105    29    27   ar
   106    42    45    1
   107    42    41    1
   108    31    30   ar
   109    40    38    1
   110    38    37    1
   111    66    64    1
   112    27    26   ar
   113    30    28   ar
   114    61    64    1
   115    61    62    1
   116    16    14    1
   117     9     8    2
   118    64    65    1
   119    39    37    1
   120    13    14    2
   121    13    12    1
   122    11    12    1
   123    11    10    1
   124    62    63    2
   125    67    68    1
   126    37    34    1
   127    26    28   ar
   128    26    25    1
   129    14    15    1
   130     8     7    1
   131     8    17   am
   132    34    33    1
   133    34    35    1
   134     7    10    1
   135     7     6    1
   136     4     3    2
   137    71    68    1
   138    71    72    1
   139    18    17    1
   140    18    19    1
   141    68    69    1
   142    20    19    2
   143    33    23   am
   144    25    22    1
   145    36    35    2
   146    74    72   am
   147    24    23    2
   148    23    22    1
   149     6     3   am
   150     3     2    1
   151    72    73    2
   152    22    21    1
   153    69    70    2
   154     5     2    1
   155     2     1    1
