@<TRIPOS>MOLECULE
tmp/5ak0A01.pdb
 205 196 0 0 0
SMALL
GASTEIGER

@<TRIPOS>ATOM
      1  N        -46.3550  -43.6850   -5.3860 N.3    41  ALA41      -0.1231
      2  CA       -45.5470  -44.2710   -6.4790 C.3    41  ALA41       0.1694
      3  C        -45.8240  -43.6240   -7.8480 C.2    41  ALA41       0.2592
      4  O        -45.6630  -44.2590   -8.8980 O.2    41  ALA41      -0.2718
      5  CB       -45.7220  -45.8070   -6.5310 C.3    41  ALA41       0.0304
      6  N        -46.2460  -42.3550   -7.8390 N.am   42  ARG42      -0.1966
      7  CA       -46.5100  -41.6060   -9.0740 C.3    42  ARG42       0.1729
      8  C        -45.3840  -40.5990   -9.3840 C.2    42  ARG42       0.2616
      9  O        -45.5390  -39.7130  -10.2290 O.2    42  ARG42      -0.2715
     10  CB       -47.9140  -40.9560   -9.0510 C.3    42  ARG42       0.0348
     11  CG       -49.0190  -41.8470   -9.6710 C.3    42  ARG42       0.0492
     12  CD       -49.2280  -43.2000   -8.9880 C.3    42  ARG42       0.2205
     13  NE       -50.1840  -44.0510   -9.7240 N.pl3  42  ARG42      -0.0865
     14  CZ       -50.4630  -45.3160   -9.4130 C.cat  42  ARG42       0.5346
     15  NH1      -49.8680  -45.9020   -8.3770 N.pl3  42  ARG42       0.1354
     16  NH2      -51.3020  -46.0200  -10.1600 N.pl3  42  ARG42       0.1354
     17  N        -44.2430  -40.7700   -8.7230 N.am   43  GLY43      -0.1955
     18  CA       -43.0960  -39.8900   -8.9340 C.3    43  GLY43       0.1869
     19  C        -43.2480  -38.4830   -8.3690 C.2    43  GLY43       0.2309
     20  O        -42.5140  -37.5930   -8.7940 O.2    43  GLY43      -0.2863
     21  N        -39.9940  -37.5290   -6.6170 N.3    46  TYR46      -0.1227
     22  CA       -38.9640  -37.3230   -7.6610 C.3    46  TYR46       0.1736
     23  C        -39.1330  -35.9340   -8.2900 C.2    46  TYR46       0.2595
     24  O        -38.1480  -35.1830   -8.3810 O.2    46  TYR46      -0.2718
     25  CB       -38.9630  -38.4530   -8.7200 C.3    46  TYR46       0.0548
     26  CG       -38.4190  -38.0380  -10.0750 C.ar   46  TYR46      -0.0200
     27  CD1      -39.2540  -37.4860  -11.0430 C.ar   46  TYR46      -0.0009
     28  CD2      -37.0710  -38.2110  -10.3970 C.ar   46  TYR46      -0.0009
     29  CE1      -38.7650  -37.0890  -12.2820 C.ar   46  TYR46       0.0417
     30  CE2      -36.5730  -37.8400  -11.6560 C.ar   46  TYR46       0.0417
     31  CZ       -37.4280  -37.2750  -12.5910 C.ar   46  TYR46       0.1957
     32  OH       -36.9870  -36.8630  -13.8350 O.3    46  TYR46      -0.2866
     33  N        -40.3810  -35.5770   -8.6720 N.am   47  ILE47      -0.1980
     34  CA       -40.6800  -34.2420   -9.2470 C.3    47  ILE47       0.1595
     35  C        -40.3490  -33.1170   -8.2320 C.2    47  ILE47       0.2287
     36  O        -39.7290  -32.1130   -8.6080 O.2    47  ILE47      -0.2864
     37  CB       -42.1350  -34.1070   -9.7570 C.3    47  ILE47       0.0276
     38  CG1      -42.3890  -35.0290  -10.9790 C.3    47  ILE47       0.0022
     39  CG2      -42.4640  -32.6110  -10.0960 C.3    47  ILE47       0.0022
     40  CD1      -43.8660  -35.2160  -11.3170 C.3    47  ILE47       0.0001
     41  N        -49.6100  -36.0300  -10.8420 N.3   149  SER149     -0.1217
     42  CA       -49.0030  -37.0720  -11.6700 C.3   149  SER149      0.1889
     43  C        -49.9870  -38.2500  -11.6740 C.2   149  SER149      0.2288
     44  O        -50.3300  -38.7610  -10.6020 O.2   149  SER149     -0.2866
     45  CB       -47.6410  -37.4860  -11.1230 C.3   149  SER149      0.2089
     46  OG       -47.1170  -38.5330  -11.9210 O.3   149  SER149     -0.2183
     47  N        -50.8400  -41.9810  -13.5000 N.3   151  CYS151     -0.1235
     48  CA       -50.1710  -43.0690  -14.1960 C.3   151  CYS151      0.1677
     49  C        -50.9050  -44.3830  -13.9190 C.2   151  CYS151      0.2270
     50  O        -51.3110  -44.6160  -12.7800 O.2   151  CYS151     -0.2867
     51  CB       -48.7110  -43.1330  -13.7500 C.3   151  CYS151      0.0956
     52  SG       -47.6770  -44.2190  -14.7510 S.3   151  CYS151     -0.0801
     53  N        -46.5440  -47.7860  -13.7990 N.3   156  VAL156     -0.1245
     54  CA       -45.8690  -47.5700  -12.5080 C.3   156  VAL156      0.1561
     55  C        -44.8850  -48.7360  -12.2370 C.2   156  VAL156      0.2260
     56  O        -43.7270  -48.4970  -11.8910 O.2   156  VAL156     -0.2867
     57  CB       -46.8780  -47.3890  -11.3330 C.3   156  VAL156      0.0252
     58  CG1      -46.1870  -47.5050   -9.9750 C.3   156  VAL156      0.0019
     59  CG2      -47.6270  -46.0600  -11.4440 C.3   156  VAL156      0.0019
     60  N        -41.8700  -48.6940  -14.5320 N.3   159  SER159     -0.1202
     61  CA       -40.9890  -47.5460  -14.2530 C.3   159  SER159      0.2020
     62  C        -39.9080  -47.8210  -13.2000 C.2   159  SER159      0.2619
     63  O        -38.9200  -47.0900  -13.1490 O.2   159  SER159     -0.2717
     64  CB       -41.8080  -46.3230  -13.8330 C.3   159  SER159      0.2103
     65  OG       -42.1680  -46.3950  -12.4620 O.3   159  SER159     -0.2182
     66  N        -40.1410  -48.8120  -12.3140 N.am  160  ASN160     -0.1960
     67  CA       -39.2600  -49.2210  -11.2060 C.3   160  ASN160      0.1819
     68  C        -39.1280  -48.1730  -10.0690 C.2   160  ASN160      0.2621
     69  O        -38.2270  -48.2890   -9.2270 O.2   160  ASN160     -0.2715
     70  CB       -37.8790  -49.6840  -11.7090 C.3   160  ASN160      0.1195
     71  CG       -37.9580  -50.9630  -12.5070 C.2   160  ASN160      0.2630
     72  OD1      -38.3940  -52.0070  -12.0050 O.2   160  ASN160     -0.2716
     73  ND2      -37.5670  -50.9020  -13.7770 N.am  160  ASN160     -0.0877
     74  N        -40.0820  -47.2110   -9.9860 N.am  161  ILE161     -0.1977
     75  CA       -40.1360  -46.1980   -8.9070 C.3   161  ILE161      0.1596
     76  C        -40.3370  -46.8620   -7.5090 C.2   161  ILE161      0.2287
     77  O        -39.8450  -46.3440   -6.5040 O.2   161  ILE161     -0.2864
     78  CB       -41.2290  -45.1050   -9.1970 C.3   161  ILE161      0.0276
     79  CG1      -41.1660  -43.9010   -8.2240 C.3   161  ILE161      0.0022
     80  CG2      -42.6430  -45.6880   -9.2450 C.3   161  ILE161      0.0022
     81  CD1      -39.9660  -43.0230   -8.3700 C.3   161  ILE161      0.0001
     82  N        -37.3640  -47.4010   -5.3550 N.3   164  VAL164     -0.1245
     83  CA       -36.9070  -46.1900   -4.6580 C.3   164  VAL164      0.1561
     84  C        -37.7820  -45.9790   -3.4060 C.2   164  VAL164      0.2260
     85  O        -37.2840  -45.6130   -2.3300 O.2   164  VAL164     -0.2867
     86  CB       -36.9110  -44.9270   -5.5710 C.3   164  VAL164      0.0252
     87  CG1      -36.3480  -43.7170   -4.8360 C.3   164  VAL164      0.0019
     88  CG2      -36.1400  -45.1730   -6.8690 C.3   164  VAL164      0.0019
     89  N        -49.4030  -34.3290  -15.2250 N.3   211  VAL211     -0.1245
     90  CA       -48.3240  -35.0620  -15.9000 C.3   211  VAL211      0.1561
     91  C        -48.9330  -36.4570  -16.0380 C.2   211  VAL211      0.2260
     92  O        -49.2410  -37.1030  -15.0240 O.2   211  VAL211     -0.2867
     93  CB       -47.0140  -35.0900  -15.0450 C.3   211  VAL211      0.0252
     94  CG1      -45.9190  -35.9310  -15.7170 C.3   211  VAL211      0.0019
     95  CG2      -46.5180  -33.6750  -14.7290 C.3   211  VAL211      0.0019
     96  N        -45.9320  -40.7240  -17.0060 N.3   214  VAL214     -0.1231
     97  CA       -44.4860  -40.4390  -16.9870 C.3   214  VAL214      0.1692
     98  C        -44.0880  -39.4790  -18.1580 C.2   214  VAL214      0.2593
     99  O        -43.0710  -39.6820  -18.8210 O.2   214  VAL214     -0.2718
    100  CB       -43.6030  -41.7540  -16.9120 C.3   214  VAL214      0.0266
    101  CG1      -42.2250  -41.4700  -16.3110 C.3   214  VAL214      0.0020
    102  CG2      -44.2970  -42.8610  -16.1040 C.3   214  VAL214      0.0020
    103  N        -44.8960  -38.4410  -18.3710 N.am  215  GLY215     -0.1942
    104  CA       -44.6340  -37.3840  -19.3470 C.3   215  GLY215      0.2014
    105  C        -45.0410  -37.6380  -20.7810 C.2   215  GLY215      0.2638
    106  O        -44.6370  -36.8810  -21.6640 O.2   215  GLY215     -0.2714
    107  N        -45.8510  -38.6670  -21.0430 N.am  216  ARG216     -0.1977
    108  CA       -46.2950  -38.9270  -22.4120 C.3   216  ARG216      0.1597
    109  C        -47.2670  -37.8270  -22.8650 C.2   216  ARG216      0.2287
    110  O        -47.3010  -37.4690  -24.0410 O.2   216  ARG216     -0.2864
    111  CB       -46.9370  -40.3180  -22.5220 C.3   216  ARG216      0.0334
    112  CG       -47.3870  -40.7120  -23.9340 C.3   216  ARG216      0.0492
    113  CD       -47.8500  -42.1740  -23.9990 C.3   216  ARG216      0.2205
    114  NE       -48.9890  -42.4590  -23.1220 N.pl3 216  ARG216     -0.0865
    115  CZ       -50.2350  -42.0330  -23.3400 C.cat 216  ARG216      0.5346
    116  NH1      -50.5290  -41.2980  -24.4120 N.pl3 216  ARG216      0.1354
    117  NH2      -51.1960  -42.3360  -22.4750 N.pl3 216  ARG216      0.1354
    118  N        -49.5270  -34.0170  -21.1670 N.3   218  PHE218     -0.1241
    119  CA       -49.6970  -32.9720  -20.1540 C.3   218  PHE218      0.1605
    120  C        -50.9710  -32.1970  -20.4010 C.2   218  PHE218      0.2264
    121  O        -51.3080  -31.8840  -21.5500 O.2   218  PHE218     -0.2867
    122  CB       -48.5240  -31.9620  -20.1700 C.3   218  PHE218      0.0534
    123  CG       -47.1460  -32.5540  -19.9600 C.ar  218  PHE218     -0.0203
    124  CD1      -46.3820  -32.9840  -21.0420 C.ar  218  PHE218     -0.0042
    125  CD2      -46.6020  -32.6630  -18.6810 C.ar  218  PHE218     -0.0042
    126  CE1      -45.1070  -33.5380  -20.8440 C.ar  218  PHE218     -0.0003
    127  CE2      -45.3170  -33.1850  -18.4890 C.ar  218  PHE218     -0.0003
    128  CZ       -44.5810  -33.6230  -19.5680 C.ar  218  PHE218     -0.0000
    129  N        -40.4840  -29.4140  -16.9620 N.3   235  LEU235     -0.1231
    130  CA       -41.1050  -30.7540  -16.9400 C.3   235  LEU235      0.1693
    131  C        -41.1530  -31.3980  -18.3150 C.2   235  LEU235      0.2592
    132  O        -41.0680  -32.6270  -18.4350 O.2   235  LEU235     -0.2718
    133  CB       -42.5120  -30.7320  -16.2790 C.3   235  LEU235      0.0284
    134  CG       -42.5380  -30.3710  -14.7790 C.3   235  LEU235      0.0019
    135  CD1      -43.9920  -30.2170  -14.2770 C.3   235  LEU235      0.0001
    136  CD2      -41.7740  -31.3940  -13.9370 C.3   235  LEU235      0.0001
    137  N        -41.2280  -30.5630  -19.3660 N.am  236  MET236     -0.1965
    138  CA       -41.2240  -31.0810  -20.7320 C.3   236  MET236      0.1736
    139  C        -39.8040  -31.4400  -21.1950 C.2   236  MET236      0.2616
    140  O        -39.6720  -32.2000  -22.1330 O.2   236  MET236     -0.2715
    141  CB       -41.8800  -30.0760  -21.6700 C.3   236  MET236      0.0427
    142  CG       -43.4060  -30.1380  -21.5740 C.3   236  MET236      0.0599
    143  SD       -44.2040  -28.8980  -22.5820 S.3   236  MET236     -0.1393
    144  CE       -43.4230  -29.1010  -24.0110 C.3   236  MET236      0.0692
    145  N        -38.7500  -30.9250  -20.5230 N.am  237  ASN237     -0.1958
    146  CA       -37.3560  -31.2190  -20.9090 C.3   237  ASN237      0.1819
    147  C        -36.7080  -32.3850  -20.1390 C.2   237  ASN237      0.2621
    148  O        -35.8700  -33.0860  -20.7020 O.2   237  ASN237     -0.2715
    149  CB       -36.4980  -29.9510  -20.7970 C.3   237  ASN237      0.1195
    150  CG       -36.9060  -28.9410  -21.8580 C.2   237  ASN237      0.2630
    151  OD1      -37.2700  -29.2900  -22.9760 O.2   237  ASN237     -0.2716
    152  ND2      -36.9610  -27.6960  -21.5050 N.am  237  ASN237     -0.0877
    153  N        -37.1020  -32.6100  -18.8860 N.am  238  ILE238     -0.1963
    154  CA       -36.5290  -33.7240  -18.0940 C.3   238  ILE238      0.1727
    155  C        -37.1090  -35.0700  -18.5780 C.2   238  ILE238      0.2616
    156  O        -38.1080  -35.0780  -19.2970 O.2   238  ILE238     -0.2715
    157  CB       -36.7060  -33.5280  -16.5670 C.3   238  ILE238      0.0290
    158  CG1      -38.1960  -33.6800  -16.1460 C.3   238  ILE238      0.0022
    159  CG2      -36.0930  -32.1830  -16.1180 C.3   238  ILE238      0.0023
    160  CD1      -38.4610  -33.7030  -14.6770 C.3   238  ILE238      0.0001
    161  N        -36.4720  -36.1860  -18.2110 N.am  239  HIS239     -0.1959
    162  CA       -36.9020  -37.5340  -18.5950 C.3   239  HIS239      0.1787
    163  C        -36.2920  -38.5180  -17.6040 C.2   239  HIS239      0.2620
    164  O        -35.3730  -38.1630  -16.8590 O.2   239  HIS239     -0.2715
    165  CB       -36.4990  -37.8800  -20.0500 C.3   239  HIS239      0.0785
    166  CG       -35.0130  -37.9860  -20.2690 C.ar  239  HIS239      0.0821
    167  ND1      -34.3240  -39.1610  -20.0070 N.ar  239  HIS239     -0.2267
    168  CD2      -34.1300  -37.0500  -20.6990 C.ar  239  HIS239      0.1154
    169  CE1      -33.0530  -38.9030  -20.2870 C.ar  239  HIS239      0.1986
    170  NE2      -32.8890  -37.6470  -20.7100 N.ar  239  HIS239     -0.2212
    171  N        -36.7820  -39.7470  -17.6080 N.am  240  VAL240     -0.1977
    172  CA       -36.3050  -40.7710  -16.6730 C.3   240  VAL240      0.1596
    173  C        -35.4980  -41.8910  -17.3820 C.2   240  VAL240      0.2287
    174  O        -35.2320  -42.9170  -16.7640 O.2   240  VAL240     -0.2864
    175  CB       -37.4760  -41.3220  -15.8040 C.3   240  VAL240      0.0276
    176  CG1      -38.1510  -40.2070  -15.0070 C.3   240  VAL240      0.0022
    177  CG2      -38.4920  -42.0910  -16.6460 C.3   240  VAL240      0.0022
    178  N        -32.4420  -32.7630  -21.3170 N.3   375  ARG375     -0.1245
    179  CA       -33.0810  -33.3770  -22.4930 C.3   375  ARG375      0.1563
    180  C        -32.2630  -34.4960  -23.0880 C.2   375  ARG375      0.2260
    181  O        -32.8100  -35.4020  -23.6990 O.2   375  ARG375     -0.2867
    182  CB       -33.2450  -32.3220  -23.6180 C.3   375  ARG375      0.0307
    183  CG       -34.4610  -31.4330  -23.5350 C.3   375  ARG375      0.0489
    184  CD       -34.9770  -31.0500  -24.9410 C.3   375  ARG375      0.2205
    185  NE       -35.5990  -32.2040  -25.5940 N.pl3 375  ARG375     -0.0865
    186  CZ       -36.8800  -32.5650  -25.4780 C.cat 375  ARG375      0.5346
    187  NH1      -37.7320  -31.8160  -24.7780 N.pl3 375  ARG375      0.1354
    188  NH2      -37.3180  -33.6730  -26.0650 N.pl3 375  ARG375      0.1354
    189  N        -31.8710  -42.8430   -7.9130 N.3   420  ALA420     -0.1231
    190  CA       -32.9520  -42.4190   -7.0090 C.3   420  ALA420      0.1694
    191  C        -33.3760  -40.9560   -7.2850 C.2   420  ALA420      0.2592
    192  O        -33.8880  -40.6780   -8.3590 O.2   420  ALA420     -0.2718
    193  CB       -32.5610  -42.6370   -5.5440 C.3   420  ALA420      0.0304
    194  N        -33.0960  -40.0370   -6.3590 N.am  421  TYR421     -0.1976
    195  CA       -33.4360  -38.6190   -6.4650 C.3   421  TYR421      0.1639
    196  C        -32.1990  -37.7100   -6.6360 C.2   421  TYR421      0.2290
    197  O        -32.1300  -36.6210   -6.0420 O.2   421  TYR421     -0.2864
    198  CB       -34.2810  -38.1840   -5.2510 C.3   421  TYR421      0.0560
    199  CG       -35.5270  -39.0190   -5.0090 C.ar  421  TYR421     -0.0198
    200  CD1      -36.4020  -39.3220   -6.0480 C.ar  421  TYR421     -0.0009
    201  CD2      -35.8330  -39.4940   -3.7380 C.ar  421  TYR421     -0.0009
    202  CE1      -37.5350  -40.1060   -5.8340 C.ar  421  TYR421      0.0417
    203  CE2      -36.9860  -40.2440   -3.5050 C.ar  421  TYR421      0.0417
    204  CZ       -37.8430  -40.5320   -4.5540 C.ar  421  TYR421      0.1957
    205  OH       -38.9720  -41.2810   -4.3360 O.3   421  TYR421     -0.2866
@<TRIPOS>BOND
     1   188   186    1
     2   185   186    2
     3   185   184    1
     4   186   187    1
     5   184   183    1
     6   116   115    1
     7   110   109    2
     8   144   143    1
     9   113   112    1
    10   113   114    1
    11   112   111    1
    12   181   180    2
    13   182   183    1
    14   182   179    1
    15   115   114    2
    16   115   117    1
    17   180   179    1
    18   151   150    2
    19   109   108    1
    20   143   142    1
    21   111   108    1
    22   179   178    1
    23   108   107    1
    24   140   139    2
    25   150   152   am
    26   150   149    1
    27   141   142    1
    28   141   138    1
    29   106   105    2
    30   121   120    2
    31   139   138    1
    32   139   145   am
    33   118   119    1
    34   107   105   am
    35   124   126   ar
    36   124   123   ar
    37   146   149    1
    38   146   145    1
    39   146   147    1
    40   126   128   ar
    41   105   104    1
    42   138   137    1
    43   170   168   ar
    44   170   169   ar
    45   148   147    2
    46   168   166   ar
    47   120   119    1
    48   169   167   ar
    49   166   165    1
    50   166   167   ar
    51   122   119    1
    52   122   123    1
    53   147   153   am
    54   165   162    1
    55   123   125   ar
    56   128   127   ar
    57   137   131   am
    58   104   103    1
    59   156   155    2
    60   153   154    1
    61    99    98    2
    62   125   127   ar
    63   162   161    1
    64   162   163    1
    65   155   161   am
    66   155   154    1
    67   132   131    2
    68   103    98   am
    69   131   130    1
    70    98    97    1
    71   154   157    1
    72   171   163   am
    73   171   172    1
    74   163   164    2
    75   173   174    2
    76   173   172    1
    77    96    97    1
    78    97   100    1
    79   129   130    1
    80   130   133    1
    81   100   101    1
    82   100   102    1
    83   172   175    1
    84   177   175    1
    85   157   158    1
    86   157   159    1
    87   133   134    1
    88   158   160    1
    89    91    90    1
    90    91    92    2
    91    90    89    1
    92    90    93    1
    93   175   176    1
    94    94    93    1
    95    93    95    1
    96   134   135    1
    97   134   136    1
    98    52    51    1
    99    60    61    1
   100    61    64    1
   101    61    62    1
   102    48    49    1
   103    48    51    1
   104    48    47    1
   105    49    50    2
   106    32    31    1
   107    64    65    1
   108    53    54    1
   109    73    71   am
   110    62    63    2
   111    62    66   am
   112    31    29   ar
   113    31    30   ar
   114    54    55    1
   115    54    57    1
   116    71    72    2
   117    71    70    1
   118    66    67    1
   119    29    27   ar
   120    55    56    2
   121    46    45    1
   122    70    67    1
   123    43    42    1
   124    43    44    2
   125    42    45    1
   126    42    41    1
   127    30    28   ar
   128    59    57    1
   129    57    58    1
   130    40    38    1
   131    67    68    1
   132    27    26   ar
   133    38    37    1
   134    28    26   ar
   135     9     8    2
   136    16    14    1
   137    39    37    1
   138    26    25    1
   139    68    74   am
   140    68    69    2
   141    74    75    1
   142    37    34    1
   143    13    14    2
   144    13    12    1
   145    11    10    1
   146    11    12    1
   147    14    15    1
   148     8     7    1
   149     8    17   am
   150    34    33    1
   151    34    35    1
   152    80    78    1
   153    78    75    1
   154    78    79    1
   155     7    10    1
   156     7     6    1
   157    18    17    1
   158    18    19    1
   159    75    76    1
   160     4     3    2
   161    20    19    2
   162    25    22    1
   163    33    23   am
   164    36    35    2
   165    24    23    2
   166    81    79    1
   167   192   191    2
   168    23    22    1
   169   189   190    1
   170     3     6   am
   171     3     2    1
   172    22    21    1
   173    76    77    2
   174   191   190    1
   175   191   194   am
   176   190   193    1
   177    88    86    1
   178   196   195    1
   179   196   197    2
   180     5     2    1
   181     2     1    1
   182   195   194    1
   183   195   198    1
   184   200   202   ar
   185   200   199   ar
   186   202   204   ar
   187    86    87    1
   188    86    83    1
   189    82    83    1
   190   198   199    1
   191   199   201   ar
   192    83    84    1
   193   204   205    1
   194   204   203   ar
   195   201   203   ar
   196    84    85    2
