@<TRIPOS>MOLECULE
tmp/5ak2A00.pdb
 216 205 0 0 0
SMALL
GASTEIGER

@<TRIPOS>ATOM
      1  N         28.8400   16.5030    3.8910 N.3    31  MET31      -0.1245
      2  CA        29.5610   16.8570    5.1140 C.3    31  MET31       0.1570
      3  C         28.8560   17.8680    5.9850 C.2    31  MET31       0.2261
      4  O         28.8390   17.7270    7.2140 O.2    31  MET31      -0.2867
      5  CB        30.9830   17.3720    4.7950 C.3    31  MET31       0.0387
      6  CG        31.9640   16.2880    4.3460 C.3    31  MET31       0.0595
      7  SD        31.8690   14.6920    5.2090 S.3    31  MET31      -0.1393
      8  CE        32.0850   15.1720    6.9290 C.3    31  MET31       0.0692
      9  N         26.1490   16.0730    7.7960 N.3    34  LEU34      -0.1231
     10  CA        26.7090   15.2140    8.8450 C.3    34  LEU34       0.1693
     11  C         27.1730   16.0250   10.0720 C.2    34  LEU34       0.2592
     12  O         26.9770   15.6240   11.2190 O.2    34  LEU34      -0.2718
     13  CB        27.8550   14.3150    8.2770 C.3    34  LEU34       0.0284
     14  CG        27.4700   13.2910    7.1840 C.3    34  LEU34       0.0019
     15  CD1       28.5670   12.2960    6.8210 C.3    34  LEU34       0.0001
     16  CD2       26.1910   12.5540    7.5420 C.3    34  LEU34       0.0001
     17  N         27.8160   17.1580    9.8050 N.am   35  THR35      -0.1953
     18  CA        28.3170   18.0410   10.8520 C.3    35  THR35       0.1897
     19  C         27.1710   18.6180   11.6760 C.2    35  THR35       0.2313
     20  O         27.2060   18.5730   12.9050 O.2    35  THR35      -0.2863
     21  CB        29.1660   19.1840   10.2480 C.3    35  THR35       0.1794
     22  OG1       30.2420   18.6010    9.5280 O.3    35  THR35      -0.2208
     23  CG2       29.7780   20.0870   11.3220 C.3    35  THR35       0.0378
     24  N         24.3430   17.3080   12.1030 N.3    37  LEU37      -0.1231
     25  CA        23.8000   16.2190   12.8880 C.3    37  LEU37       0.1693
     26  C         24.6340   15.9750   14.1390 C.2    37  LEU37       0.2592
     27  O         24.0920   15.9410   15.2290 O.2    37  LEU37      -0.2718
     28  CB        23.6600   14.9490   12.0560 C.3    37  LEU37       0.0284
     29  CG        23.1430   13.7090   12.8070 C.3    37  LEU37       0.0019
     30  CD1       21.6900   13.9000   13.2470 C.3    37  LEU37       0.0001
     31  CD2       23.3020   12.4380   11.9850 C.3    37  LEU37       0.0001
     32  N         25.9490   15.8260   13.9450 N.am   38  ALA38      -0.1966
     33  CA        26.8940   15.5820   15.0010 C.3    38  ALA38       0.1728
     34  C         26.8240   16.7040   16.0230 C.2    38  ALA38       0.2616
     35  O         26.7190   16.4620   17.2370 O.2    38  ALA38      -0.2715
     36  CB        28.3180   15.4460   14.4440 C.3    38  ALA38       0.0334
     37  N         26.8790   17.9320   15.5270 N.am   39  ASP39      -0.1971
     38  CA        26.7260   19.0890   16.4040 C.3    39  ASP39       0.1709
     39  C         25.5290   18.9550   17.2970 C.2    39  ASP39       0.2293
     40  O         25.6430   19.1110   18.5230 O.2    39  ASP39      -0.2864
     41  CB        26.5690   20.3740   15.6080 C.3    39  ASP39       0.1436
     42  CG        27.8630   20.8580   15.0090 C.2    39  ASP39       0.3671
     43  OD1       28.9290   20.2160   15.1920 O.co2  39  ASP39      -0.2456
     44  OD2       27.7840   21.9260   14.3540 O.co2  39  ASP39      -0.2456
     45  N         23.7820   16.2230   18.0090 N.3    41  GLU41      -0.1231
     46  CA        23.9790   15.0470   18.8270 C.3    41  GLU41       0.1699
     47  C         24.8320   15.3440   20.0660 C.2    41  GLU41       0.2592
     48  O         24.6000   14.8160   21.1070 O.2    41  GLU41      -0.2718
     49  CB        24.5940   13.9420   17.9970 C.3    41  GLU41       0.0402
     50  CG        23.5780   13.2070   17.1810 C.3    41  GLU41       0.1161
     51  CD        24.1460   11.9760   16.5690 C.2    41  GLU41       0.3649
     52  OE1       24.7980   12.1290   15.4830 O.co2  41  GLU41      -0.2457
     53  OE2       23.9620   10.8910   17.1830 O.co2  41  GLU41      -0.2457
     54  N         25.7880   16.2210   19.8970 N.am   42  LEU42      -0.1980
     55  CA        26.7590   16.6070   20.8920 C.3    42  LEU42       0.1596
     56  C         26.1520   17.1820   22.1850 C.2    42  LEU42       0.2287
     57  O         26.5770   16.8260   23.3070 O.2    42  LEU42      -0.2864
     58  CB        27.6960   17.6230   20.2640 C.3    42  LEU42       0.0297
     59  CG        29.1440   17.5590   20.6350 C.3    42  LEU42       0.0022
     60  CD1       29.7090   16.1640   20.4270 C.3    42  LEU42       0.0001
     61  CD2       29.9190   18.5960   19.8080 C.3    42  LEU42       0.0001
     62  N         34.4650   11.6030   22.4230 N.3    71  TRP71      -0.1227
     63  CA        33.2480   12.0660   21.7410 C.3    71  TRP71       0.1737
     64  C         32.9980   11.3870   20.3680 C.2    71  TRP71       0.2595
     65  O         31.8290   11.0420   20.0950 O.2    71  TRP71      -0.2718
     66  CB        33.1210   13.6170   21.6340 C.3    71  TRP71       0.0564
     67  CG        34.0670   14.2190   20.6060 C.ar   71  TRP71       0.0003
     68  CD1       35.3010   14.7100   20.8430 C.ar   71  TRP71       0.0946
     69  CD2       33.8340   14.3690   19.1990 C.ar   71  TRP71       0.0152
     70  NE1       35.8660   15.1490   19.6800 N.ar   71  TRP71      -0.2442
     71  CE2       34.9900   14.9410   18.6490 C.ar   71  TRP71       0.0810
     72  CE3       32.7500   14.0960   18.3550 C.ar   71  TRP71       0.0012
     73  CZ2       35.1190   15.2180   17.2700 C.ar   71  TRP71       0.0191
     74  CZ3       32.8680   14.3850   17.0140 C.ar   71  TRP71       0.0001
     75  CH2       34.0670   14.9460   16.4840 C.ar   71  TRP71       0.0015
     76  N         34.0390   11.1980   19.5310 N.am   72  LEU72      -0.1980
     77  CA        33.8120   10.6720   18.1520 C.3    72  LEU72       0.1596
     78  C         33.5340    9.1840   18.2280 C.2    72  LEU72       0.2287
     79  O         32.7120    8.6770   17.4590 O.2    72  LEU72      -0.2864
     80  CB        34.9410   11.0000   17.1660 C.3    72  LEU72       0.0297
     81  CG        34.7250   10.5560   15.7010 C.3    72  LEU72       0.0022
     82  CD1       33.4820   11.1470   15.0830 C.3    72  LEU72       0.0001
     83  CD2       35.8740   10.9030   14.8060 C.3    72  LEU72       0.0001
     84  N         29.8670    8.8690   19.1400 N.3    75  LEU75      -0.1231
     85  CA        29.0370    9.0620   17.9640 C.3    75  LEU75       0.1693
     86  C         29.0050    7.8070   17.1280 C.2    75  LEU75       0.2591
     87  O         27.9350    7.3610   16.7330 O.2    75  LEU75      -0.2718
     88  CB        29.5070   10.2440   17.1640 C.3    75  LEU75       0.0284
     89  CG        29.1360   11.6660   17.6540 C.3    75  LEU75       0.0019
     90  CD1       29.5040   12.6530   16.5460 C.3    75  LEU75       0.0001
     91  CD2       27.6870   11.8060   18.0440 C.3    75  LEU75       0.0001
     92  N         30.1670    7.2200   16.9220 N.am   76  MET76      -0.1979
     93  CA        30.3470    6.0060   16.0900 C.3    76  MET76       0.1605
     94  C         29.6840    4.7570   16.6160 C.2    76  MET76       0.2287
     95  O         29.0590    4.0300   15.8360 O.2    76  MET76      -0.2864
     96  CB        31.8370    5.7070   15.8830 C.3    76  MET76       0.0413
     97  CG        32.4860    6.5320   14.7910 C.3    76  MET76       0.0598
     98  SD        34.3100    6.3470   14.6870 S.3    76  MET76      -0.1393
     99  CE        34.5730    7.0650   13.0950 C.3    76  MET76       0.0692
    100  N         26.1800    5.2010   15.9280 N.3    79  LEU79      -0.1245
    101  CA        25.9480    4.9790   14.5110 C.3    79  LEU79       0.1561
    102  C         25.8710    3.4510   14.2540 C.2    79  LEU79       0.2260
    103  O         24.9120    3.0060   13.6600 O.2    79  LEU79      -0.2867
    104  CB        27.0180    5.6640   13.6330 C.3    79  LEU79       0.0270
    105  CG        27.0180    5.3570   12.1310 C.3    79  LEU79       0.0019
    106  CD1       25.6910    5.6970   11.5070 C.3    79  LEU79       0.0001
    107  CD2       28.1330    6.0810   11.3580 C.3    79  LEU79       0.0001
    108  N         22.6600    1.8590   15.5010 N.3    82  ARG82      -0.1245
    109  CA        21.4750    2.1760   14.7230 C.3    82  ARG82       0.1563
    110  C         21.4670    1.4230   13.4140 C.2    82  ARG82       0.2260
    111  O         20.4080    1.1390   12.8740 O.2    82  ARG82      -0.2867
    112  CB        21.3840    3.6790   14.4210 C.3    82  ARG82       0.0307
    113  CG        21.1460    4.5010   15.6490 C.3    82  ARG82       0.0489
    114  CD        20.8650    5.9480   15.3340 C.3    82  ARG82       0.2205
    115  NE        21.9400    6.6570   14.6160 N.pl3  82  ARG82      -0.0865
    116  CZ        22.9330    7.3550   15.1540 C.cat  82  ARG82       0.5346
    117  NH1       23.0980    7.4540   16.4850 N.pl3  82  ARG82       0.1354
    118  NH2       23.7710    7.9960   14.3510 N.pl3  82  ARG82       0.1354
    119  N         22.7800    7.1490    9.7330 N.3    92  PHE92      -0.1241
    120  CA        23.2090    8.3780   10.3920 C.3    92  PHE92       0.1605
    121  C         22.0030    9.0080   11.0930 C.2    92  PHE92       0.2264
    122  O         22.0790    9.4260   12.2360 O.2    92  PHE92      -0.2867
    123  CB        23.8740    9.3380    9.4200 C.3    92  PHE92       0.0534
    124  CG        25.2690    8.9350    9.0400 C.ar   92  PHE92      -0.0203
    125  CD1       25.4990    8.0710    7.9750 C.ar   92  PHE92      -0.0042
    126  CD2       26.3490    9.3730    9.7770 C.ar   92  PHE92      -0.0042
    127  CE1       26.7830    7.6800    7.6480 C.ar   92  PHE92      -0.0003
    128  CE2       27.6310    8.9970    9.4550 C.ar   92  PHE92      -0.0003
    129  CZ        27.8550    8.1470    8.3830 C.ar   92  PHE92      -0.0000
    130  N         36.3040    8.5690    2.4620 N.3   109  MET109     -0.1245
    131  CA        35.1720    8.3410    3.3160 C.3   109  MET109      0.1570
    132  C         34.7610    6.8860    3.2630 C.2   109  MET109      0.2261
    133  O         34.2790    6.3660    4.2410 O.2   109  MET109     -0.2867
    134  CB        34.0230    9.2650    2.9070 C.3   109  MET109      0.0387
    135  CG        33.0240    9.5690    4.0090 C.3   109  MET109      0.0595
    136  SD        33.7720   10.2210    5.5200 S.3   109  MET109     -0.1393
    137  CE        34.3580   11.8030    4.9720 C.3   109  MET109      0.0692
    138  N         36.3710    4.4850    6.0060 N.3   112  ILE112     -0.1231
    139  CA        35.7760    4.6150    7.3310 C.3   112  ILE112      0.1692
    140  C         34.3680    4.0180    7.3380 C.2   112  ILE112      0.2592
    141  O         33.9580    3.3610    8.2950 O.2   112  ILE112     -0.2718
    142  CB        35.8610    6.0730    7.8370 C.3   112  ILE112      0.0266
    143  CG1       37.3640    6.3970    8.0630 C.3   112  ILE112      0.0019
    144  CG2       35.1120    6.2440    9.1600 C.3   112  ILE112      0.0020
    145  CD1       37.6820    7.8670    8.2530 C.3   112  ILE112      0.0001
    146  N         33.6500    4.2430    6.2570 N.am  113  PHE113     -0.1976
    147  CA        32.3730    3.6340    6.0230 C.3   113  PHE113      0.1639
    148  C         32.4900    2.1200    6.1650 C.2   113  PHE113      0.2290
    149  O         31.7240    1.5110    6.8730 O.2   113  PHE113     -0.2864
    150  CB        31.8970    3.9490    4.5980 C.3   113  PHE113      0.0560
    151  CG        30.8920    5.0510    4.4940 C.ar  113  PHE113     -0.0200
    152  CD1       31.1940    6.3470    4.9030 C.ar  113  PHE113     -0.0042
    153  CD2       29.6570    4.8150    3.9060 C.ar  113  PHE113     -0.0042
    154  CE1       30.2690    7.3650    4.7570 C.ar  113  PHE113     -0.0003
    155  CE2       28.7380    5.8290    3.7440 C.ar  113  PHE113     -0.0003
    156  CZ        29.0470    7.1080    4.1740 C.ar  113  PHE113     -0.0000
    157  N         33.0920    1.0480    9.5990 N.3   116  LEU116     -0.1245
    158  CA        31.8420    1.2050   10.3550 C.3   116  LEU116      0.1561
    159  C         30.8560    0.1200   10.0400 C.2   116  LEU116      0.2260
    160  O         30.2050   -0.4130   10.9390 O.2   116  LEU116     -0.2867
    161  CB        31.2290    2.6060   10.1640 C.3   116  LEU116      0.0270
    162  CG        32.0400    3.7410   10.8050 C.3   116  LEU116      0.0019
    163  CD1       31.7050    5.0920   10.2400 C.3   116  LEU116      0.0001
    164  CD2       31.8590    3.7650   12.3220 C.3   116  LEU116      0.0001
    165  N         38.9260    8.6690   11.5240 N.3   202  GLY202     -0.1225
    166  CA        37.9250    9.7340   11.4090 C.3   202  GLY202      0.1811
    167  C         38.4370   11.1600   11.6860 C.2   202  GLY202      0.2280
    168  O         38.1470   12.0930   10.9380 O.2   202  GLY202     -0.2866
    169  N         40.8160   12.4720    9.1760 N.3   205  HIS205     -0.1226
    170  CA        40.0360   12.8950    8.0290 C.3   205  HIS205      0.1752
    171  C         39.3870   14.2840    8.2280 C.2   205  HIS205      0.2595
    172  O         39.4370   15.1160    7.3170 O.2   205  HIS205     -0.2718
    173  CB        38.9740   11.8680    7.6890 C.3   205  HIS205      0.0759
    174  CG        38.2380   12.2040    6.4480 C.ar  205  HIS205      0.0818
    175  ND1       38.5020   11.5900    5.2480 N.ar  205  HIS205     -0.2268
    176  CD2       37.3030   13.1540    6.1970 C.ar  205  HIS205      0.1154
    177  CE1       37.7350   12.1270    4.3140 C.ar  205  HIS205      0.1986
    178  NE2       37.0070   13.0840    4.8620 N.ar  205  HIS205     -0.2212
    179  N         38.7960   14.5180    9.3960 N.am  206  LEU206     -0.1980
    180  CA        38.1490   15.7920    9.7110 C.3   206  LEU206      0.1596
    181  C         39.1080   16.9730    9.7780 C.2   206  LEU206      0.2287
    182  O         38.7620   18.0650    9.3220 O.2   206  LEU206     -0.2864
    183  CB        37.3530   15.7080   11.0270 C.3   206  LEU206      0.0297
    184  CG        36.1370   14.7760   11.0350 C.3   206  LEU206      0.0022
    185  CD1       35.5120   14.7050   12.4280 C.3   206  LEU206      0.0001
    186  CD2       35.1060   15.1500    9.9790 C.3   206  LEU206      0.0001
    187  N         40.3060   18.3150    5.8110 N.3   209  MET209     -0.1245
    188  CA        39.4080   18.7140    4.7240 C.3   209  MET209      0.1570
    189  C         39.2400   20.2250    4.6840 C.2   209  MET209      0.2261
    190  O         39.1160   20.8500    5.7440 O.2   209  MET209     -0.2867
    191  CB        38.0560   18.0280    4.8830 C.3   209  MET209      0.0387
    192  CG        37.2240   18.5170    6.0500 C.3   209  MET209      0.0595
    193  SD        35.7330   17.5320    6.2140 S.3   209  MET209     -0.1393
    194  CE        34.8190   18.5560    7.3900 C.3   209  MET209      0.0692
    195  N         36.1090   20.8790   14.5500 N.3   210  VAL210     -0.1231
    196  CA        36.0930   19.7570   15.4570 C.3   210  VAL210      0.1678
    197  C         36.1100   20.2780   16.8850 C.2   210  VAL210      0.2434
    198  O         36.9290   21.1440   17.1840 O.2   210  VAL210     -0.2733
    199  CB        37.2990   18.8220   15.1740 C.3   210  VAL210      0.0265
    200  CG1       37.9790   18.3200   16.4340 C.3   210  VAL210      0.0020
    201  CG2       36.8470   17.6360   14.3300 C.3   210  VAL210      0.0020
    202  N         35.2390   19.7490   17.7610 N.am  211  PRO211     -0.2729
    203  CA        35.2930   20.0730   19.1850 C.3   211  PRO211      0.1401
    204  C         36.7190   20.0070   19.6820 C.2   211  PRO211      0.2269
    205  O         37.4390   19.0610   19.3910 O.2   211  PRO211     -0.2865
    206  CB        34.4420   18.9590   19.8510 C.3   211  PRO211      0.0296
    207  CG        33.4470   18.6160   18.8250 C.3   211  PRO211      0.0237
    208  CD        34.1010   18.8480   17.4730 C.3   211  PRO211      0.0939
    209  N         35.7000   24.0860   23.7290 N.3   215  LEU215     -0.1245
    210  CA        34.2960   24.0110   23.3750 C.3   215  LEU215      0.1561
    211  C         33.5450   23.0330   24.3000 C.2   215  LEU215      0.2260
    212  O         32.4480   23.3360   24.7600 O.2   215  LEU215     -0.2867
    213  CB        34.1430   23.5690   21.8980 C.3   215  LEU215      0.0270
    214  CG        32.6900   23.4420   21.3800 C.3   215  LEU215      0.0019
    215  CD1       32.1170   24.8030   21.0230 C.3   215  LEU215      0.0001
    216  CD2       32.5890   22.5070   20.1900 C.3   215  LEU215      0.0001
@<TRIPOS>BOND
     1   130   131    1
     2   134   131    1
     3   134   135    1
     4   132   131    1
     5   132   133    2
     6   155   153   ar
     7   155   156   ar
     8     1     2    1
     9   153   151   ar
    10   135   136    1
    11   156   154   ar
    12   177   178   ar
    13   177   175   ar
    14     6     5    1
    15     6     7    1
    16   151   150    1
    17   151   152   ar
    18   150   147    1
    19   189   188    1
    20   189   190    2
    21   188   191    1
    22   188   187    1
    23   154   152   ar
    24     5     2    1
    25   178   176   ar
    26   191   192    1
    27   137   136    1
    28     2     3    1
    29     7     8    1
    30   175   174   ar
    31     3     4    2
    32   138   139    1
    33   147   148    1
    34   147   146    1
    35   192   193    1
    36   148   149    2
    37   176   174   ar
    38   193   194    1
    39   146   140   am
    40   174   173    1
    41    15    14    1
    42    14    16    1
    43    14    13    1
    44   172   171    2
    45   139   140    1
    46   139   142    1
    47   140   141    2
    48   127   125   ar
    49   127   129   ar
    50   173   170    1
    51     9    10    1
    52   142   143    1
    53   142   144    1
    54   125   124   ar
    55   170   171    1
    56   170   169    1
    57   143   145    1
    58   171   179   am
    59    13    10    1
    60   129   128   ar
    61    10    11    1
    62   124   123    1
    63   124   126   ar
    64   182   181    2
    65   179   180    1
    66   123   120    1
    67   128   126   ar
    68    22    21    1
    69   157   158    1
    70   180   181    1
    71   180   183    1
    72   119   120    1
    73    17    11   am
    74    17    18    1
    75   186   184    1
    76   159   158    1
    77   159   160    2
    78    11    12    2
    79   161   158    1
    80   161   162    1
    81   163   162    1
    82    21    18    1
    83    21    23    1
    84   120   121    1
    85   162   164    1
    86    18    19    1
    87   168   167    2
    88   183   184    1
    89   184   185    1
    90   121   122    2
    91   107   105    1
    92   166   165    1
    93   166   167    1
    94   106   105    1
    95    19    20    2
    96    31    29    1
    97    28    29    1
    98    28    25    1
    99    24    25    1
   100   105   104    1
   101    29    30    1
   102   111   110    2
   103    25    26    1
   104    99    98    1
   105   110   109    1
   106   104   101    1
   107   103   102    2
   108    32    26   am
   109    32    33    1
   110    26    27    2
   111   102   101    1
   112   201   199    1
   113   118   116    1
   114    44    42   ar
   115   112   109    1
   116   112   113    1
   117    36    33    1
   118   101   100    1
   119   195   196    1
   120   115   116    2
   121   115   114    1
   122    98    97    1
   123   109   108    1
   124    97    96    1
   125    83    81    1
   126    33    34    1
   127    42    43   ar
   128    42    41    1
   129    82    81    1
   130   116   117    1
   131   199   196    1
   132   199   200    1
   133   114   113    1
   134   196   197    1
   135    52    51   ar
   136    37    34   am
   137    37    38    1
   138    41    38    1
   139    81    80    1
   140    95    94    2
   141    96    93    1
   142    34    35    2
   143    93    94    1
   144    93    92    1
   145    38    39    1
   146    75    74   ar
   147    75    73   ar
   148    90    89    1
   149    51    50    1
   150    51    53   ar
   151    87    86    2
   152   197   198    2
   153   197   202   am
   154    92    86   am
   155    74    72   ar
   156    86    85    1
   157    88    89    1
   158    88    85    1
   159    80    77    1
   160    50    49    1
   161    73    71   ar
   162    39    40    2
   163    79    78    2
   164   208   202    1
   165   208   207    1
   166    89    91    1
   167   202   203    1
   168    85    84    1
   169    49    46    1
   170    45    46    1
   171    77    78    1
   172    77    76    1
   173    72    69   ar
   174    71    69   ar
   175    71    70   ar
   176   207   206    1
   177    46    47    1
   178   203   204    1
   179   203   206    1
   180    69    67   ar
   181   205   204    2
   182    76    64   am
   183    70    68   ar
   184    61    59    1
   185    54    47   am
   186    54    55    1
   187    47    48    2
   188    65    64    2
   189   216   214    1
   190    58    59    1
   191    58    55    1
   192    64    63    1
   193    60    59    1
   194    67    68   ar
   195    67    66    1
   196    55    56    1
   197   215   214    1
   198   214   213    1
   199    66    63    1
   200    63    62    1
   201   213   210    1
   202    56    57    2
   203   210   209    1
   204   210   211    1
   205   211   212    2
