@<TRIPOS>MOLECULE
tmp/5ak3A00.pdb
 126 126 0 0 0
SMALL
GASTEIGER

@<TRIPOS>ATOM
      1  N        -18.4500  -15.7380   30.0350 N.3   309  MET309     -0.1245
      2  CA       -17.6220  -16.9070   29.6760 C.3   309  MET309      0.1570
      3  C        -17.5610  -18.0360   30.7090 C.2   309  MET309      0.2261
      4  O        -17.6820  -19.1960   30.3270 O.2   309  MET309     -0.2867
      5  CB       -16.2420  -16.4940   29.1450 C.3   309  MET309      0.0387
      6  CG       -15.5840  -17.5520   28.2590 C.3   309  MET309      0.0595
      7  SD       -16.6070  -18.1340   26.8640 S.3   309  MET309     -0.1393
      8  CE       -16.3090  -16.8910   25.7200 C.3   309  MET309      0.0692
      9  N        -16.4910  -16.3850   18.3780 N.3   335  TRP335     -0.1241
     10  CA       -16.8310  -16.4720   19.8030 C.3   335  TRP335      0.1605
     11  C        -16.6450  -17.8840   20.3640 C.2   335  TRP335      0.2264
     12  O        -16.2260  -18.0150   21.5060 O.2   335  TRP335     -0.2867
     13  CB       -18.2430  -15.9410   20.1030 C.3   335  TRP335      0.0550
     14  CG       -18.2520  -14.5410   20.6390 C.ar  335  TRP335      0.0003
     15  CD1      -18.8660  -13.4560   20.0820 C.ar  335  TRP335      0.0946
     16  CD2      -17.5780  -14.0630   21.8150 C.ar  335  TRP335      0.0152
     17  NE1      -18.6330  -12.3360   20.8440 N.ar  335  TRP335     -0.2442
     18  CE2      -17.8360  -12.6750   21.9090 C.ar  335  TRP335      0.0810
     19  CE3      -16.8020  -14.6750   22.8160 C.ar  335  TRP335      0.0012
     20  CZ2      -17.3580  -11.8900   22.9690 C.ar  335  TRP335      0.0191
     21  CZ3      -16.3280  -13.8970   23.8650 C.ar  335  TRP335      0.0001
     22  CH2      -16.6130  -12.5210   23.9390 C.ar  335  TRP335      0.0015
     23  N        -12.9990  -18.4380   21.2610 N.3   338  MET338     -0.1245
     24  CA       -12.7280  -17.8170   22.5550 C.3   338  MET338      0.1570
     25  C        -13.1000  -18.7780   23.6940 C.2   338  MET338      0.2261
     26  O        -12.2760  -18.9970   24.5890 O.2   338  MET338     -0.2867
     27  CB       -13.5300  -16.5120   22.6780 C.3   338  MET338      0.0387
     28  CG       -12.9620  -15.5060   23.6790 C.3   338  MET338      0.0595
     29  SD       -11.2490  -14.9170   23.4220 S.3   338  MET338     -0.1393
     30  CE       -11.3650  -14.3060   21.8750 C.3   338  MET338      0.0692
     31  N        -10.6980  -20.9280   26.6160 N.3   342  TYR342     -0.1241
     32  CA       -11.0970  -20.8400   28.0130 C.3   342  TYR342      0.1605
     33  C        -11.4790  -22.1800   28.6600 C.2   342  TYR342      0.2264
     34  O        -11.1920  -22.3770   29.8420 O.2   342  TYR342     -0.2867
     35  CB       -12.0230  -19.6340   28.2860 C.3   342  TYR342      0.0534
     36  CG       -11.2080  -18.3570   28.2780 C.ar  342  TYR342     -0.0201
     37  CD1      -10.4500  -17.9870   29.3900 C.ar  342  TYR342     -0.0009
     38  CD2      -11.0590  -17.6060   27.1130 C.ar  342  TYR342     -0.0009
     39  CE1       -9.6130  -16.8720   29.3590 C.ar  342  TYR342      0.0417
     40  CE2      -10.2110  -16.4930   27.0660 C.ar  342  TYR342      0.0417
     41  CZ        -9.4960  -16.1280   28.1960 C.ar  342  TYR342      0.1957
     42  OH        -8.6700  -15.0340   28.1870 O.3   342  TYR342     -0.2866
     43  N         -5.4180  -14.5120   23.3570 N.3   362  ILE362     -0.1231
     44  CA        -4.7280  -13.3270   23.8720 C.3   362  ILE362      0.1678
     45  C         -5.0330  -13.2080   25.3580 C.2   362  ILE362      0.2434
     46  O         -6.1830  -13.0320   25.7450 O.2   362  ILE362     -0.2733
     47  CB        -4.9840  -11.9990   23.0860 C.3   362  ILE362      0.0265
     48  CG1       -4.5120  -12.1150   21.6260 C.3   362  ILE362      0.0019
     49  CG2       -4.2900  -10.7900   23.7920 C.3   362  ILE362      0.0020
     50  CD1       -5.2020  -11.1740   20.6790 C.3   362  ILE362      0.0001
     51  N         -4.0120  -13.3210   26.2110 N.am  363  PRO363     -0.2718
     52  CA        -4.2590  -13.2510   27.6570 C.3   363  PRO363      0.1535
     53  C         -4.6860  -11.8600   28.0700 C.2   363  PRO363      0.2598
     54  O         -4.1370  -10.8770   27.5510 O.2   363  PRO363     -0.2715
     55  CB        -2.9060  -13.6230   28.2600 C.3   363  PRO363      0.0310
     56  CG        -2.1890  -14.2810   27.1470 C.3   363  PRO363      0.0237
     57  CD        -2.5900  -13.5710   25.9350 C.3   363  PRO363      0.0939
     58  N         -5.6820  -11.7840   28.9880 N.am  364  ALA364     -0.1964
     59  CA        -6.2360  -10.5450   29.5240 C.3   364  ALA364      0.1728
     60  C         -5.1200   -9.6500   30.0480 C.2   364  ALA364      0.2616
     61  O         -4.1300  -10.1530   30.5910 O.2   364  ALA364     -0.2715
     62  CB        -7.2180  -10.8540   30.6430 C.3   364  ALA364      0.0334
     63  N         -5.2500   -8.3330   29.8290 N.am  365  ASN365     -0.1972
     64  CA        -4.2550   -7.3910   30.3230 C.3   365  ASN365      0.1688
     65  C         -4.6610   -6.9610   31.7340 C.2   365  ASN365      0.2292
     66  O         -5.6490   -6.2510   31.8890 O.2   365  ASN365     -0.2864
     67  CB        -4.0750   -6.1870   29.3800 C.3   365  ASN365      0.1181
     68  CG        -2.9210   -5.2670   29.7460 C.2   365  ASN365      0.2629
     69  OD1       -2.4350   -5.2260   30.8940 O.2   365  ASN365     -0.2716
     70  ND2       -2.4750   -4.4810   28.7710 N.am  365  ASN365     -0.0877
     71  N        -10.8050   -3.7370   29.8030 N.3   370  PRO370     -0.2116
     72  CA       -11.1990   -4.3000   28.4880 C.3   370  PRO370      0.1372
     73  C        -11.6710   -3.2600   27.4560 C.2   370  PRO370      0.2244
     74  O        -11.4100   -3.4310   26.2650 O.2   370  PRO370     -0.2868
     75  CB       -12.2970   -5.3140   28.8410 C.3   370  PRO370      0.0268
     76  CG       -12.7100   -4.9820   30.2430 C.3   370  PRO370      0.0207
     77  CD       -11.5080   -4.4130   30.9100 C.3   370  PRO370      0.0892
     78  N        -17.6950   -8.0940   28.9810 N.3   468  MET468     -0.1245
     79  CA       -16.2760   -7.7470   28.8850 C.3   468  MET468      0.1570
     80  C        -15.5510   -7.6300   30.2110 C.2   468  MET468      0.2261
     81  O        -14.4920   -8.2320   30.3680 O.2   468  MET468     -0.2867
     82  CB       -16.0940   -6.4770   28.0560 C.3   468  MET468      0.0387
     83  CG       -16.3100   -6.6960   26.5740 C.3   468  MET468      0.0595
     84  SD       -16.4640   -5.1540   25.6570 S.3   468  MET468     -0.1393
     85  CE       -14.9020   -4.4110   26.0120 C.3   468  MET468      0.0692
     86  N        -15.7000  -11.1250   32.1370 N.3   471  ASN471     -0.1225
     87  CA       -14.7790  -12.0310   31.4400 C.3   471  ASN471      0.1785
     88  C        -13.3320  -11.7150   31.7780 C.2   471  ASN471      0.2597
     89  O        -12.5810  -12.6310   32.1100 O.2   471  ASN471     -0.2718
     90  CB       -15.0270  -12.0260   29.9210 C.3   471  ASN471      0.1169
     91  CG       -16.3640  -12.6190   29.5330 C.2   471  ASN471      0.2627
     92  OD1      -17.0530  -13.2540   30.3430 O.2   471  ASN471     -0.2716
     93  ND2      -16.7800  -12.4240   28.2900 N.am  471  ASN471     -0.0877
     94  N        -12.9650  -10.4150   31.7480 N.am  472  TRP472     -0.1976
     95  CA       -11.6290   -9.8930   32.0650 C.3   472  TRP472      0.1640
     96  C        -11.1900  -10.3060   33.4820 C.2   472  TRP472      0.2290
     97  O        -10.1180  -10.8960   33.6230 O.2   472  TRP472     -0.2864
     98  CB       -11.5830   -8.3640   31.8540 C.3   472  TRP472      0.0576
     99  CG       -10.3150   -7.7070   32.3000 C.ar  472  TRP472      0.0006
    100  CD1       -9.1070   -7.7330   31.6670 C.ar  472  TRP472      0.0946
    101  CD2      -10.1300   -6.9310   33.4890 C.ar  472  TRP472      0.0152
    102  NE1       -8.1710   -7.0540   32.4070 N.ar  472  TRP472     -0.2442
    103  CE2       -8.7740   -6.5340   33.5220 C.ar  472  TRP472      0.0810
    104  CE3      -10.9840   -6.5230   34.5290 C.ar  472  TRP472      0.0012
    105  CZ2       -8.2440   -5.7610   34.5590 C.ar  472  TRP472      0.0191
    106  CZ3      -10.4580   -5.7590   35.5610 C.ar  472  TRP472      0.0001
    107  CH2       -9.1020   -5.3870   35.5710 C.ar  472  TRP472      0.0015
    108  N        -12.4450  -12.7570   35.4380 N.3   474  TRP474     -0.1227
    109  CA       -12.3640  -14.2100   35.4720 C.3   474  TRP474      0.1737
    110  C        -11.0700  -14.6970   34.8250 C.2   474  TRP474      0.2595
    111  O        -10.3550  -15.4890   35.4350 O.2   474  TRP474     -0.2718
    112  CB       -13.5870  -14.8150   34.7780 C.3   474  TRP474      0.0564
    113  CG       -13.6440  -16.3140   34.8120 C.ar  474  TRP474      0.0003
    114  CD1      -13.7060  -17.1100   35.9200 C.ar  474  TRP474      0.0946
    115  CD2      -13.7170  -17.1900   33.6820 C.ar  474  TRP474      0.0152
    116  NE1      -13.8080  -18.4270   35.5480 N.ar  474  TRP474     -0.2442
    117  CE2      -13.8070  -18.5070   34.1800 C.ar  474  TRP474      0.0810
    118  CE3      -13.7250  -16.9900   32.2920 C.ar  474  TRP474      0.0012
    119  CZ2      -13.8890  -19.6220   33.3380 C.ar  474  TRP474      0.0191
    120  CZ3      -13.7900  -18.0990   31.4570 C.ar  474  TRP474      0.0001
    121  CH2      -13.8920  -19.3940   31.9800 C.ar  474  TRP474      0.0015
    122  N        -10.7500  -14.1850   33.6210 N.am  475  ALA475     -0.1980
    123  CA        -9.5480  -14.5270   32.8500 C.3   475  ALA475      0.1597
    124  C         -8.2370  -14.2280   33.6100 C.2   475  ALA475      0.2287
    125  O         -7.2830  -14.9900   33.4770 O.2   475  ALA475     -0.2864
    126  CB        -9.5660  -13.8150   31.5040 C.3   475  ALA475      0.0319
@<TRIPOS>BOND
     1     9    10    1
     2    10    13    1
     3    10    11    1
     4    15    14   ar
     5    15    17   ar
     6    13    14    1
     7    11    12    2
     8    14    16   ar
     9    50    48    1
    10    17    18   ar
    11    23    24    1
    12    48    47    1
    13    16    18   ar
    14    16    19   ar
    15    30    29    1
    16    18    20   ar
    17    24    27    1
    18    24    25    1
    19    27    28    1
    20    19    21   ar
    21    20    22   ar
    22    47    49    1
    23    47    44    1
    24    43    44    1
    25    29    28    1
    26    25    26    2
    27    21    22   ar
    28    44    45    1
    29    45    46    2
    30    45    51   am
    31    84    85    1
    32    84    83    1
    33     8     7    1
    34    57    51    1
    35    57    56    1
    36    51    52    1
    37    74    73    2
    38    83    82    1
    39    31    32    1
    40     7     6    1
    41    40    38   ar
    42    40    41   ar
    43    38    36   ar
    44    56    55    1
    45    73    72    1
    46    54    53    2
    47    52    53    1
    48    52    55    1
    49    32    35    1
    50    32    33    1
    51    82    79    1
    52    53    58   am
    53    42    41    1
    54    41    39   ar
    55     6     5    1
    56    36    35    1
    57    36    37   ar
    58    93    91   am
    59    72    75    1
    60    72    71    1
    61    33    34    2
    62    70    68   am
    63    75    76    1
    64    79    78    1
    65    79    80    1
    66    58    59    1
    67     5     2    1
    68    39    37   ar
    69    67    68    1
    70    67    64    1
    71    59    60    1
    72    59    62    1
    73    91    90    1
    74    91    92    2
    75     2     1    1
    76     2     3    1
    77    68    69    2
    78    71    77    1
    79    63    60   am
    80    63    64    1
    81    90    87    1
    82    60    61    2
    83    80    81    2
    84    76    77    1
    85    64    65    1
    86     4     3    2
    87    87    88    1
    88    87    86    1
    89   120   121   ar
    90   120   118   ar
    91   126   123    1
    92   100    99   ar
    93   100   102   ar
    94    65    66    2
    95    94    88   am
    96    94    95    1
    97    88    89    2
    98    98    95    1
    99    98    99    1
   100   121   119   ar
   101    95    96    1
   102   118   115   ar
   103    99   101   ar
   104   102   103   ar
   105   123   124    1
   106   123   122    1
   107   119   117   ar
   108   125   124    2
   109    96    97    2
   110   101   103   ar
   111   101   104   ar
   112   103   105   ar
   113   122   110   am
   114   115   117   ar
   115   115   113   ar
   116   117   116   ar
   117   104   106   ar
   118   105   107   ar
   119   112   113    1
   120   112   109    1
   121   113   114   ar
   122   110   111    2
   123   110   109    1
   124   108   109    1
   125   116   114   ar
   126   106   107   ar
