@<TRIPOS>MOLECULE
tmp/5ak4A00.pdb
 168 165 0 0 0
SMALL
GASTEIGER

@<TRIPOS>ATOM
      1  N         19.9650   15.6450   16.3080 N.3   266  PHE266     -0.1228
      2  CA        21.0740   14.6870   16.2330 C.3   266  PHE266      0.1721
      3  C         21.2720   14.1220   14.8100 C.2   266  PHE266      0.2437
      4  O         20.2920   13.6670   14.2140 O.2   266  PHE266     -0.2733
      5  CB        20.8370   13.5320   17.2480 C.3   266  PHE266      0.0547
      6  CG        21.7980   12.3710   17.1060 C.ar  266  PHE266     -0.0202
      7  CD1       21.5950   11.3920   16.1330 C.ar  266  PHE266     -0.0042
      8  CD2       22.9170   12.2680   17.9280 C.ar  266  PHE266     -0.0042
      9  CE1       22.5050   10.3420   15.9700 C.ar  266  PHE266     -0.0003
     10  CE2       23.8090   11.1910   17.7950 C.ar  266  PHE266     -0.0003
     11  CZ        23.5990   10.2440   16.8080 C.ar  266  PHE266     -0.0000
     12  N         22.5200   14.0240   14.2870 N.am  267  PRO267     -0.2729
     13  CA        23.8080   14.5110   14.8200 C.3   267  PRO267      0.1401
     14  C         24.1190   15.7470   13.9830 C.2   267  PRO267      0.2269
     15  O         24.6260   15.6690   12.8610 O.2   267  PRO267     -0.2865
     16  CB        24.7500   13.3360   14.5160 C.3   267  PRO267      0.0296
     17  CG        24.1570   12.6840   13.2400 C.3   267  PRO267      0.0237
     18  CD        22.7560   13.2840   13.0350 C.3   267  PRO267      0.0939
     19  N         14.0930   17.7600   16.0690 N.3   334  ASP334     -0.1239
     20  CA        14.5700   16.4610   16.5920 C.3   334  ASP334      0.1674
     21  C         14.8760   16.5780   18.1020 C.2   334  ASP334      0.2266
     22  O         14.0020   17.0250   18.8250 O.2   334  ASP334     -0.2867
     23  CB        15.7630   15.9650   15.7540 C.3   334  ASP334      0.1410
     24  CG        16.2680   14.5900   16.0910 C.2   334  ASP334      0.3668
     25  OD1       15.6590   13.6150   15.6270 O.co2 334  ASP334     -0.2456
     26  OD2       17.3180   14.4930   16.7840 O.co2 334  ASP334     -0.2456
     27  N         16.8420    1.7960   16.3370 N.3   382  TYR382     -0.1241
     28  CA        18.1640    2.4400   16.3360 C.3   382  TYR382      0.1605
     29  C         18.5350    3.0110   17.7030 C.2   382  TYR382      0.2264
     30  O         19.7070    3.0220   18.0510 O.2   382  TYR382     -0.2867
     31  CB        18.2560    3.5190   15.2400 C.3   382  TYR382      0.0534
     32  CG        17.4740    4.7760   15.5490 C.ar  382  TYR382     -0.0201
     33  CD1       16.1080    4.8520   15.2910 C.ar  382  TYR382     -0.0009
     34  CD2       18.0860    5.8690   16.1610 C.ar  382  TYR382     -0.0009
     35  CE1       15.3770    5.9920   15.6070 C.ar  382  TYR382      0.0417
     36  CE2       17.3680    7.0170   16.4740 C.ar  382  TYR382      0.0417
     37  CZ        16.0150    7.0780   16.1870 C.ar  382  TYR382      0.1957
     38  OH        15.3040    8.2030   16.5150 O.3   382  TYR382     -0.2866
     39  N         21.8680    2.5480   19.9000 N.3   386  PHE386     -0.1241
     40  CA        22.6040    3.6830   20.4740 C.3   386  PHE386      0.1605
     41  C         22.9380    3.5700   21.9440 C.2   386  PHE386      0.2264
     42  O         23.7380    4.3670   22.4300 O.2   386  PHE386     -0.2867
     43  CB        21.8040    4.9840   20.2680 C.3   386  PHE386      0.0534
     44  CG        21.7740    5.5570   18.8870 C.ar  386  PHE386     -0.0203
     45  CD1       22.4080    4.9060   17.8300 C.ar  386  PHE386     -0.0042
     46  CD2       21.1240    6.7560   18.6330 C.ar  386  PHE386     -0.0042
     47  CE1       22.4010    5.4470   16.5580 C.ar  386  PHE386     -0.0003
     48  CE2       21.1090    7.2960   17.3570 C.ar  386  PHE386     -0.0003
     49  CZ        21.7420    6.6380   16.3220 C.ar  386  PHE386     -0.0000
     50  N         25.2260    9.5480    4.1330 N.3   406  SER406     -0.1202
     51  CA        24.1980    8.5160    4.2930 C.3   406  SER406      0.2020
     52  C         23.0000    9.0710    5.0250 C.2   406  SER406      0.2618
     53  O         21.8770    8.7040    4.7190 O.2   406  SER406     -0.2717
     54  CB        24.7440    7.3170    5.0670 C.3   406  SER406      0.2103
     55  OG        25.8830    6.7670    4.4220 O.3   406  SER406     -0.2182
     56  N         23.2380    9.9260    6.0330 N.am  407  LEU407     -0.1979
     57  CA        22.1550   10.4780    6.8260 C.3   407  LEU407      0.1596
     58  C         21.3290   11.5290    6.1290 C.2   407  LEU407      0.2287
     59  O         20.1000   11.4480    6.1300 O.2   407  LEU407     -0.2864
     60  CB        22.7330   11.0770    8.1320 C.3   407  LEU407      0.0297
     61  CG        23.1420   10.0940    9.2340 C.3   407  LEU407      0.0022
     62  CD1       23.8370   10.8270   10.3890 C.3   407  LEU407      0.0001
     63  CD2       21.9680    9.2980    9.7470 C.3   407  LEU407      0.0001
     64  N         19.6860   12.9330    3.5860 N.3   409  ARG409     -0.1245
     65  CA        19.0540   12.5650    2.3250 C.3   409  ARG409      0.1563
     66  C         17.5730   12.9070    2.2990 C.2   409  ARG409      0.2260
     67  O         16.9110   12.9130    3.3360 O.2   409  ARG409     -0.2867
     68  CB        19.2800   11.0580    2.0520 C.3   409  ARG409      0.0307
     69  CG        20.7720   10.6840    2.1410 C.3   409  ARG409      0.0489
     70  CD        21.1310    9.3130    1.6160 C.3   409  ARG409      0.2205
     71  NE        21.1080    9.2730    0.1490 N.pl3 409  ARG409     -0.0865
     72  CZ        22.1020    9.6850   -0.6340 C.cat 409  ARG409      0.5346
     73  NH1       23.2050   10.1950   -0.1090 N.pl3 409  ARG409      0.1354
     74  NH2       21.9930    9.5940   -1.9540 N.pl3 409  ARG409      0.1354
     75  N         19.8680    3.6380    3.8430 N.3   416  LEU416     -0.1245
     76  CA        20.0840    2.7490    4.9640 C.3   416  LEU416      0.1561
     77  C         18.8170    2.1180    5.4300 C.2   416  LEU416      0.2260
     78  O         17.7320    2.6920    5.3120 O.2   416  LEU416     -0.2867
     79  CB        20.8150    3.4500    6.1280 C.3   416  LEU416      0.0270
     80  CG        20.6220    4.9470    6.2760 C.3   416  LEU416      0.0019
     81  CD1       19.3060    5.2880    6.9520 C.3   416  LEU416      0.0001
     82  CD2       21.7760    5.5730    7.0050 C.3   416  LEU416      0.0001
     83  N         16.4210    1.4540    8.0500 N.3   418  MET418     -0.1245
     84  CA        16.1120    2.0630    9.3370 C.3   418  MET418      0.1570
     85  C         15.4310    1.0340   10.2360 C.2   418  MET418      0.2261
     86  O         14.5910    1.3430   11.0750 O.2   418  MET418     -0.2867
     87  CB        15.4190    3.4390    9.2450 C.3   418  MET418      0.0387
     88  CG        16.4050    4.5660    9.0120 C.3   418  MET418      0.0595
     89  SD        17.1090    5.4850   10.4390 S.3   418  MET418     -0.1393
     90  CE        17.3020    4.1920   11.7220 C.3   418  MET418      0.0692
     91  N         23.9170    0.6770   11.7470 N.3   427  LEU427     -0.1245
     92  CA        23.0570    1.5690   10.9800 C.3   427  LEU427      0.1561
     93  C         23.4630    1.5000    9.4990 C.2   427  LEU427      0.2260
     94  O         22.6190    1.7380    8.6440 O.2   427  LEU427     -0.2867
     95  CB        23.1790    3.0130   11.5500 C.3   427  LEU427      0.0270
     96  CG        22.2100    4.1140   11.0480 C.3   427  LEU427      0.0019
     97  CD1       20.8930    4.0490   11.7520 C.3   427  LEU427      0.0001
     98  CD2       22.7840    5.4880   11.2970 C.3   427  LEU427      0.0001
     99  N         20.6560   10.3450   23.7960 N.3   465  TYR465     -0.1241
    100  CA        19.7930    9.1650   23.7330 C.3   465  TYR465      0.1605
    101  C         19.9790    8.1880   24.9050 C.2   465  TYR465      0.2264
    102  O         19.2490    7.1940   24.9810 O.2   465  TYR465     -0.2867
    103  CB        20.0750    8.4130   22.4210 C.3   465  TYR465      0.0534
    104  CG        19.2250    8.8470   21.2540 C.ar  465  TYR465     -0.0201
    105  CD1       17.8540    8.6150   21.2410 C.ar  465  TYR465     -0.0009
    106  CD2       19.7920    9.4700   20.1440 C.ar  465  TYR465     -0.0009
    107  CE1       17.0660    9.0140   20.1670 C.ar  465  TYR465      0.0417
    108  CE2       19.0220    9.8030   19.0290 C.ar  465  TYR465      0.0417
    109  CZ        17.6580    9.5720   19.0460 C.ar  465  TYR465      0.1957
    110  OH        16.8880    9.9380   17.9720 O.3   465  TYR465     -0.2866
    111  N          8.7470   12.0670    7.3560 N.3   495  ASP495     -0.1225
    112  CA         9.6760   11.6840    8.4100 C.3   495  ASP495      0.1805
    113  C          9.1170   10.3280    8.8650 C.2   495  ASP495      0.2598
    114  O          8.0470   10.2840    9.4460 O.2   495  ASP495     -0.2718
    115  CB         9.7300   12.6870    9.5850 C.3   495  ASP495      0.1424
    116  CG        10.7650   12.3330   10.6500 C.2   495  ASP495      0.3668
    117  OD1       11.0670   11.1380   10.8130 O.co2 495  ASP495     -0.2456
    118  OD2       11.2960   13.2580   11.2910 O.co2 495  ASP495     -0.2456
    119  N          9.8130    9.2330    8.5490 N.am  496  PHE496     -0.1962
    120  CA         9.3350    7.8890    8.8560 C.3   496  PHE496      0.1771
    121  C          9.5670    7.3960   10.2820 C.2   496  PHE496      0.2619
    122  O          9.1490    6.2890   10.6360 O.2   496  PHE496     -0.2715
    123  CB         9.7240    6.8860    7.7480 C.3   496  PHE496      0.0574
    124  CG         9.1550    7.3080    6.4150 C.ar  496  PHE496     -0.0200
    125  CD1        7.7890    7.5520    6.2670 C.ar  496  PHE496     -0.0042
    126  CD2        9.9850    7.4830    5.3140 C.ar  496  PHE496     -0.0042
    127  CE1        7.2720    7.9630    5.0410 C.ar  496  PHE496     -0.0003
    128  CE2        9.4710    7.9050    4.0960 C.ar  496  PHE496     -0.0003
    129  CZ         8.1190    8.1360    3.9640 C.ar  496  PHE496     -0.0000
    130  N         10.1700    8.2520   11.1250 N.am  497  VAL497     -0.1963
    131  CA        10.4120    7.9450   12.5390 C.3   497  VAL497      0.1727
    132  C          9.4890    8.8410   13.3860 C.2   497  VAL497      0.2616
    133  O          8.6420    8.3390   14.1220 O.2   497  VAL497     -0.2715
    134  CB        11.9140    8.1120   12.9080 C.3   497  VAL497      0.0290
    135  CG1       12.1530    7.8710   14.3920 C.3   497  VAL497      0.0023
    136  CG2       12.7850    7.1710   12.0790 C.3   497  VAL497      0.0023
    137  N          9.6440   10.1680   13.2370 N.am  498  LEU498     -0.1977
    138  CA         8.8330   11.1860   13.9030 C.3   498  LEU498      0.1596
    139  C          7.6660   11.5180   12.9620 C.2   498  LEU498      0.2287
    140  O          7.6030   12.5850   12.3390 O.2   498  LEU498     -0.2864
    141  CB         9.7190   12.4120   14.1690 C.3   498  LEU498      0.0297
    142  CG        10.8670   12.2040   15.1860 C.3   498  LEU498      0.0022
    143  CD1       11.7290   13.4580   15.2760 C.3   498  LEU498      0.0001
    144  CD2       10.3480   11.7760   16.5570 C.3   498  LEU498      0.0001
    145  N         13.1110   13.7600    7.2370 N.3   523  HIS523     -0.1226
    146  CA        13.4910   14.1040    8.6280 C.3   523  HIS523      0.1752
    147  C         14.2690   15.4080    8.7540 C.2   523  HIS523      0.2596
    148  O         14.1420   16.0930    9.7690 O.2   523  HIS523     -0.2718
    149  CB        14.3000   12.9600    9.2500 C.3   523  HIS523      0.0759
    150  CG        14.8100   13.2640   10.6250 C.ar  523  HIS523      0.0818
    151  ND1       13.9590   13.3140   11.7080 N.ar  523  HIS523     -0.2268
    152  CD2       16.0560   13.6130   11.0300 C.ar  523  HIS523      0.1154
    153  CE1       14.7080   13.6510   12.7360 C.ar  523  HIS523      0.1986
    154  NE2       15.9680   13.8530   12.3820 N.ar  523  HIS523     -0.2212
    155  N         15.1280   15.7140    7.7660 N.am  524  TRP524     -0.1976
    156  CA        16.0450   16.8770    7.7870 C.3   524  TRP524      0.1640
    157  C         15.3280   18.1230    7.2840 C.2   524  TRP524      0.2290
    158  O         15.7680   18.7490    6.3230 O.2   524  TRP524     -0.2864
    159  CB        17.3280   16.5510    6.9980 C.3   524  TRP524      0.0576
    160  CG        17.8170   15.1570    7.2860 C.ar  524  TRP524      0.0006
    161  CD1       17.5410   14.0310    6.5620 C.ar  524  TRP524      0.0946
    162  CD2       18.4510   14.7120    8.4910 C.ar  524  TRP524      0.0152
    163  NE1       18.0090   12.9190    7.2180 N.ar  524  TRP524     -0.2442
    164  CE2       18.5810   13.3070    8.4010 C.ar  524  TRP524      0.0810
    165  CE3       18.9330   15.3660    9.6390 C.ar  524  TRP524      0.0012
    166  CZ2       19.1910   12.5450    9.4000 C.ar  524  TRP524      0.0191
    167  CZ3       19.5390   14.6070   10.6320 C.ar  524  TRP524      0.0001
    168  CH2       19.6630   13.2160   10.5080 C.ar  524  TRP524      0.0015
@<TRIPOS>BOND
     1    74    72    1
     2    72    73    1
     3    72    71    2
     4    71    70    1
     5    70    69    1
     6    68    69    1
     7    68    65    1
     8    66    65    1
     9    66    67    2
    10    65    64    1
    11    75    76    1
    12   129   128   ar
    13   129   127   ar
    14   128   126   ar
    15    50    51    1
    16    51    52    1
    17    51    54    1
    18    55    54    1
    19    53    52    2
    20    76    77    1
    21    76    79    1
    22    52    56   am
    23   127   125   ar
    24    78    77    2
    25   126   124   ar
    26    56    57    1
    27    79    80    1
    28    58    59    2
    29    58    57    1
    30   125   124   ar
    31    80    81    1
    32    80    82    1
    33   158   157    2
    34   124   123    1
    35   161   163   ar
    36   161   160   ar
    37    57    60    1
    38   159   160    1
    39   159   156    1
    40   163   164   ar
    41   145   146    1
    42   157   156    1
    43   160   162   ar
    44   111   112    1
    45   123   120    1
    46   155   156    1
    47   155   147   am
    48    83    84    1
    49    60    61    1
    50   164   162   ar
    51   164   166   ar
    52   112   113    1
    53   112   115    1
    54   162   165   ar
    55   119   120    1
    56   119   113   am
    57   146   147    1
    58   146   149    1
    59    94    93    2
    60   147   148    2
    61   120   121    1
    62   113   114    2
    63    88    87    1
    64    88    89    1
    65    61    63    1
    66    61    62    1
    67    87    84    1
    68   149   150    1
    69    84    85    1
    70   166   168   ar
    71    93    92    1
    72   115   116    1
    73   165   167   ar
    74    85    86    2
    75   121   122    2
    76   121   130   am
    77    89    90    1
    78   168   167   ar
    79   150   152   ar
    80   150   151   ar
    81   116   117   ar
    82   116   118   ar
    83    92    95    1
    84    92    91    1
    85   152   154   ar
    86    96    98    1
    87    96    95    1
    88    96    97    1
    89   130   131    1
    90   151   153   ar
    91   136   134    1
    92   140   139    2
    93   154   153   ar
    94   131   134    1
    95   131   132    1
    96    15    14    2
    97   134   135    1
    98   139   138    1
    99    18    17    1
   100    18    12    1
   101   137   132   am
   102   137   138    1
   103    17    16    1
   104   132   133    2
   105   138   141    1
   106    14    13    1
   107   141   142    1
   108     4     3    2
   109    12     3   am
   110    12    13    1
   111    16    13    1
   112     3     2    1
   113   142   143    1
   114   142   144    1
   115    31    32    1
   116    31    28    1
   117    33    32   ar
   118    33    35   ar
   119    32    34   ar
   120    35    37   ar
   121    25    24   ar
   122    23    24    1
   123    23    20    1
   124     9     7   ar
   125     9    11   ar
   126    19    20    1
   127    24    26   ar
   128     7     6   ar
   129    34    36   ar
   130    37    36   ar
   131    37    38    1
   132     2     1    1
   133     2     5    1
   134    49    47   ar
   135    49    48   ar
   136    28    27    1
   137    28    29    1
   138    47    45   ar
   139    20    21    1
   140    11    10   ar
   141     6     5    1
   142     6     8   ar
   143    48    46   ar
   144    29    30    2
   145    10     8   ar
   146    45    44   ar
   147   110   109    1
   148    21    22    2
   149    46    44   ar
   150    44    43    1
   151   108   109   ar
   152   108   106   ar
   153   109   107   ar
   154    39    40    1
   155   106   104   ar
   156   107   105   ar
   157    43    40    1
   158    40    41    1
   159   105   104   ar
   160   104   103    1
   161    41    42    2
   162   103   100    1
   163   100    99    1
   164   100   101    1
   165   101   102    2
