@<TRIPOS>MOLECULE
tmp/5ak4A02.pdb
 134 133 0 0 0
SMALL
GASTEIGER

@<TRIPOS>ATOM
      1  N         17.9110   15.6700   30.0170 N.3   309  MET309     -0.1245
      2  CA        17.1190   16.8660   29.7220 C.3   309  MET309      0.1570
      3  C         17.1310   17.9340   30.8310 C.2   309  MET309      0.2261
      4  O         17.2210   19.1270   30.5240 O.2   309  MET309     -0.2867
      5  CB        15.7050   16.5250   29.2500 C.3   309  MET309      0.0387
      6  CG        15.0720   17.6330   28.4190 C.3   309  MET309      0.0595
      7  SD        16.1720   18.2830   27.0950 S.3   309  MET309     -0.1393
      8  CE        16.1930   16.9090   25.9700 C.3   309  MET309      0.0692
      9  N         16.0920   16.2230   18.5840 N.3   335  TRP335     -0.1241
     10  CA        16.4050   16.3700   20.0160 C.3   335  TRP335      0.1605
     11  C         16.2890   17.8270   20.5100 C.2   335  TRP335      0.2264
     12  O         15.9590   18.0400   21.6840 O.2   335  TRP335     -0.2867
     13  CB        17.7920   15.8030   20.3550 C.3   335  TRP335      0.0550
     14  CG        17.7170   14.3840   20.8430 C.ar  335  TRP335      0.0003
     15  CD1       18.1570   13.2740   20.1850 C.ar  335  TRP335      0.0946
     16  CD2       17.0460   13.9150   22.0170 C.ar  335  TRP335      0.0152
     17  NE1       17.8520   12.1460   20.9090 N.ar  335  TRP335     -0.2442
     18  CE2       17.1690   12.5050   22.0330 C.ar  335  TRP335      0.0810
     19  CE3       16.4040   14.5470   23.0920 C.ar  335  TRP335      0.0012
     20  CZ2       16.6820   11.7180   23.0800 C.ar  335  TRP335      0.0191
     21  CZ3       15.9290   13.7640   24.1370 C.ar  335  TRP335      0.0001
     22  CH2       16.0480   12.3650   24.1110 C.ar  335  TRP335      0.0015
     23  N         12.7010   18.2540   21.2610 N.3   338  MET338     -0.1245
     24  CA        12.4030   17.6510   22.5730 C.3   338  MET338      0.1570
     25  C         12.7900   18.6490   23.6660 C.2   338  MET338      0.2261
     26  O         12.0140   18.8700   24.5990 O.2   338  MET338     -0.2867
     27  CB        13.1850   16.3390   22.8020 C.3   338  MET338      0.0387
     28  CG        12.6490   15.5140   23.9900 C.3   338  MET338      0.0595
     29  SD        11.0020   14.7810   23.6450 S.3   338  MET338     -0.1393
     30  CE        11.4420   13.5600   22.6260 C.3   338  MET338      0.0692
     31  N         10.3950   20.8060   26.8100 N.3   342  TYR342     -0.1241
     32  CA        10.7610   20.7660   28.2150 C.3   342  TYR342      0.1605
     33  C         11.1220   22.1310   28.7650 C.2   342  TYR342      0.2264
     34  O         10.8060   22.4360   29.9240 O.2   342  TYR342     -0.2867
     35  CB        11.7170   19.5980   28.5380 C.3   342  TYR342      0.0534
     36  CG        10.9080   18.3180   28.5010 C.ar  342  TYR342     -0.0201
     37  CD1       10.1890   17.8980   29.6170 C.ar  342  TYR342     -0.0009
     38  CD2       10.7000   17.6350   27.3030 C.ar  342  TYR342     -0.0009
     39  CE1        9.3190   16.8090   29.5570 C.ar  342  TYR342      0.0417
     40  CE2        9.8130   16.5560   27.2270 C.ar  342  TYR342      0.0417
     41  CZ         9.1420   16.1360   28.3630 C.ar  342  TYR342      0.1957
     42  OH         8.3020   15.0540   28.3070 O.3   342  TYR342     -0.2866
     43  N          4.7450   14.4350   23.7730 N.3   362  ILE362     -0.1231
     44  CA         3.9300   13.3280   24.2700 C.3   362  ILE362      0.1678
     45  C          4.2610   13.1720   25.7450 C.2   362  ILE362      0.2434
     46  O          5.4210   12.9080   26.0560 O.2   362  ILE362     -0.2733
     47  CB         4.1130   12.0000   23.4580 C.3   362  ILE362      0.0265
     48  CG1        3.6380   12.1790   21.9910 C.3   362  ILE362      0.0019
     49  CG2        3.3720   10.8080   24.1410 C.3   362  ILE362      0.0020
     50  CD1        4.1690   11.2070   21.0400 C.3   362  ILE362      0.0001
     51  N          3.2870   13.3780   26.6670 N.am  363  PRO363     -0.2718
     52  CA         3.5890   13.2520   28.0970 C.3   363  PRO363      0.1535
     53  C          4.1260   11.8750   28.4600 C.2   363  PRO363      0.2598
     54  O          3.8130   10.8770   27.7980 O.2   363  PRO363     -0.2715
     55  CB         2.2270   13.4970   28.7630 C.3   363  PRO363      0.0310
     56  CG         1.4970   14.3600   27.8000 C.3   363  PRO363      0.0237
     57  CD         1.8700   13.7450   26.4670 C.3   363  PRO363      0.0939
     58  N          4.9840   11.8430   29.4880 N.am  364  ALA364     -0.1964
     59  CA         5.5590   10.6180   30.0160 C.3   364  ALA364      0.1728
     60  C          4.4350    9.7170   30.5110 C.2   364  ALA364      0.2616
     61  O          3.4280   10.1980   31.0400 O.2   364  ALA364     -0.2715
     62  CB         6.5010   10.9310   31.1630 C.3   364  ALA364      0.0334
     63  N          4.5760    8.4190   30.2620 N.am  365  ASN365     -0.1972
     64  CA         3.6240    7.4390   30.7580 C.3   365  ASN365      0.1688
     65  C          4.2110    6.9350   32.0730 C.2   365  ASN365      0.2292
     66  O          5.2240    6.2460   32.0530 O.2   365  ASN365     -0.2864
     67  CB         3.4090    6.2830   29.7650 C.3   365  ASN365      0.1181
     68  CG         2.4350    5.2190   30.2460 C.2   365  ASN365      0.2629
     69  OD1        2.0490    5.1600   31.4200 O.2   365  ASN365     -0.2716
     70  ND2        2.0190    4.3500   29.3350 N.am  365  ASN365     -0.0877
     71  N         10.3790    3.8510   29.7760 N.3   370  PRO370     -0.2116
     72  CA        10.6260    4.3590   28.4070 C.3   370  PRO370      0.1372
     73  C         11.1770    3.2310   27.5460 C.2   370  PRO370      0.2244
     74  O         10.7470    3.0630   26.4130 O.2   370  PRO370     -0.2868
     75  CB        11.6870    5.4500   28.5950 C.3   370  PRO370      0.0268
     76  CG        11.7320    5.7220   30.0130 C.3   370  PRO370      0.0207
     77  CD        11.2000    4.5620   30.7720 C.3   370  PRO370      0.0892
     78  N          9.6550    2.2350   23.9270 N.3   374  ILE374     -0.1245
     79  CA        10.5360    2.3060   22.7600 C.3   374  ILE374      0.1561
     80  C         10.5650    1.0010   21.9940 C.2   374  ILE374      0.2260
     81  O         10.4360    1.0170   20.7690 O.2   374  ILE374     -0.2867
     82  CB        11.9690    2.7600   23.1550 C.3   374  ILE374      0.0252
     83  CG1       11.9530    4.1110   23.9020 C.3   374  ILE374      0.0019
     84  CG2       12.9440    2.7250   21.9580 C.3   374  ILE374      0.0019
     85  CD1       12.4670    5.2750   23.2590 C.3   374  ILE374      0.0001
     86  N         17.2080    7.9100   28.9670 N.3   468  MET468     -0.1245
     87  CA        15.7680    7.6420   28.9140 C.3   468  MET468      0.1570
     88  C         15.0740    7.5560   30.2630 C.2   468  MET468      0.2261
     89  O         14.0740    8.2330   30.4470 O.2   468  MET468     -0.2867
     90  CB        15.4110    6.4600   27.9970 C.3   468  MET468      0.0387
     91  CG        15.8730    6.6490   26.5470 C.3   468  MET468      0.0595
     92  SD        15.2810    8.1690   25.6920 S.3   468  MET468     -0.1393
     93  CE        15.7870    7.8120   24.0450 C.3   468  MET468      0.0692
     94  N         15.2890   11.0050   32.1630 N.3   471  ASN471     -0.1225
     95  CA        14.3930   11.9670   31.5070 C.3   471  ASN471      0.1785
     96  C         12.9500   11.6740   31.8300 C.2   471  ASN471      0.2597
     97  O         12.1830   12.5940   32.0950 O.2   471  ASN471     -0.2718
     98  CB        14.6180   11.9700   29.9880 C.3   471  ASN471      0.1169
     99  CG        15.9400   12.5830   29.6040 C.2   471  ASN471      0.2627
    100  OD1       16.5560   13.2850   30.4010 O.2   471  ASN471     -0.2716
    101  ND2       16.3980   12.3360   28.3870 N.am  471  ASN471     -0.0877
    102  N         12.5880   10.3870   31.8620 N.am  472  TRP472     -0.1976
    103  CA        11.2340    9.9320   32.1790 C.3   472  TRP472      0.1640
    104  C         10.8410   10.3160   33.6230 C.2   472  TRP472      0.2290
    105  O          9.7520   10.8720   33.8450 O.2   472  TRP472     -0.2864
    106  CB        11.1640    8.4270   31.9390 C.3   472  TRP472      0.0576
    107  CG         9.9010    7.7650   32.3770 C.ar  472  TRP472      0.0006
    108  CD1        8.7110    7.7300   31.7060 C.ar  472  TRP472      0.0946
    109  CD2        9.7350    6.9500   33.5350 C.ar  472  TRP472      0.0152
    110  NE1        7.7920    6.9950   32.4160 N.ar  472  TRP472     -0.2442
    111  CE2        8.4010    6.4780   33.5280 C.ar  472  TRP472      0.0810
    112  CE3       10.5870    6.5730   34.5880 C.ar  472  TRP472      0.0012
    113  CZ2        7.8910    5.6610   34.5370 C.ar  472  TRP472      0.0191
    114  CZ3       10.0850    5.7440   35.5830 C.ar  472  TRP472      0.0001
    115  CH2        8.7450    5.3100   35.5590 C.ar  472  TRP472      0.0015
    116  N         12.1430   12.7620   35.4560 N.3   474  TRP474     -0.1227
    117  CA        12.0410   14.2130   35.4690 C.3   474  TRP474      0.1737
    118  C         10.7350   14.6720   34.8100 C.2   474  TRP474      0.2595
    119  O         10.0080   15.4630   35.4190 O.2   474  TRP474     -0.2718
    120  CB        13.2970   14.8330   34.8170 C.3   474  TRP474      0.0564
    121  CG        13.3830   16.3320   34.8830 C.ar  474  TRP474      0.0003
    122  CD1       13.5100   17.1020   36.0060 C.ar  474  TRP474      0.0946
    123  CD2       13.4240   17.2350   33.7670 C.ar  474  TRP474      0.0152
    124  NE1       13.5770   18.4360   35.6620 N.ar  474  TRP474     -0.2442
    125  CE2       13.5390   18.5440   34.2920 C.ar  474  TRP474      0.0810
    126  CE3       13.3050   17.0680   32.3730 C.ar  474  TRP474      0.0012
    127  CZ2       13.5940   19.6760   33.4770 C.ar  474  TRP474      0.0191
    128  CZ3       13.3500   18.1990   31.5660 C.ar  474  TRP474      0.0001
    129  CH2       13.5100   19.4800   32.1180 C.ar  474  TRP474      0.0015
    130  N         10.3920   14.1370   33.6060 N.am  475  ALA475     -0.1980
    131  CA         9.1560   14.4700   32.8770 C.3   475  ALA475      0.1597
    132  C          7.8910   14.1540   33.6970 C.2   475  ALA475      0.2287
    133  O          6.9280   14.9190   33.6280 O.2   475  ALA475     -0.2864
    134  CB         9.1070   13.7570   31.5390 C.3   475  ALA475      0.0319
@<TRIPOS>BOND
     1     9    10    1
     2    10    13    1
     3    10    11    1
     4    15    14   ar
     5    15    17   ar
     6    13    14    1
     7    11    12    2
     8    81    80    2
     9    14    16   ar
    10    17    18   ar
    11    50    48    1
    12    23    24    1
    13    84    82    1
    14    48    47    1
    15    80    79    1
    16    16    18   ar
    17    16    19   ar
    18    18    20   ar
    19    24    27    1
    20    24    25    1
    21    30    29    1
    22    79    82    1
    23    79    78    1
    24    27    28    1
    25    20    22   ar
    26    19    21   ar
    27    82    83    1
    28    85    83    1
    29    47    49    1
    30    47    44    1
    31    29    28    1
    32    25    26    2
    33    43    44    1
    34    93    92    1
    35    22    21   ar
    36    44    45    1
    37    92    91    1
    38    45    46    2
    39    45    51   am
    40     8     7    1
    41    74    73    2
    42    57    51    1
    43    57    56    1
    44    91    90    1
    45    51    52    1
    46    31    32    1
    47     7     6    1
    48    40    38   ar
    49    40    41   ar
    50    38    36   ar
    51    73    72    1
    52    54    53    2
    53    56    55    1
    54    90    87    1
    55    52    53    1
    56    52    55    1
    57    32    35    1
    58    32    33    1
    59    42    41    1
    60    41    39   ar
    61   101    99   am
    62    72    75    1
    63    72    71    1
    64     6     5    1
    65    53    58   am
    66    36    35    1
    67    36    37   ar
    68    75    76    1
    69    33    34    2
    70    87    86    1
    71    87    88    1
    72     5     2    1
    73    70    68   am
    74    58    59    1
    75    39    37   ar
    76    99    98    1
    77    99   100    2
    78     2     1    1
    79     2     3    1
    80    67    68    1
    81    67    64    1
    82    71    77    1
    83    98    95    1
    84    76    77    1
    85    59    60    1
    86    59    62    1
    87    68    69    2
    88    63    60   am
    89    63    64    1
    90    88    89    2
    91    60    61    2
    92     4     3    2
    93    64    65    1
    94    95    96    1
    95    95    94    1
    96   134   131    1
    97   128   129   ar
    98   128   126   ar
    99   108   107   ar
   100   108   110   ar
   101    96   102   am
   102    96    97    2
   103   102   103    1
   104   106   103    1
   105   106   107    1
   106    66    65    2
   107   129   127   ar
   108   103   104    1
   109   126   123   ar
   110   107   109   ar
   111   110   111   ar
   112   131   130    1
   113   131   132    1
   114   127   125   ar
   115   111   109   ar
   116   111   113   ar
   117   109   112   ar
   118   130   118   am
   119   104   105    2
   120   133   132    2
   121   123   125   ar
   122   123   121   ar
   123   125   124   ar
   124   113   115   ar
   125   112   114   ar
   126   118   119    2
   127   118   117    1
   128   120   121    1
   129   120   117    1
   130   121   122   ar
   131   116   117    1
   132   115   114   ar
   133   124   122   ar
