@<TRIPOS>MOLECULE
tmp/5ak4A01.pdb
 130 125 0 0 0
SMALL
GASTEIGER

@<TRIPOS>ATOM
      1  N         14.0930   17.7600   16.0690 N.3   334  ASP334     -0.1225
      2  CA        14.5700   16.4610   16.5920 C.3   334  ASP334      0.1805
      3  C         14.8760   16.5780   18.1020 C.2   334  ASP334      0.2597
      4  O         14.0020   17.0250   18.8250 O.2   334  ASP334     -0.2718
      5  CB        15.7630   15.9650   15.7540 C.3   334  ASP334      0.1424
      6  CG        16.2680   14.5900   16.0910 C.2   334  ASP334      0.3668
      7  OD1       15.6590   13.6150   15.6270 O.co2 334  ASP334     -0.2456
      8  OD2       17.3180   14.4930   16.7840 O.co2 334  ASP334     -0.2456
      9  N         16.0920   16.2230   18.5840 N.am  335  TRP335     -0.1976
     10  CA        16.4050   16.3700   20.0160 C.3   335  TRP335      0.1640
     11  C         16.2890   17.8270   20.5100 C.2   335  TRP335      0.2290
     12  O         15.9590   18.0400   21.6840 O.2   335  TRP335     -0.2864
     13  CB        17.7920   15.8030   20.3550 C.3   335  TRP335      0.0576
     14  CG        17.7170   14.3840   20.8430 C.ar  335  TRP335      0.0006
     15  CD1       18.1570   13.2740   20.1850 C.ar  335  TRP335      0.0946
     16  CD2       17.0460   13.9150   22.0170 C.ar  335  TRP335      0.0152
     17  NE1       17.8520   12.1460   20.9090 N.ar  335  TRP335     -0.2442
     18  CE2       17.1690   12.5050   22.0330 C.ar  335  TRP335      0.0810
     19  CE3       16.4040   14.5470   23.0920 C.ar  335  TRP335      0.0012
     20  CZ2       16.6820   11.7180   23.0800 C.ar  335  TRP335      0.0191
     21  CZ3       15.9290   13.7640   24.1370 C.ar  335  TRP335      0.0001
     22  CH2       16.0480   12.3650   24.1110 C.ar  335  TRP335      0.0015
     23  N         12.7010   18.2540   21.2610 N.3   338  MET338     -0.1245
     24  CA        12.4030   17.6510   22.5730 C.3   338  MET338      0.1570
     25  C         12.7900   18.6490   23.6660 C.2   338  MET338      0.2261
     26  O         12.0140   18.8700   24.5990 O.2   338  MET338     -0.2867
     27  CB        13.1850   16.3390   22.8020 C.3   338  MET338      0.0387
     28  CG        12.6490   15.5140   23.9900 C.3   338  MET338      0.0595
     29  SD        11.0020   14.7810   23.6450 S.3   338  MET338     -0.1393
     30  CE        11.4420   13.5600   22.6260 C.3   338  MET338      0.0692
     31  N          9.4320   16.8540   16.0580 N.3   359  THR359     -0.1218
     32  CA         9.3410   16.2960   17.4020 C.3   359  THR359      0.1862
     33  C          8.0390   16.6770   18.0660 C.2   359  THR359      0.2287
     34  O          7.7980   17.8540   18.3340 O.2   359  THR359     -0.2866
     35  CB        10.5720   16.6880   18.2630 C.3   359  THR359      0.1770
     36  OG1       11.7460   16.4080   17.5210 O.3   359  THR359     -0.2211
     37  CG2       10.6360   15.9270   19.6050 C.3   359  THR359      0.0375
     38  N          9.6550    2.2350   23.9270 N.3   374  ILE374     -0.1245
     39  CA        10.5360    2.3060   22.7600 C.3   374  ILE374      0.1561
     40  C         10.5650    1.0010   21.9940 C.2   374  ILE374      0.2260
     41  O         10.4360    1.0170   20.7690 O.2   374  ILE374     -0.2867
     42  CB        11.9690    2.7600   23.1550 C.3   374  ILE374      0.0252
     43  CG1       11.9530    4.1110   23.9020 C.3   374  ILE374      0.0019
     44  CG2       12.9440    2.7250   21.9580 C.3   374  ILE374      0.0019
     45  CD1       12.4670    5.2750   23.2590 C.3   374  ILE374      0.0001
     46  N         11.9580    2.9120   16.2100 N.3   380  PHE380     -0.1241
     47  CA        12.8380    3.4380   17.2550 C.3   380  PHE380      0.1605
     48  C         13.9290    2.4460   17.6250 C.2   380  PHE380      0.2264
     49  O         14.6580    2.6510   18.6030 O.2   380  PHE380     -0.2867
     50  CB        12.0340    3.8170   18.4990 C.3   380  PHE380      0.0534
     51  CG        11.2060    5.0600   18.3120 C.ar  380  PHE380     -0.0203
     52  CD1       11.7970    6.2560   17.9210 C.ar  380  PHE380     -0.0042
     53  CD2        9.8320    5.0340   18.5130 C.ar  380  PHE380     -0.0042
     54  CE1       11.0310    7.4000   17.7320 C.ar  380  PHE380     -0.0003
     55  CE2        9.0640    6.1880   18.3320 C.ar  380  PHE380     -0.0003
     56  CZ         9.6700    7.3580   17.9340 C.ar  380  PHE380     -0.0000
     57  N         16.8420    1.7960   16.3370 N.3   382  TYR382     -0.1227
     58  CA        18.1640    2.4400   16.3360 C.3   382  TYR382      0.1736
     59  C         18.5350    3.0110   17.7030 C.2   382  TYR382      0.2595
     60  O         19.7070    3.0220   18.0510 O.2   382  TYR382     -0.2718
     61  CB        18.2560    3.5190   15.2400 C.3   382  TYR382      0.0548
     62  CG        17.4740    4.7760   15.5490 C.ar  382  TYR382     -0.0200
     63  CD1       16.1080    4.8520   15.2910 C.ar  382  TYR382     -0.0009
     64  CD2       18.0860    5.8690   16.1610 C.ar  382  TYR382     -0.0009
     65  CE1       15.3770    5.9920   15.6070 C.ar  382  TYR382      0.0417
     66  CE2       17.3680    7.0170   16.4740 C.ar  382  TYR382      0.0417
     67  CZ        16.0150    7.0780   16.1870 C.ar  382  TYR382      0.1957
     68  OH        15.3040    8.2030   16.5150 O.3   382  TYR382     -0.2866
     69  N         17.5300    3.5020   18.4630 N.am  383  GLN383     -0.1979
     70  CA        17.7440    4.0750   19.7960 C.3   383  GLN383      0.1601
     71  C         18.2630    3.0360   20.7460 C.2   383  GLN383      0.2287
     72  O         19.0400    3.3720   21.6240 O.2   383  GLN383     -0.2864
     73  CB        16.4730    4.7180   20.3510 C.3   383  GLN383      0.0394
     74  CG        15.8720    5.6980   19.3800 C.3   383  GLN383      0.0908
     75  CD        14.8730    6.5990   20.0260 C.2   383  GLN383      0.2608
     76  OE1       14.5970    6.5050   21.2170 O.2   383  GLN383     -0.2717
     77  NE2       14.3960    7.5520   19.2700 N.am  383  GLN383     -0.0878
     78  N         20.6560   10.3450   23.7960 N.3   465  TYR465     -0.1241
     79  CA        19.7930    9.1650   23.7330 C.3   465  TYR465      0.1605
     80  C         19.9790    8.1880   24.9050 C.2   465  TYR465      0.2264
     81  O         19.2490    7.1940   24.9810 O.2   465  TYR465     -0.2867
     82  CB        20.0750    8.4130   22.4210 C.3   465  TYR465      0.0534
     83  CG        19.2250    8.8470   21.2540 C.ar  465  TYR465     -0.0201
     84  CD1       17.8540    8.6150   21.2410 C.ar  465  TYR465     -0.0009
     85  CD2       19.7920    9.4700   20.1440 C.ar  465  TYR465     -0.0009
     86  CE1       17.0660    9.0140   20.1670 C.ar  465  TYR465      0.0417
     87  CE2       19.0220    9.8030   19.0290 C.ar  465  TYR465      0.0417
     88  CZ        17.6580    9.5720   19.0460 C.ar  465  TYR465      0.1957
     89  OH        16.8880    9.9380   17.9720 O.3   465  TYR465     -0.2866
     90  N         17.2080    7.9100   28.9670 N.3   468  MET468     -0.1245
     91  CA        15.7680    7.6420   28.9140 C.3   468  MET468      0.1570
     92  C         15.0740    7.5560   30.2630 C.2   468  MET468      0.2261
     93  O         14.0740    8.2330   30.4470 O.2   468  MET468     -0.2867
     94  CB        15.4110    6.4600   27.9970 C.3   468  MET468      0.0387
     95  CG        15.8730    6.6490   26.5470 C.3   468  MET468      0.0595
     96  SD        15.2810    8.1690   25.6920 S.3   468  MET468     -0.1393
     97  CE        15.7870    7.8120   24.0450 C.3   468  MET468      0.0692
     98  N         10.1700    8.2520   11.1250 N.3   497  VAL497     -0.1231
     99  CA        10.4120    7.9450   12.5390 C.3   497  VAL497      0.1692
    100  C          9.4890    8.8410   13.3860 C.2   497  VAL497      0.2591
    101  O          8.6420    8.3390   14.1220 O.2   497  VAL497     -0.2718
    102  CB        11.9140    8.1120   12.9080 C.3   497  VAL497      0.0266
    103  CG1       12.1530    7.8710   14.3920 C.3   497  VAL497      0.0020
    104  CG2       12.7850    7.1710   12.0790 C.3   497  VAL497      0.0020
    105  N          9.6440   10.1680   13.2370 N.am  498  LEU498     -0.1980
    106  CA         8.8330   11.1860   13.9030 C.3   498  LEU498      0.1596
    107  C          7.6660   11.5180   12.9620 C.2   498  LEU498      0.2287
    108  O          7.6030   12.5850   12.3390 O.2   498  LEU498     -0.2864
    109  CB         9.7190   12.4120   14.1690 C.3   498  LEU498      0.0297
    110  CG        10.8670   12.2040   15.1860 C.3   498  LEU498      0.0022
    111  CD1       11.7290   13.4580   15.2760 C.3   498  LEU498      0.0001
    112  CD2       10.3480   11.7760   16.5570 C.3   498  LEU498      0.0001
    113  N          2.0950   10.9500   15.2700 N.3   502  MET502     -0.1245
    114  CA         2.5690   10.9700   16.6540 C.3   502  MET502      0.1570
    115  C          2.1620   12.2460   17.3850 C.2   502  MET502      0.2261
    116  O          2.1190   12.2450   18.6090 O.2   502  MET502     -0.2867
    117  CB         4.0930   10.8730   16.6920 C.3   502  MET502      0.0387
    118  CG         4.5980    9.4740   16.5530 C.3   502  MET502      0.0595
    119  SD         6.4040    9.4210   16.5690 S.3   502  MET502     -0.1393
    120  CE         6.7480   10.0120   18.2010 C.3   502  MET502      0.0692
    121  N         13.1110   13.7600    7.2370 N.3   523  HIS523     -0.1241
    122  CA        13.4910   14.1040    8.6280 C.3   523  HIS523      0.1621
    123  C         14.2690   15.4080    8.7540 C.2   523  HIS523      0.2264
    124  O         14.1420   16.0930    9.7690 O.2   523  HIS523     -0.2867
    125  CB        14.3000   12.9600    9.2500 C.3   523  HIS523      0.0745
    126  CG        14.8100   13.2640   10.6250 C.ar  523  HIS523      0.0817
    127  ND1       13.9590   13.3140   11.7080 N.ar  523  HIS523     -0.2268
    128  CD2       16.0560   13.6130   11.0300 C.ar  523  HIS523      0.1154
    129  CE1       14.7080   13.6510   12.7360 C.ar  523  HIS523      0.1986
    130  NE2       15.9680   13.8530   12.3820 N.ar  523  HIS523     -0.2212
@<TRIPOS>BOND
     1   121   122    1
     2   122   123    1
     3   122   125    1
     4   123   124    2
     5   125   126    1
     6   126   128   ar
     7   126   127   ar
     8   128   130   ar
     9    98    99    1
    10   127   129   ar
    11   104   102    1
    12   108   107    2
    13   130   129   ar
    14    99   102    1
    15    99   100    1
    16   102   103    1
    17   107   106    1
    18   105   100   am
    19   105   106    1
    20   100   101    2
    21   106   109    1
    22   109   110    1
    23   110   111    1
    24   110   112    1
    25    61    62    1
    26    61    58    1
    27   113   114    1
    28    63    62   ar
    29    63    65   ar
    30    62    64   ar
    31    65    67   ar
    32     7     6   ar
    33     5     6    1
    34     5     2    1
    35    31    32    1
    36     1     2    1
    37     6     8   ar
    38    64    66   ar
    39    67    66   ar
    40    67    68    1
    41    46    47    1
    42    58    57    1
    43    58    59    1
    44   118   119    1
    45   118   117    1
    46   119   120    1
    47     2     3    1
    48   114   117    1
    49   114   115    1
    50    47    48    1
    51    47    50    1
    52   115   116    2
    53    32    33    1
    54    32    35    1
    55    36    35    1
    56    48    49    2
    57    59    60    2
    58    59    69   am
    59    54    52   ar
    60    54    56   ar
    61    52    51   ar
    62    56    55   ar
    63    89    88    1
    64    33    34    2
    65     3     9   am
    66     3     4    2
    67    35    37    1
    68    51    50    1
    69    51    53   ar
    70    55    53   ar
    71    69    70    1
    72     9    10    1
    73    87    88   ar
    74    87    85   ar
    75    88    86   ar
    76    77    75   am
    77    74    75    1
    78    74    73    1
    79    70    73    1
    80    70    71    1
    81    10    13    1
    82    10    11    1
    83    75    76    2
    84    85    83   ar
    85    86    84   ar
    86    15    14   ar
    87    15    17   ar
    88    13    14    1
    89    11    12    2
    90    71    72    2
    91    41    40    2
    92    14    16   ar
    93    17    18   ar
    94    84    83   ar
    95    83    82    1
    96    23    24    1
    97    44    42    1
    98    40    39    1
    99    16    18   ar
   100    16    19   ar
   101    18    20   ar
   102    82    79    1
   103    24    27    1
   104    24    25    1
   105    30    29    1
   106    39    42    1
   107    39    38    1
   108    27    28    1
   109    20    22   ar
   110    19    21   ar
   111    42    43    1
   112    45    43    1
   113    29    28    1
   114    25    26    2
   115    79    78    1
   116    79    80    1
   117    97    96    1
   118    22    21   ar
   119    80    81    2
   120    96    95    1
   121    95    94    1
   122    94    91    1
   123    91    90    1
   124    91    92    1
   125    92    93    2
