@<TRIPOS>MOLECULE
tmp/5ak5A00.pdb
 190 187 0 0 0
SMALL
GASTEIGER

@<TRIPOS>ATOM
      1  N        -20.1450  -15.4790   15.9830 N.3   266  PHE266     -0.1228
      2  CA       -21.2270  -14.5370   15.8670 C.3   266  PHE266      0.1721
      3  C        -21.4020  -13.9870   14.4350 C.2   266  PHE266      0.2437
      4  O        -20.4160  -13.5180   13.8380 O.2   266  PHE266     -0.2733
      5  CB       -20.9960  -13.3710   16.8500 C.3   266  PHE266      0.0547
      6  CG       -21.9550  -12.2160   16.6800 C.ar  266  PHE266     -0.0202
      7  CD1      -21.7030  -11.2090   15.7460 C.ar  266  PHE266     -0.0042
      8  CD2      -23.1310  -12.1500   17.4250 C.ar  266  PHE266     -0.0042
      9  CE1      -22.6080  -10.1520   15.5660 C.ar  266  PHE266     -0.0003
     10  CE2      -24.0260  -11.0820   17.2590 C.ar  266  PHE266     -0.0003
     11  CZ       -23.7630  -10.0970   16.3230 C.ar  266  PHE266     -0.0000
     12  N        -22.6560  -13.8730   13.9290 N.am  267  PRO267     -0.2729
     13  CA       -23.9500  -14.3350   14.4720 C.3   267  PRO267      0.1401
     14  C        -24.2700  -15.6040   13.6720 C.2   267  PRO267      0.2269
     15  O        -24.8170  -15.5510   12.5710 O.2   267  PRO267     -0.2865
     16  CB       -24.8860  -13.1570   14.1340 C.3   267  PRO267      0.0296
     17  CG       -24.1890  -12.4050   12.9600 C.3   267  PRO267      0.0237
     18  CD       -22.8950  -13.1780   12.6540 C.3   267  PRO267      0.0939
     19  N        -14.2580  -17.6750   15.8220 N.3   334  ASP334     -0.1239
     20  CA       -14.6990  -16.3640   16.2710 C.3   334  ASP334      0.1674
     21  C        -15.0080  -16.4220   17.7880 C.2   334  ASP334      0.2266
     22  O        -14.1030  -16.7740   18.5280 O.2   334  ASP334     -0.2867
     23  CB       -15.8420  -15.8380   15.3670 C.3   334  ASP334      0.1410
     24  CG       -16.3410  -14.4630   15.7530 C.2   334  ASP334      0.3668
     25  OD1      -15.6110  -13.4870   15.5220 O.co2 334  ASP334     -0.2456
     26  OD2      -17.4130  -14.3820   16.3930 O.co2 334  ASP334     -0.2456
     27  N        -16.9780   -1.7420   15.7700 N.3   382  TYR382     -0.1241
     28  CA       -18.2800   -2.4390   15.7250 C.3   382  TYR382      0.1605
     29  C        -18.6560   -3.0410   17.1140 C.2   382  TYR382      0.2264
     30  O        -19.8370   -3.1050   17.4490 O.2   382  TYR382     -0.2867
     31  CB       -18.2610   -3.5290   14.6320 C.3   382  TYR382      0.0534
     32  CG       -17.5330   -4.7990   15.0230 C.ar  382  TYR382     -0.0201
     33  CD1      -16.1510   -4.9080   14.8810 C.ar  382  TYR382     -0.0009
     34  CD2      -18.2240   -5.8950   15.5330 C.ar  382  TYR382     -0.0009
     35  CE1      -15.4760   -6.0740   15.2400 C.ar  382  TYR382      0.0417
     36  CE2      -17.5580   -7.0620   15.9120 C.ar  382  TYR382      0.0417
     37  CZ       -16.1850   -7.1540   15.7480 C.ar  382  TYR382      0.1957
     38  OH       -15.5260   -8.3070   16.1160 O.3   382  TYR382     -0.2866
     39  N        -21.9740   -2.5300   19.4730 N.3   386  PHE386     -0.1241
     40  CA       -22.6940   -3.6700   20.0590 C.3   386  PHE386      0.1605
     41  C        -22.9490   -3.5170   21.5600 C.2   386  PHE386      0.2264
     42  O        -23.6680   -4.3360   22.1260 O.2   386  PHE386     -0.2867
     43  CB       -21.9290   -4.9880   19.7900 C.3   386  PHE386      0.0534
     44  CG       -21.9500   -5.5170   18.3710 C.ar  386  PHE386     -0.0203
     45  CD1      -22.6860   -4.8770   17.3810 C.ar  386  PHE386     -0.0042
     46  CD2      -21.2440   -6.6640   18.0320 C.ar  386  PHE386     -0.0042
     47  CE1      -22.7200   -5.3720   16.0810 C.ar  386  PHE386     -0.0003
     48  CE2      -21.2450   -7.1420   16.7230 C.ar  386  PHE386     -0.0003
     49  CZ       -21.9900   -6.4970   15.7510 C.ar  386  PHE386     -0.0000
     50  N        -23.5700   -9.8290    5.7020 N.3   407  LEU407     -0.1245
     51  CA       -22.4900  -10.3590    6.5270 C.3   407  LEU407      0.1561
     52  C        -21.6720  -11.4630    5.8950 C.2   407  LEU407      0.2260
     53  O        -20.4480  -11.4150    5.9500 O.2   407  LEU407     -0.2867
     54  CB       -23.0210  -10.8340    7.8850 C.3   407  LEU407      0.0270
     55  CG       -23.3770   -9.7760    8.8840 C.3   407  LEU407      0.0019
     56  CD1      -24.1730  -10.3820   10.0110 C.3   407  LEU407      0.0001
     57  CD2      -22.1400   -9.1440    9.4590 C.3   407  LEU407      0.0001
     58  N        -20.1010  -12.7790    3.2970 N.3   409  ARG409     -0.1231
     59  CA       -19.4790  -12.4750    2.0000 C.3   409  ARG409      0.1694
     60  C        -17.9760  -12.7810    2.0670 C.2   409  ARG409      0.2592
     61  O        -17.4110  -12.7670    3.1520 O.2   409  ARG409     -0.2718
     62  CB       -19.6730  -10.9790    1.6460 C.3   409  ARG409      0.0321
     63  CG       -21.0630  -10.4000    1.9150 C.3   409  ARG409      0.0489
     64  CD       -21.3200   -9.0770    1.1920 C.3   409  ARG409      0.2205
     65  NE       -21.2860   -9.1890   -0.2710 N.pl3 409  ARG409     -0.0865
     66  CZ       -22.3090   -9.5730   -1.0320 C.cat 409  ARG409      0.5346
     67  NH1      -23.4630   -9.9260   -0.4770 N.pl3 409  ARG409      0.1354
     68  NH2      -22.1780   -9.6350   -2.3480 N.pl3 409  ARG409      0.1354
     69  N        -17.3450  -13.0760    0.9130 N.am  410  ALA410     -0.1966
     70  CA       -15.9040  -13.3270    0.7780 C.3   410  ALA410      0.1728
     71  C        -15.1340  -12.0040    0.8130 C.2   410  ALA410      0.2616
     72  O        -15.7450  -10.9280    0.7290 O.2   410  ALA410     -0.2715
     73  CB       -15.6220  -14.0670   -0.5220 C.3   410  ALA410      0.0334
     74  N        -13.7990  -12.0770    0.9640 N.am  411  SER411     -0.1950
     75  CA       -12.8950  -10.9030    1.0420 C.3   411  SER411      0.1924
     76  C        -12.9990   -9.9060   -0.1360 C.2   411  SER411      0.2314
     77  O        -12.8570   -8.6950    0.0660 O.2   411  SER411     -0.2863
     78  CB       -11.4480  -11.3380    1.2650 C.3   411  SER411      0.2116
     79  OG       -11.0180  -12.3010    0.3190 O.3   411  SER411     -0.2180
     80  N        -17.0170   -7.6430    0.0640 N.3   414  SER414     -0.1217
     81  CA       -17.4860   -6.7780    1.1580 C.3   414  SER414      0.1889
     82  C        -18.3470   -5.6000    0.7280 C.2   414  SER414      0.2288
     83  O        -18.0260   -4.9040   -0.2400 O.2   414  SER414     -0.2866
     84  CB       -16.3260   -6.2780    2.0110 C.3   414  SER414      0.2089
     85  OG       -16.8000   -5.6490    3.1910 O.3   414  SER414     -0.2183
     86  N        -19.6270   -4.0380    3.5950 N.3   416  LEU416     -0.1231
     87  CA       -19.5180   -3.5420    4.9560 C.3   416  LEU416      0.1693
     88  C        -18.2310   -2.8370    5.2290 C.2   416  LEU416      0.2593
     89  O        -17.1410   -3.3870    5.0050 O.2   416  LEU416     -0.2718
     90  CB       -19.7010   -4.6970    5.9510 C.3   416  LEU416      0.0284
     91  CG       -21.0030   -4.7080    6.7400 C.3   416  LEU416      0.0019
     92  CD1      -22.2050   -4.4110    5.8520 C.3   416  LEU416      0.0001
     93  CD2      -21.1950   -6.0330    7.4210 C.3   416  LEU416      0.0001
     94  N        -18.3640   -1.6210    5.7610 N.am  417  SER417     -0.1938
     95  CA       -17.2170   -0.8310    6.1290 C.3   417  SER417      0.2055
     96  C        -16.5850   -1.4690    7.3470 C.2   417  SER417      0.2642
     97  O        -15.5720   -2.1540    7.2030 O.2   417  SER417     -0.2714
     98  CB       -17.6050    0.6200    6.4150 C.3   417  SER417      0.2130
     99  OG       -17.4090    1.4770    5.3020 O.3   417  SER417     -0.2179
    100  N        -17.2220   -1.3030    8.5360 N.am  418  MET418     -0.1976
    101  CA       -16.6970   -1.6620    9.8570 C.3   418  MET418      0.1605
    102  C        -15.6210   -0.5990   10.0600 C.2   418  MET418      0.2287
    103  O        -14.9650   -0.2330    9.0890 O.2   418  MET418     -0.2864
    104  CB       -16.1670   -3.1050    9.9430 C.3   418  MET418      0.0413
    105  CG       -17.2700   -4.1490    9.9010 C.3   418  MET418      0.0598
    106  SD       -16.6840   -5.7510   10.4900 S.3   418  MET418     -0.1393
    107  CE       -17.8740   -6.0660   11.7350 C.3   418  MET418      0.0692
    108  N        -24.0950   -0.7490   11.1210 N.3   427  LEU427     -0.1245
    109  CA       -23.2640   -1.6550   10.3280 C.3   427  LEU427      0.1561
    110  C        -23.6570   -1.6180    8.8590 C.2   427  LEU427      0.2260
    111  O        -22.8060   -1.8850    8.0100 O.2   427  LEU427     -0.2867
    112  CB       -23.4560   -3.1170   10.8090 C.3   427  LEU427      0.0270
    113  CG       -22.4020   -3.8260   11.6850 C.3   427  LEU427      0.0019
    114  CD1      -20.9740   -3.6100   11.2030 C.3   427  LEU427      0.0001
    115  CD2      -22.5440   -3.4550   13.1120 C.3   427  LEU427      0.0001
    116  N        -20.7360  -10.1620   23.5680 N.3   465  TYR465     -0.1241
    117  CA       -19.8810   -8.9690   23.4350 C.3   465  TYR465      0.1605
    118  C        -20.0550   -7.9790   24.5660 C.2   465  TYR465      0.2264
    119  O        -19.3480   -6.9700   24.6050 O.2   465  TYR465     -0.2867
    120  CB       -20.2240   -8.2160   22.1210 C.3   465  TYR465      0.0534
    121  CG       -19.6260   -8.8080   20.8600 C.ar  465  TYR465     -0.0201
    122  CD1      -18.2960   -8.5600   20.5100 C.ar  465  TYR465     -0.0009
    123  CD2      -20.3990   -9.5790   19.9900 C.ar  465  TYR465     -0.0009
    124  CE1      -17.7550   -9.0600   19.3230 C.ar  465  TYR465      0.0417
    125  CE2      -19.8640  -10.0890   18.8020 C.ar  465  TYR465      0.0417
    126  CZ       -18.5440   -9.8240   18.4720 C.ar  465  TYR465      0.1957
    127  OH       -18.0040  -10.3700   17.3250 O.3   465  TYR465     -0.2866
    128  N         -7.1010  -12.8870    4.9780 N.3   494  LYS494     -0.1231
    129  CA        -7.9490  -11.7220    4.7380 C.3   494  LYS494      0.1693
    130  C         -9.0210  -11.4560    5.7930 C.2   494  LYS494      0.2592
    131  O        -10.0100  -10.7680    5.5160 O.2   494  LYS494     -0.2718
    132  CB        -8.4750  -11.7440    3.2940 C.3   494  LYS494      0.0285
    133  CG        -7.3610  -11.4520    2.2940 C.3   494  LYS494      0.0035
    134  CD        -7.7080  -11.8010    0.8700 C.3   494  LYS494      0.0206
    135  CE        -6.4590  -11.7950    0.0160 C.3   494  LYS494      0.1093
    136  NZ        -6.7640  -11.8050   -1.4480 N.3   494  LYS494     -0.1314
    137  N         -8.8260  -11.9740    7.0250 N.am  495  ASP495     -0.1960
    138  CA        -9.7510  -11.6030    8.0930 C.3   495  ASP495      0.1840
    139  C         -9.2270  -10.2410    8.5560 C.2   495  ASP495      0.2622
    140  O         -8.1030  -10.1710    9.0280 O.2   495  ASP495     -0.2715
    141  CB        -9.7900  -12.6240    9.2550 C.3   495  ASP495      0.1450
    142  CG       -10.8980  -12.3780   10.2810 C.2   495  ASP495      0.3671
    143  OD1      -11.2350  -11.1870   10.5330 O.co2 495  ASP495     -0.2456
    144  OD2      -11.3980  -13.3700   10.8710 O.co2 495  ASP495     -0.2456
    145  N        -10.0160   -9.1600    8.3860 N.am  496  PHE496     -0.1960
    146  CA        -9.5700   -7.8110    8.7580 C.3   496  PHE496      0.1771
    147  C         -9.7830   -7.3770   10.2050 C.2   496  PHE496      0.2619
    148  O         -9.2710   -6.3320   10.6140 O.2   496  PHE496     -0.2715
    149  CB        -9.9820   -6.7600    7.7120 C.3   496  PHE496      0.0574
    150  CG        -9.5230   -7.1300    6.3170 C.ar  496  PHE496     -0.0200
    151  CD1       -8.1880   -7.4380    6.0610 C.ar  496  PHE496     -0.0042
    152  CD2      -10.4310   -7.2260    5.2740 C.ar  496  PHE496     -0.0042
    153  CE1       -7.7690   -7.8100    4.7780 C.ar  496  PHE496     -0.0003
    154  CE2      -10.0060   -7.5790    3.9860 C.ar  496  PHE496     -0.0003
    155  CZ        -8.6830   -7.8870    3.7520 C.ar  496  PHE496     -0.0000
    156  N        -10.4810   -8.2060   10.9940 N.am  497  VAL497     -0.1977
    157  CA       -10.7180   -7.9540   12.4140 C.3   497  VAL497      0.1596
    158  C         -9.7990   -8.8830   13.2140 C.2   497  VAL497      0.2287
    159  O         -9.0380   -8.4190   14.0690 O.2   497  VAL497     -0.2864
    160  CB       -12.2170   -8.1180   12.7640 C.3   497  VAL497      0.0276
    161  CG1      -12.4550   -8.1070   14.2710 C.3   497  VAL497      0.0022
    162  CG2      -13.0490   -7.0390   12.0690 C.3   497  VAL497      0.0022
    163  N        -11.3060  -15.0120    4.1980 N.3   522  GLY522     -0.1210
    164  CA       -11.8830  -13.9500    5.0040 C.3   522  GLY522      0.1956
    165  C        -12.2540  -14.4450    6.3910 C.2   522  GLY522      0.2612
    166  O        -11.7050  -15.4520    6.8710 O.2   522  GLY522     -0.2717
    167  N        -13.1810  -13.7310    7.0530 N.am  523  HIS523     -0.1961
    168  CA       -13.6410  -14.0560    8.4110 C.3   523  HIS523      0.1787
    169  C        -14.4560  -15.3680    8.5190 C.2   523  HIS523      0.2620
    170  O        -14.3890  -16.0280    9.5460 O.2   523  HIS523     -0.2715
    171  CB       -14.4690  -12.8900    8.9990 C.3   523  HIS523      0.0785
    172  CG       -14.9690  -13.1730   10.3850 C.ar  523  HIS523      0.0821
    173  ND1      -14.0990  -13.2240   11.4710 N.ar  523  HIS523     -0.2267
    174  CD2      -16.2130  -13.5130   10.8050 C.ar  523  HIS523      0.1154
    175  CE1      -14.8490  -13.5450   12.5110 C.ar  523  HIS523      0.1986
    176  NE2      -16.1240  -13.7490   12.1570 N.ar  523  HIS523     -0.2212
    177  N        -15.2700  -15.6920    7.5050 N.am  524  TRP524     -0.1974
    178  CA       -16.1880  -16.8380    7.4790 C.3   524  TRP524      0.1640
    179  C        -15.4740  -18.0440    6.9410 C.2   524  TRP524      0.2290
    180  O        -15.8580  -18.6130    5.9310 O.2   524  TRP524     -0.2864
    181  CB       -17.4700  -16.4900    6.7090 C.3   524  TRP524      0.0576
    182  CG       -17.9400  -15.0910    6.9900 C.ar  524  TRP524      0.0006
    183  CD1      -17.7260  -13.9940    6.2130 C.ar  524  TRP524      0.0946
    184  CD2      -18.5650  -14.6120    8.1970 C.ar  524  TRP524      0.0152
    185  NE1      -18.2340  -12.8750    6.8220 N.ar  524  TRP524     -0.2442
    186  CE2      -18.7870  -13.2280    8.0270 C.ar  524  TRP524      0.0810
    187  CE3      -19.0450  -15.2340    9.3670 C.ar  524  TRP524      0.0012
    188  CZ2      -19.3950  -12.4350    9.0180 C.ar  524  TRP524      0.0191
    189  CZ3      -19.6460  -14.4550   10.3400 C.ar  524  TRP524      0.0001
    190  CH2      -19.8350  -13.0740   10.1560 C.ar  524  TRP524      0.0015
@<TRIPOS>BOND
     1    68    66    1
     2   136   135    1
     3    66    67    1
     4    66    65    2
     5    73    70    1
     6    65    64    1
     7    83    82    2
     8    76    77    2
     9    76    75    1
    10   135   134    1
    11    80    81    1
    12    79    78    1
    13    82    81    1
    14    72    71    2
    15    70    71    1
    16    70    69    1
    17    71    74   am
    18   134   133    1
    19    69    60   am
    20    74    75    1
    21    75    78    1
    22    81    84    1
    23    64    63    1
    24    62    63    1
    25    62    59    1
    26    59    60    1
    27    59    58    1
    28    84    85    1
    29    60    61    2
    30   133   132    1
    31   132   129    1
    32    86    87    1
    33   155   154   ar
    34   155   153   ar
    35   154   152   ar
    36   163   164    1
    37   129   128    1
    38   129   130    1
    39   153   151   ar
    40    87    88    1
    41    87    90    1
    42   164   165    1
    43    89    88    2
    44    88    94   am
    45   152   150   ar
    46    99    98    1
    47   131   130    2
    48    50    51    1
    49    94    95    1
    50   130   137   am
    51    92    91    1
    52    52    53    2
    53    52    51    1
    54   180   179    2
    55    90    91    1
    56   151   150   ar
    57    95    98    1
    58    95    96    1
    59   183   185   ar
    60   183   182   ar
    61   150   149    1
    62   165   166    2
    63   165   167   am
    64    51    54    1
    65   181   182    1
    66   181   178    1
    67    91    93    1
    68   185   186   ar
    69   179   178    1
    70   182   184   ar
    71   137   138    1
    72   167   168    1
    73    97    96    2
    74    96   100   am
    75   178   177    1
    76   177   169   am
    77   149   146    1
    78    54    55    1
    79   111   110    2
    80   186   184   ar
    81   186   188   ar
    82   138   139    1
    83   138   141    1
    84   184   187   ar
    85   145   139   am
    86   145   146    1
    87   168   169    1
    88   168   171    1
    89   169   170    2
    90   100   101    1
    91   139   140    2
    92   146   147    1
    93   110   109    1
    94    55    57    1
    95    55    56    1
    96   171   172    1
    97   188   190   ar
    98   103   102    2
    99   141   142    1
   100   187   189   ar
   101   101   104    1
   102   101   102    1
   103   105   104    1
   104   105   106    1
   105   190   189   ar
   106   147   148    2
   107   147   156   am
   108   142   143   ar
   109   142   144   ar
   110   109   112    1
   111   109   108    1
   112   172   174   ar
   113   172   173   ar
   114   106   107    1
   115   174   176   ar
   116   112   113    1
   117   156   157    1
   118   114   113    1
   119   173   175   ar
   120   113   115    1
   121   162   160    1
   122   176   175   ar
   123   157   160    1
   124   157   158    1
   125    15    14    2
   126    18    17    1
   127    18    12    1
   128   160   161    1
   129    17    16    1
   130   158   159    2
   131    14    13    1
   132     4     3    2
   133    12     3   am
   134    12    13    1
   135    16    13    1
   136     3     2    1
   137    31    32    1
   138    31    28    1
   139    33    32   ar
   140    33    35   ar
   141    32    34   ar
   142    35    37   ar
   143    23    24    1
   144    23    20    1
   145    25    24   ar
   146    34    36   ar
   147     9     7   ar
   148     9    11   ar
   149    28    27    1
   150    28    29    1
   151     7     6   ar
   152    37    36   ar
   153    37    38    1
   154    49    47   ar
   155    49    48   ar
   156    24    26   ar
   157    19    20    1
   158     2     1    1
   159     2     5    1
   160    47    45   ar
   161    20    21    1
   162    11    10   ar
   163     6     5    1
   164     6     8   ar
   165    48    46   ar
   166    29    30    2
   167    10     8   ar
   168   127   126    1
   169    45    44   ar
   170    21    22    2
   171    46    44   ar
   172    44    43    1
   173   126   125   ar
   174   126   124   ar
   175   125   123   ar
   176   124   122   ar
   177    39    40    1
   178    43    40    1
   179   123   121   ar
   180    40    41    1
   181   122   121   ar
   182   121   120    1
   183    41    42    2
   184   120   117    1
   185   117   116    1
   186   117   118    1
   187   118   119    2
