@<TRIPOS>MOLECULE
tmp/5ak6A03.pdb
 163 159 0 0 0
SMALL
GASTEIGER

@<TRIPOS>ATOM
      1  N         20.4510  -15.7030  -16.0900 N.3   261  PHE261     -0.1241
      2  CA        21.5420  -14.7520  -15.9240 C.3   261  PHE261      0.1605
      3  C         21.6340  -14.2700  -14.4880 C.2   261  PHE261      0.2264
      4  O         20.6080  -13.8470  -13.9300 O.2   261  PHE261     -0.2867
      5  CB        21.3200  -13.5270  -16.8450 C.3   261  PHE261      0.0534
      6  CG        22.3410  -12.4260  -16.6620 C.ar  261  PHE261     -0.0203
      7  CD1       22.1610  -11.4370  -15.6970 C.ar  261  PHE261     -0.0042
      8  CD2       23.4820  -12.3720  -17.4580 C.ar  261  PHE261     -0.0042
      9  CE1       23.1290  -10.4350  -15.5060 C.ar  261  PHE261     -0.0003
     10  CE2       24.4460  -11.3740  -17.2630 C.ar  261  PHE261     -0.0003
     11  CZ        24.2590  -10.4100  -16.2960 C.ar  261  PHE261     -0.0000
     12  N         14.4900  -17.9140  -15.7690 N.3   329  ASP329     -0.1239
     13  CA        14.9740  -16.5970  -16.2090 C.3   329  ASP329      0.1674
     14  C         15.2260  -16.6170  -17.7320 C.2   329  ASP329      0.2266
     15  O         14.3120  -16.9890  -18.4540 O.2   329  ASP329     -0.2867
     16  CB        16.2140  -16.2220  -15.3310 C.3   329  ASP329      0.1410
     17  CG        16.7880  -14.8490  -15.5890 C.2   329  ASP329      0.3668
     18  OD1       16.2530  -13.8800  -15.0390 O.co2 329  ASP329     -0.2456
     19  OD2       17.7560  -14.7500  -16.3830 O.co2 329  ASP329     -0.2456
     20  N         17.2250   -2.0580  -15.8250 N.3   377  TYR377     -0.1241
     21  CA        18.5380   -2.7010  -15.7690 C.3   377  TYR377      0.1605
     22  C         18.9230   -3.3390  -17.1380 C.2   377  TYR377      0.2264
     23  O         20.0980   -3.3430  -17.4900 O.2   377  TYR377     -0.2867
     24  CB        18.5870   -3.7140  -14.6170 C.3   377  TYR377      0.0534
     25  CG        17.8130   -4.9890  -14.8660 C.ar  377  TYR377     -0.0201
     26  CD1       16.4350   -5.0480  -14.6610 C.ar  377  TYR377     -0.0009
     27  CD2       18.4650   -6.1560  -15.2630 C.ar  377  TYR377     -0.0009
     28  CE1       15.7190   -6.2300  -14.8900 C.ar  377  TYR377      0.0417
     29  CE2       17.7600   -7.3320  -15.5140 C.ar  377  TYR377      0.0417
     30  CZ        16.3890   -7.3730  -15.3160 C.ar  377  TYR377      0.1957
     31  OH        15.7210   -8.5780  -15.5250 O.3   377  TYR377     -0.2866
     32  N         25.5470   -9.5830   -3.7220 N.3   401  SER401     -0.1202
     33  CA        24.5370   -8.5210   -3.9130 C.3   401  SER401      0.2020
     34  C         23.3420   -9.0340   -4.7110 C.2   401  SER401      0.2618
     35  O         22.2020   -8.6630   -4.4310 O.2   401  SER401     -0.2717
     36  CB        25.1390   -7.3360   -4.6550 C.3   401  SER401      0.2103
     37  OG        26.3960   -6.9210   -4.1540 O.3   401  SER401     -0.2182
     38  N         23.5960   -9.8830   -5.7200 N.am  402  LEU402     -0.1979
     39  CA        22.5310  -10.4340   -6.5710 C.3   402  LEU402      0.1596
     40  C         21.6860  -11.5150   -5.9240 C.2   402  LEU402      0.2287
     41  O         20.4440  -11.4510   -5.9500 O.2   402  LEU402     -0.2864
     42  CB        23.1390  -10.9780   -7.8600 C.3   402  LEU402      0.0297
     43  CG        23.5020   -9.9710   -8.9180 C.3   402  LEU402      0.0022
     44  CD1       24.3820  -10.6160   -9.9610 C.3   402  LEU402      0.0001
     45  CD2       22.2540   -9.4000   -9.5700 C.3   402  LEU402      0.0001
     46  N         20.1070  -12.8480   -3.2880 N.3   404  ARG404     -0.1231
     47  CA        19.4750  -12.5550   -1.9930 C.3   404  ARG404      0.1694
     48  C         18.0010  -12.9040   -2.0280 C.2   404  ARG404      0.2592
     49  O         17.3940  -12.7790   -3.0860 O.2   404  ARG404     -0.2718
     50  CB        19.6130  -11.0630   -1.6480 C.3   404  ARG404      0.0321
     51  CG        20.9130  -10.4110   -2.0410 C.3   404  ARG404      0.0489
     52  CD        21.0800   -9.0820   -1.3410 C.3   404  ARG404      0.2205
     53  NE        22.2620   -9.1420   -0.4940 N.pl3 404  ARG404     -0.0865
     54  CZ        22.2430   -9.4470    0.7900 C.cat 404  ARG404      0.5346
     55  NH1       21.0950   -9.6470    1.4100 N.pl3 404  ARG404      0.1354
     56  NH2       23.3690   -9.5310    1.4710 N.pl3 404  ARG404      0.1354
     57  N         17.4230  -13.3480   -0.8780 N.am  405  ALA405     -0.1966
     58  CA        15.9940  -13.6750   -0.7270 C.3   405  ALA405      0.1728
     59  C         15.1620  -12.3540   -0.7270 C.2   405  ALA405      0.2616
     60  O         15.7460  -11.2670   -0.6060 O.2   405  ALA405     -0.2715
     61  CB        15.7640  -14.4730    0.5480 C.3   405  ALA405      0.0334
     62  N         13.8350  -12.4340   -0.9560 N.am  406  SER406     -0.1950
     63  CA        12.9460  -11.2430   -1.0860 C.3   406  SER406      0.1924
     64  C         12.9670  -10.2640    0.1200 C.2   406  SER406      0.2314
     65  O         12.7900   -9.0560   -0.0620 O.2   406  SER406     -0.2863
     66  CB        11.5170  -11.6560   -1.4320 C.3   406  SER406      0.2116
     67  OG        10.9830  -12.5780   -0.4940 O.3   406  SER406     -0.2180
     68  N         17.0770   -8.2480    0.0230 N.3   409  SER409     -0.1217
     69  CA        17.5620   -7.4190   -1.0960 C.3   409  SER409      0.1889
     70  C         18.2580   -6.1120   -0.7900 C.2   409  SER409      0.2288
     71  O         17.9220   -5.4250    0.1750 O.2   409  SER409     -0.2866
     72  CB        16.5300   -7.2820   -2.2110 C.3   409  SER409      0.2089
     73  OG        16.2350   -8.5330   -2.8140 O.3   409  SER409     -0.2183
     74  N         19.3400   -4.5280   -3.9210 N.3   411  LEU411     -0.1245
     75  CA        19.1580   -4.0610   -5.3060 C.3   411  LEU411      0.1561
     76  C         17.7320   -3.7730   -5.7660 C.2   411  LEU411      0.2260
     77  O         16.8560   -4.6370   -5.7060 O.2   411  LEU411     -0.2867
     78  CB        19.8000   -5.0220   -6.3320 C.3   411  LEU411      0.0270
     79  CG        21.2620   -5.4170   -6.2040 C.3   411  LEU411      0.0019
     80  CD1       21.6760   -6.2740   -7.3780 C.3   411  LEU411      0.0001
     81  CD2       22.1690   -4.2090   -6.0440 C.3   411  LEU411      0.0001
     82  N         15.8490   -2.6270   -9.3080 N.3   413  MET413     -0.1245
     83  CA        16.1850   -2.6780  -10.7310 C.3   413  MET413      0.1570
     84  C         15.5700   -1.6590  -11.6900 C.2   413  MET413      0.2261
     85  O         15.7090   -1.7570  -12.9180 O.2   413  MET413     -0.2867
     86  CB        16.2110   -4.1010  -11.2560 C.3   413  MET413      0.0387
     87  CG        17.6150   -4.6300  -11.2440 C.3   413  MET413      0.0595
     88  SD        17.7360   -6.2240  -10.5010 S.3   413  MET413     -0.1393
     89  CE        17.1550   -5.8790   -8.8760 C.3   413  MET413      0.0692
     90  N         21.1020  -10.4110  -23.6080 N.3   460  TYR460     -0.1241
     91  CA        20.2150   -9.2140  -23.5890 C.3   460  TYR460      0.1605
     92  C         20.3650   -8.3020  -24.7670 C.2   460  TYR460      0.2264
     93  O         19.6020   -7.3550  -24.8780 O.2   460  TYR460     -0.2867
     94  CB        20.5820   -8.3180  -22.4090 C.3   460  TYR460      0.0534
     95  CG        20.2910   -8.9140  -21.0660 C.ar  460  TYR460     -0.0201
     96  CD1       21.2530   -9.6650  -20.3970 C.ar  460  TYR460     -0.0009
     97  CD2       19.0830   -8.6660  -20.4200 C.ar  460  TYR460     -0.0009
     98  CE1       21.0150  -10.1650  -19.1310 C.ar  460  TYR460      0.0417
     99  CE2       18.8420   -9.1430  -19.1410 C.ar  460  TYR460      0.0417
    100  CZ        19.8100   -9.9020  -18.5060 C.ar  460  TYR460      0.1957
    101  OH        19.5920  -10.4190  -17.2660 O.3   460  TYR460     -0.2866
    102  N          8.9640  -12.3860   -7.0290 N.3   490  ASP490     -0.1225
    103  CA         9.9430  -12.0020   -8.0350 C.3   490  ASP490      0.1805
    104  C          9.4450  -10.5980   -8.4560 C.2   490  ASP490      0.2598
    105  O          8.3590  -10.4830   -9.0270 O.2   490  ASP490     -0.2718
    106  CB        10.0130  -12.9850   -9.2220 C.3   490  ASP490      0.1424
    107  CG        11.1790  -12.7200  -10.1570 C.2   490  ASP490      0.3668
    108  OD1       11.5820  -11.5340  -10.2970 O.co2 490  ASP490     -0.2456
    109  OD2       11.6330  -13.6710  -10.8170 O.co2 490  ASP490     -0.2456
    110  N         10.2110   -9.5410   -8.0940 N.am  491  PHE491     -0.1962
    111  CA         9.8250   -8.1620   -8.3740 C.3   491  PHE491      0.1771
    112  C         10.0740   -7.6630   -9.7790 C.2   491  PHE491      0.2619
    113  O          9.6900   -6.5310  -10.0790 O.2   491  PHE491     -0.2715
    114  CB        10.2720   -7.1970   -7.2580 C.3   491  PHE491      0.0574
    115  CG         9.7630   -7.6130   -5.8920 C.ar  491  PHE491     -0.0200
    116  CD1        8.4180   -7.9220   -5.6910 C.ar  491  PHE491     -0.0042
    117  CD2       10.6320   -7.7260   -4.8130 C.ar  491  PHE491     -0.0042
    118  CE1        7.9470   -8.2960   -4.4200 C.ar  491  PHE491     -0.0003
    119  CE2       10.1580   -8.1000   -3.5400 C.ar  491  PHE491     -0.0003
    120  CZ         8.8230   -8.3800   -3.3550 C.ar  491  PHE491     -0.0000
    121  N         10.6470   -8.5310  -10.6650 N.am  492  VAL492     -0.1963
    122  CA        10.8740   -8.2560  -12.0960 C.3   492  VAL492      0.1727
    123  C          9.9550   -9.1830  -12.9260 C.2   492  VAL492      0.2616
    124  O          9.1210   -8.7050  -13.6990 O.2   492  VAL492     -0.2715
    125  CB        12.3650   -8.3760  -12.5150 C.3   492  VAL492      0.0290
    126  CG1       12.5330   -8.1820  -14.0290 C.3   492  VAL492      0.0023
    127  CG2       13.2340   -7.3740  -11.7380 C.3   492  VAL492      0.0023
    128  N         10.0900  -10.5080  -12.7210 N.am  493  LEU493     -0.1977
    129  CA         9.2680  -11.5000  -13.4200 C.3   493  LEU493      0.1596
    130  C          8.0800  -11.7940  -12.5140 C.2   493  LEU493      0.2287
    131  O          7.9970  -12.8480  -11.8680 O.2   493  LEU493     -0.2864
    132  CB        10.0970  -12.7600  -13.7620 C.3   493  LEU493      0.0297
    133  CG        11.4030  -12.5130  -14.5640 C.3   493  LEU493      0.0022
    134  CD1       12.2250  -13.7580  -14.6170 C.3   493  LEU493      0.0001
    135  CD2       11.1070  -12.0360  -15.9880 C.3   493  LEU493      0.0001
    136  N         11.5250  -15.4420   -4.0430 N.3   517  GLY517     -0.1210
    137  CA        12.1160  -14.3800   -4.8320 C.3   517  GLY517      0.1956
    138  C         12.4760  -14.8360   -6.2430 C.2   517  GLY517      0.2612
    139  O         11.9240  -15.8200   -6.7640 O.2   517  GLY517     -0.2717
    140  N         13.4200  -14.1170   -6.8620 N.am  518  HIS518     -0.1961
    141  CA        13.8840  -14.3860   -8.2150 C.3   518  HIS518      0.1787
    142  C         14.6510  -15.6910   -8.3600 C.2   518  HIS518      0.2620
    143  O         14.5060  -16.3670   -9.3610 O.2   518  HIS518     -0.2715
    144  CB        14.7630  -13.2260   -8.7530 C.3   518  HIS518      0.0785
    145  CG        15.2450  -13.5010  -10.1490 C.ar  518  HIS518      0.0821
    146  ND1       14.3610  -13.5740  -11.2090 N.ar  518  HIS518     -0.2267
    147  CD2       16.4800  -13.8440  -10.5880 C.ar  518  HIS518      0.1154
    148  CE1       15.0900  -13.9260  -12.2580 C.ar  518  HIS518      0.1986
    149  NE2       16.3740  -14.0700  -11.9360 N.ar  518  HIS518     -0.2212
    150  N         15.4980  -16.0130   -7.3920 N.am  519  TRP519     -0.1974
    151  CA        16.4070  -17.1630   -7.4060 C.3   519  TRP519      0.1640
    152  C         15.6390  -18.3710   -6.9420 C.2   519  TRP519      0.2290
    153  O         16.0420  -19.0380   -6.0150 O.2   519  TRP519     -0.2864
    154  CB        17.6480  -16.8140   -6.5540 C.3   519  TRP519      0.0576
    155  CG        18.1560  -15.4290   -6.8680 C.ar  519  TRP519      0.0006
    156  CD1       17.9200  -14.2900   -6.1510 C.ar  519  TRP519      0.0946
    157  CD2       18.7850  -15.0060   -8.0890 C.ar  519  TRP519      0.0152
    158  NE1       18.4150  -13.1960   -6.8190 N.ar  519  TRP519     -0.2442
    159  CE2       18.9890  -13.6110   -7.9920 C.ar  519  TRP519      0.0810
    160  CE3       19.2770  -15.6840   -9.2190 C.ar  519  TRP519      0.0012
    161  CZ2       19.6270  -12.8770   -8.9960 C.ar  519  TRP519      0.0191
    162  CZ3       19.9120  -14.9560  -10.2010 C.ar  519  TRP519      0.0001
    163  CH2       20.0800  -13.5660  -10.0880 C.ar  519  TRP519      0.0015
@<TRIPOS>BOND
     1    93    92    2
     2    92    91    1
     3    90    91    1
     4    91    94    1
     5    94    95    1
     6    95    97   ar
     7    95    96   ar
     8    97    99   ar
     9    96    98   ar
    10    99   100   ar
    11    98   100   ar
    12   100   101    1
    13    15    14    2
    14    14    13    1
    15    23    22    2
    16     8    10   ar
    17     8     6   ar
    18    10    11   ar
    19    22    21    1
    20     5     6    1
    21     5     2    1
    22     6     7   ar
    23    19    17   ar
    24    11     9   ar
    25    13    12    1
    26    13    16    1
    27     1     2    1
    28   135   133    1
    29     2     3    1
    30    20    21    1
    31    21    24    1
    32     7     9   ar
    33    17    16    1
    34    17    18   ar
    35    31    30    1
    36    29    30   ar
    37    29    27   ar
    38    30    28   ar
    39    27    25   ar
    40    28    26   ar
    41    25    26   ar
    42    25    24    1
    43   134   133    1
    44   133   132    1
    45     3     4    2
    46   126   125    1
    47   132   129    1
    48   124   123    2
    49   129   128    1
    50   129   130    1
    51   123   128   am
    52   123   122    1
    53    85    84    2
    54   125   122    1
    55   125   127    1
    56   130   131    2
    57   148   149   ar
    58   148   146   ar
    59   122   121    1
    60   149   147   ar
    61    84    83    1
    62    86    87    1
    63    86    83    1
    64    87    88    1
    65   146   145   ar
    66   109   107   ar
    67    83    82    1
    68   121   112   am
    69   147   145   ar
    70    88    89    1
    71   108   107   ar
    72   162   163   ar
    73   162   160   ar
    74   107   106    1
    75   145   144    1
    76   163   161   ar
    77   113   112    2
    78    44    43    1
    79   112   111    1
    80    45    43    1
    81   143   142    2
    82   106   103    1
    83   160   157   ar
    84   105   104    2
    85   161   159   ar
    86    43    42    1
    87   144   141    1
    88   104   110   am
    89   104   103    1
    90   111   110    1
    91   111   114    1
    92   142   141    1
    93   142   150   am
    94   141   140    1
    95   157   159   ar
    96   157   155   ar
    97   103   102    1
    98   159   158   ar
    99    42    39    1
   100   151   150    1
   101   151   152    1
   102   151   154    1
   103    80    79    1
   104   114   115    1
   105   152   153    2
   106   155   154    1
   107   155   156   ar
   108   140   138   am
   109   158   156   ar
   110   139   138    2
   111    39    40    1
   112    39    38    1
   113    78    79    1
   114    78    75    1
   115   138   137    1
   116    79    81    1
   117    41    40    2
   118   115   116   ar
   119   115   117   ar
   120    76    77    2
   121    76    75    1
   122    38    34   am
   123   116   118   ar
   124    75    74    1
   125   137   136    1
   126   117   119   ar
   127    34    35    2
   128    34    33    1
   129    36    37    1
   130    36    33    1
   131   118   120   ar
   132    33    32    1
   133   119   120   ar
   134    46    47    1
   135    49    48    2
   136    73    72    1
   137    72    69    1
   138    51    50    1
   139    51    52    1
   140    48    47    1
   141    48    57   am
   142    47    50    1
   143    66    63    1
   144    66    67    1
   145    52    53    1
   146    69    70    1
   147    69    68    1
   148    63    62    1
   149    63    64    1
   150    62    59   am
   151    57    58    1
   152    70    71    2
   153    58    59    1
   154    58    61    1
   155    59    60    2
   156    53    54    2
   157    65    64    2
   158    54    55    1
   159    54    56    1
