@<TRIPOS>MOLECULE
tmp/5ak6A04.pdb
 140 134 0 0 0
SMALL
GASTEIGER

@<TRIPOS>ATOM
      1  N         12.9280  -18.3970  -21.1830 N.3   333  MET333     -0.1245
      2  CA        12.5930  -17.8550  -22.4950 C.3   333  MET333      0.1570
      3  C         13.0510  -18.8270  -23.5780 C.2   333  MET333      0.2261
      4  O         12.2940  -19.0860  -24.5270 O.2   333  MET333     -0.2867
      5  CB        13.2640  -16.4880  -22.7140 C.3   333  MET333      0.0387
      6  CG        12.7790  -15.7740  -23.9750 C.3   333  MET333      0.0595
      7  SD        11.2080  -14.9010  -23.6500 S.3   333  MET333     -0.1393
      8  CE         9.9390  -16.2070  -23.9780 C.3   333  MET333      0.0692
      9  N         10.7930  -20.9050  -26.6010 N.3   337  TYR337     -0.1241
     10  CA        11.1550  -20.9060  -28.0300 C.3   337  TYR337      0.1605
     11  C         11.4720  -22.2950  -28.5990 C.2   337  TYR337      0.2264
     12  O         11.0980  -22.5780  -29.7420 O.2   337  TYR337     -0.2867
     13  CB        12.1500  -19.7880  -28.4200 C.3   337  TYR337      0.0534
     14  CG        11.4870  -18.4330  -28.3400 C.ar  337  TYR337     -0.0201
     15  CD1       10.2920  -18.1830  -29.0090 C.ar  337  TYR337     -0.0009
     16  CD2       11.9860  -17.4360  -27.5030 C.ar  337  TYR337     -0.0009
     17  CE1        9.5990  -16.9900  -28.8420 C.ar  337  TYR337      0.0417
     18  CE2       11.3170  -16.2150  -27.3570 C.ar  337  TYR337      0.0417
     19  CZ        10.1080  -16.0110  -28.0140 C.ar  337  TYR337      0.1957
     20  OH         9.3640  -14.8620  -27.9130 O.3   337  TYR337     -0.2866
     21  N          9.8380  -17.0860  -15.7620 N.3   354  THR354     -0.1204
     22  CA         9.7140  -16.4910  -17.1000 C.3   354  THR354      0.1979
     23  C          8.4380  -16.8780  -17.7700 C.2   354  THR354      0.2459
     24  O          8.2420  -18.0630  -18.0520 O.2   354  THR354     -0.2732
     25  CB        10.9180  -16.7910  -17.9960 C.3   354  THR354      0.1783
     26  OG1       12.0810  -16.6400  -17.2030 O.3   354  THR354     -0.2211
     27  CG2       10.9640  -15.8880  -19.2510 C.3   354  THR354      0.0376
     28  N          7.5610  -15.8810  -18.0400 N.am  355  PRO355     -0.2728
     29  CA         6.3000  -16.1920  -18.7120 C.3   355  PRO355      0.1401
     30  C          6.5290  -16.2680  -20.2160 C.2   355  PRO355      0.2269
     31  O          7.5660  -15.8230  -20.7050 O.2   355  PRO355     -0.2865
     32  CB         5.4310  -14.9730  -18.3650 C.3   355  PRO355      0.0296
     33  CG         6.3800  -13.8470  -18.3110 C.3   355  PRO355      0.0237
     34  CD         7.6660  -14.4240  -17.7540 C.3   355  PRO355      0.0939
     35  N          5.4530  -14.6040  -23.4840 N.3   357  ILE357     -0.1231
     36  CA         4.8180  -13.3960  -23.9950 C.3   357  ILE357      0.1678
     37  C          5.0630  -13.3040  -25.5120 C.2   357  ILE357      0.2434
     38  O          6.2060  -13.3540  -25.9630 O.2   357  ILE357     -0.2733
     39  CB         5.2180  -12.1070  -23.2090 C.3   357  ILE357      0.0265
     40  CG1        4.7930  -12.2250  -21.7250 C.3   357  ILE357      0.0019
     41  CG2        4.5880  -10.8320  -23.8650 C.3   357  ILE357      0.0020
     42  CD1        5.3400  -11.1730  -20.8590 C.3   357  ILE357      0.0001
     43  N          4.0040  -13.2450  -26.3220 N.am  358  PRO358     -0.2718
     44  CA         4.2120  -13.1390  -27.7810 C.3   358  PRO358      0.1535
     45  C          4.8120  -11.7910  -28.1590 C.2   358  PRO358      0.2598
     46  O          4.5350  -10.7830  -27.4830 O.2   358  PRO358     -0.2715
     47  CB         2.8030  -13.2560  -28.3550 C.3   358  PRO358      0.0310
     48  CG         1.9460  -13.7140  -27.2130 C.3   358  PRO358      0.0237
     49  CD         2.5690  -13.2110  -25.9810 C.3   358  PRO358      0.0939
     50  N          5.6330  -11.7700  -29.2280 N.am  359  ALA359     -0.1978
     51  CA         6.2330  -10.5450  -29.7380 C.3   359  ALA359      0.1597
     52  C          5.1110   -9.5800  -30.1460 C.2   359  ALA359      0.2287
     53  O          4.0670  -10.0180  -30.6650 O.2   359  ALA359     -0.2864
     54  CB         7.0990  -10.8520  -30.9450 C.3   359  ALA359      0.0319
     55  N         10.9500   -3.6260  -29.6650 N.3   365  PRO365     -0.2116
     56  CA        11.2330   -4.2830  -28.3690 C.3   365  PRO365      0.1372
     57  C         11.8740   -3.3470  -27.3220 C.2   365  PRO365      0.2244
     58  O         11.5930   -3.4790  -26.1290 O.2   365  PRO365     -0.2868
     59  CB        12.0990   -5.4910  -28.7570 C.3   365  PRO365      0.0268
     60  CG        12.6950   -5.1180  -30.0680 C.3   365  PRO365      0.0207
     61  CD        11.6760   -4.2770  -30.7750 C.3   365  PRO365      0.0892
     62  N         10.5230   -2.5210  -23.6420 N.3   369  ILE369     -0.1245
     63  CA        11.4090   -2.6100  -22.4660 C.3   369  ILE369      0.1561
     64  C         11.3110   -1.3220  -21.6600 C.2   369  ILE369      0.2260
     65  O         11.1850   -1.3760  -20.4370 O.2   369  ILE369     -0.2867
     66  CB        12.8650   -3.0440  -22.8430 C.3   369  ILE369      0.0252
     67  CG1       12.9010   -4.5530  -23.1550 C.3   369  ILE369      0.0019
     68  CG2       13.8740   -2.7350  -21.7340 C.3   369  ILE369      0.0019
     69  CD1       13.7760   -4.9550  -24.2750 C.3   369  ILE369      0.0001
     70  N         12.3640   -3.2090  -15.7620 N.3   375  PHE375     -0.1241
     71  CA        13.2210   -3.6950  -16.8370 C.3   375  PHE375      0.1605
     72  C         14.2810   -2.6650  -17.2530 C.2   375  PHE375      0.2264
     73  O         14.9480   -2.8340  -18.2810 O.2   375  PHE375     -0.2867
     74  CB        12.3810   -4.1910  -18.0280 C.3   375  PHE375      0.0534
     75  CG        11.7890   -5.5590  -17.7790 C.ar  375  PHE375     -0.0203
     76  CD1       10.6530   -5.7110  -16.9980 C.ar  375  PHE375     -0.0042
     77  CD2       12.3850   -6.6940  -18.2970 C.ar  375  PHE375     -0.0042
     78  CE1       10.1140   -6.9750  -16.7560 C.ar  375  PHE375     -0.0003
     79  CE2       11.8640   -7.9620  -18.0310 C.ar  375  PHE375     -0.0003
     80  CZ        10.7270   -8.0950  -17.2710 C.ar  375  PHE375     -0.0000
     81  N         17.9180   -3.7870  -17.9330 N.3   378  GLN378     -0.1245
     82  CA        18.1350   -4.3580  -19.2590 C.3   378  GLN378      0.1566
     83  C         18.6260   -3.2970  -20.2560 C.2   378  GLN378      0.2260
     84  O         19.3870   -3.6320  -21.1650 O.2   378  GLN378     -0.2867
     85  CB        16.8770   -5.0880  -19.7390 C.3   378  GLN378      0.0367
     86  CG        16.3860   -6.1300  -18.7370 C.3   378  GLN378      0.0905
     87  CD        15.6990   -7.3380  -19.2830 C.2   378  GLN378      0.2608
     88  OE1       15.2530   -8.2010  -18.5280 O.2   378  GLN378     -0.2717
     89  NE2       15.6320   -7.4610  -20.6020 N.am  378  GLN378     -0.0878
     90  N         17.6640   -8.0020  -28.6450 N.3   463  MET463     -0.1245
     91  CA        16.2240   -7.6390  -28.6010 C.3   463  MET463      0.1570
     92  C         15.5110   -7.6030  -29.9460 C.2   463  MET463      0.2261
     93  O         14.5330   -8.3180  -30.1160 O.2   463  MET463     -0.2867
     94  CB        15.9410   -6.3650  -27.7540 C.3   463  MET463      0.0387
     95  CG        16.3130   -6.5110  -26.2790 C.3   463  MET463      0.0595
     96  SD        15.8510   -8.0800  -25.4190 S.3   463  MET463     -0.1393
     97  CE        16.4560   -7.7000  -23.8120 C.3   463  MET463      0.0692
     98  N         15.7800  -11.0750  -31.9050 N.3   466  ASN466     -0.1225
     99  CA        14.8560  -12.0290  -31.2800 C.3   466  ASN466      0.1785
    100  C         13.4220  -11.6850  -31.5960 C.2   466  ASN466      0.2597
    101  O         12.6210  -12.5900  -31.7740 O.2   466  ASN466     -0.2718
    102  CB        15.0620  -12.0710  -29.7670 C.3   466  ASN466      0.1169
    103  CG        16.3870  -12.6440  -29.3330 C.2   466  ASN466      0.2627
    104  OD1       17.1400  -13.2600  -30.1110 O.2   466  ASN466     -0.2716
    105  ND2       16.6780  -12.4960  -28.0710 N.am  466  ASN466     -0.0877
    106  N         13.0880  -10.3890  -31.6310 N.am  467  TRP467     -0.1976
    107  CA        11.7300   -9.9150  -31.9300 C.3   467  TRP467      0.1640
    108  C         11.3240  -10.2750  -33.3560 C.2   467  TRP467      0.2290
    109  O         10.2590  -10.8690  -33.5300 O.2   467  TRP467     -0.2864
    110  CB        11.5970   -8.4230  -31.6080 C.3   467  TRP467      0.0576
    111  CG        10.3420   -7.7710  -32.0980 C.ar  467  TRP467      0.0006
    112  CD1        9.1100   -7.8080  -31.5150 C.ar  467  TRP467      0.0946
    113  CD2       10.2270   -6.9090  -33.2310 C.ar  467  TRP467      0.0152
    114  NE1        8.2270   -7.0470  -32.2340 N.ar  467  TRP467     -0.2442
    115  CE2        8.8860   -6.4760  -33.2910 C.ar  467  TRP467      0.0810
    116  CE3       11.1350   -6.4520  -34.2030 C.ar  467  TRP467      0.0012
    117  CZ2        8.4160   -5.6300  -34.3040 C.ar  467  TRP467      0.0191
    118  CZ3       10.6730   -5.6250  -35.2110 C.ar  467  TRP467      0.0001
    119  CH2        9.3240   -5.2210  -35.2560 C.ar  467  TRP467      0.0015
    120  N         10.8370  -14.0630  -33.4650 N.3   470  ALA470     -0.1245
    121  CA         9.6540  -14.3750  -32.6840 C.3   470  ALA470      0.1562
    122  C          8.3510  -14.0790  -33.4340 C.2   470  ALA470      0.2260
    123  O          7.3900  -14.8440  -33.3130 O.2   470  ALA470     -0.2867
    124  CB         9.7040  -13.6410  -31.3500 C.3   470  ALA470      0.0290
    125  N         10.0900  -10.5080  -12.7210 N.3   493  LEU493     -0.1245
    126  CA         9.2680  -11.5000  -13.4200 C.3   493  LEU493      0.1561
    127  C          8.0800  -11.7940  -12.5140 C.2   493  LEU493      0.2260
    128  O          7.9970  -12.8480  -11.8680 O.2   493  LEU493     -0.2867
    129  CB        10.0970  -12.7600  -13.7620 C.3   493  LEU493      0.0270
    130  CG        11.4030  -12.5130  -14.5640 C.3   493  LEU493      0.0019
    131  CD1       12.2250  -13.7580  -14.6170 C.3   493  LEU493      0.0001
    132  CD2       11.1070  -12.0360  -15.9880 C.3   493  LEU493      0.0001
    133  N          2.5830  -11.1230  -14.9250 N.3   497  MET497     -0.1245
    134  CA         3.1270  -11.1380  -16.2990 C.3   497  MET497      0.1570
    135  C          2.7300  -12.4240  -17.0780 C.2   497  MET497      0.2261
    136  O          2.7510  -12.4150  -18.3080 O.2   497  MET497     -0.2867
    137  CB         4.6540  -11.0400  -16.2590 C.3   497  MET497      0.0387
    138  CG         5.2030   -9.6350  -16.3140 C.3   497  MET497      0.0595
    139  SD         7.0340   -9.6600  -16.4610 S.3   497  MET497     -0.1393
    140  CE         7.2260  -10.0000  -18.1310 C.3   497  MET497      0.0692
@<TRIPOS>BOND
     1   119   118   ar
     2   119   117   ar
     3   118   116   ar
     4   117   115   ar
     5   116   113   ar
     6   109   108    2
     7   120   121    1
     8   122   123    2
     9   122   121    1
    10   108   107    1
    11   115   113   ar
    12   115   114   ar
    13   113   111   ar
    14   121   124    1
    15   114   112   ar
    16   111   110    1
    17   111   112   ar
    18   107   106    1
    19   107   110    1
    20    98    99    1
    21   101   100    2
    22   106   100   am
    23   100    99    1
    24    99   102    1
    25    54    51    1
    26    61    60    1
    27    61    55    1
    28    53    52    2
    29    52    51    1
    30    93    92    2
    31   104   103    2
    32    60    59    1
    33    92    91    1
    34   102   103    1
    35    12    11    2
    36    51    50    1
    37    55    56    1
    38   103   105   am
    39    50    45   am
    40    15    17   ar
    41    15    14   ar
    42    17    19   ar
    43    59    56    1
    44    90    91    1
    45    91    94    1
    46    11    10    1
    47    13    14    1
    48    13    10    1
    49    56    57    1
    50    47    44    1
    51    47    48    1
    52    14    16   ar
    53    45    44    1
    54    45    46    2
    55    10     9    1
    56    19    20    1
    57    19    18   ar
    58    44    43    1
    59    94    95    1
    60    16    18   ar
    61    57    58    2
    62    48    49    1
    63    43    49    1
    64    43    37   am
    65    95    96    1
    66    38    37    2
    67    37    36    1
    68    96    97    1
    69     4     3    2
    70    69    67    1
    71    36    35    1
    72    36    39    1
    73     8     7    1
    74     6     7    1
    75     6     5    1
    76    41    39    1
    77    62    63    1
    78     3     2    1
    79    39    40    1
    80    67    66    1
    81    66    63    1
    82    66    68    1
    83     5     2    1
    84     2     1    1
    85    63    64    1
    86    40    42    1
    87    64    65    2
    88    84    83    2
    89    31    30    2
    90    89    87   am
    91    83    82    1
    92    30    29    1
    93    85    82    1
    94    85    86    1
    95    87    86    1
    96    87    88    2
    97    82    81    1
    98    27    25    1
    99    29    32    1
   100    29    28    1
   101    32    33    1
   102    33    34    1
   103   136   135    2
   104    77    79   ar
   105    77    75   ar
   106    73    72    2
   107   140   139    1
   108    24    23    2
   109    28    23   am
   110    28    34    1
   111    79    80   ar
   112    74    75    1
   113    74    71    1
   114    25    26    1
   115    25    22    1
   116    75    76   ar
   117    23    22    1
   118    80    78   ar
   119    72    71    1
   120    22    21    1
   121   135   134    1
   122    76    78   ar
   123    71    70    1
   124   139   138    1
   125   138   137    1
   126   134   137    1
   127   134   133    1
   128   132   130    1
   129   131   130    1
   130   130   129    1
   131   129   126    1
   132   126   125    1
   133   126   127    1
   134   127   128    2
