@<TRIPOS>MOLECULE
tmp/5ak6A02.pdb
 141 136 0 0 0
SMALL
GASTEIGER

@<TRIPOS>ATOM
      1  N         20.4510  -15.7030  -16.0900 N.3   261  PHE261     -0.1241
      2  CA        21.5420  -14.7520  -15.9240 C.3   261  PHE261      0.1605
      3  C         21.6340  -14.2700  -14.4880 C.2   261  PHE261      0.2264
      4  O         20.6080  -13.8470  -13.9300 O.2   261  PHE261     -0.2867
      5  CB        21.3200  -13.5270  -16.8450 C.3   261  PHE261      0.0534
      6  CG        22.3410  -12.4260  -16.6620 C.ar  261  PHE261     -0.0203
      7  CD1       22.1610  -11.4370  -15.6970 C.ar  261  PHE261     -0.0042
      8  CD2       23.4820  -12.3720  -17.4580 C.ar  261  PHE261     -0.0042
      9  CE1       23.1290  -10.4350  -15.5060 C.ar  261  PHE261     -0.0003
     10  CE2       24.4460  -11.3740  -17.2630 C.ar  261  PHE261     -0.0003
     11  CZ        24.2590  -10.4100  -16.2960 C.ar  261  PHE261     -0.0000
     12  N         14.4900  -17.9140  -15.7690 N.3   329  ASP329     -0.1225
     13  CA        14.9740  -16.5970  -16.2090 C.3   329  ASP329      0.1805
     14  C         15.2260  -16.6170  -17.7320 C.2   329  ASP329      0.2597
     15  O         14.3120  -16.9890  -18.4540 O.2   329  ASP329     -0.2718
     16  CB        16.2140  -16.2220  -15.3310 C.3   329  ASP329      0.1424
     17  CG        16.7880  -14.8490  -15.5890 C.2   329  ASP329      0.3668
     18  OD1       16.2530  -13.8800  -15.0390 O.co2 329  ASP329     -0.2456
     19  OD2       17.7560  -14.7500  -16.3830 O.co2 329  ASP329     -0.2456
     20  N         16.4410  -16.2900  -18.2450 N.am  330  TRP330     -0.1976
     21  CA        16.7250  -16.3800  -19.6820 C.3   330  TRP330      0.1640
     22  C         16.5750  -17.8080  -20.2400 C.2   330  TRP330      0.2290
     23  O         16.1760  -17.9680  -21.3840 O.2   330  TRP330     -0.2864
     24  CB        18.1110  -15.8160  -20.0340 C.3   330  TRP330      0.0576
     25  CG        18.1040  -14.3710  -20.4360 C.ar  330  TRP330      0.0006
     26  CD1       18.7500  -13.3420  -19.8120 C.ar  330  TRP330      0.0946
     27  CD2       17.5170  -13.8220  -21.6220 C.ar  330  TRP330      0.0152
     28  NE1       18.5470  -12.1680  -20.5070 N.ar  330  TRP330     -0.2442
     29  CE2       17.7600  -12.4320  -21.6050 C.ar  330  TRP330      0.0810
     30  CE3       16.7030  -14.3580  -22.6480 C.ar  330  TRP330      0.0012
     31  CZ2       17.2550  -11.5720  -22.5960 C.ar  330  TRP330      0.0191
     32  CZ3       16.2640  -13.5230  -23.6590 C.ar  330  TRP330      0.0001
     33  CH2       16.5390  -12.1460  -23.6330 C.ar  330  TRP330      0.0015
     34  N         12.9280  -18.3970  -21.1830 N.3   333  MET333     -0.1245
     35  CA        12.5930  -17.8550  -22.4950 C.3   333  MET333      0.1570
     36  C         13.0510  -18.8270  -23.5780 C.2   333  MET333      0.2261
     37  O         12.2940  -19.0860  -24.5270 O.2   333  MET333     -0.2867
     38  CB        13.2640  -16.4880  -22.7140 C.3   333  MET333      0.0387
     39  CG        12.7790  -15.7740  -23.9750 C.3   333  MET333      0.0595
     40  SD        11.2080  -14.9010  -23.6500 S.3   333  MET333     -0.1393
     41  CE         9.9390  -16.2070  -23.9780 C.3   333  MET333      0.0692
     42  N          9.8380  -17.0860  -15.7620 N.3   354  THR354     -0.1218
     43  CA         9.7140  -16.4910  -17.1000 C.3   354  THR354      0.1862
     44  C          8.4380  -16.8780  -17.7700 C.2   354  THR354      0.2287
     45  O          8.2420  -18.0630  -18.0520 O.2   354  THR354     -0.2866
     46  CB        10.9180  -16.7910  -17.9960 C.3   354  THR354      0.1770
     47  OG1       12.0810  -16.6400  -17.2030 O.3   354  THR354     -0.2211
     48  CG2       10.9640  -15.8880  -19.2510 C.3   354  THR354      0.0375
     49  N         10.5230   -2.5210  -23.6420 N.3   369  ILE369     -0.1245
     50  CA        11.4090   -2.6100  -22.4660 C.3   369  ILE369      0.1561
     51  C         11.3110   -1.3220  -21.6600 C.2   369  ILE369      0.2260
     52  O         11.1850   -1.3760  -20.4370 O.2   369  ILE369     -0.2867
     53  CB        12.8650   -3.0440  -22.8430 C.3   369  ILE369      0.0252
     54  CG1       12.9010   -4.5530  -23.1550 C.3   369  ILE369      0.0019
     55  CG2       13.8740   -2.7350  -21.7340 C.3   369  ILE369      0.0019
     56  CD1       13.7760   -4.9550  -24.2750 C.3   369  ILE369      0.0001
     57  N         12.3640   -3.2090  -15.7620 N.3   375  PHE375     -0.1241
     58  CA        13.2210   -3.6950  -16.8370 C.3   375  PHE375      0.1605
     59  C         14.2810   -2.6650  -17.2530 C.2   375  PHE375      0.2264
     60  O         14.9480   -2.8340  -18.2810 O.2   375  PHE375     -0.2867
     61  CB        12.3810   -4.1910  -18.0280 C.3   375  PHE375      0.0534
     62  CG        11.7890   -5.5590  -17.7790 C.ar  375  PHE375     -0.0203
     63  CD1       10.6530   -5.7110  -16.9980 C.ar  375  PHE375     -0.0042
     64  CD2       12.3850   -6.6940  -18.2970 C.ar  375  PHE375     -0.0042
     65  CE1       10.1140   -6.9750  -16.7560 C.ar  375  PHE375     -0.0003
     66  CE2       11.8640   -7.9620  -18.0310 C.ar  375  PHE375     -0.0003
     67  CZ        10.7270   -8.0950  -17.2710 C.ar  375  PHE375     -0.0000
     68  N         17.2250   -2.0580  -15.8250 N.3   377  TYR377     -0.1227
     69  CA        18.5380   -2.7010  -15.7690 C.3   377  TYR377      0.1736
     70  C         18.9230   -3.3390  -17.1380 C.2   377  TYR377      0.2595
     71  O         20.0980   -3.3430  -17.4900 O.2   377  TYR377     -0.2718
     72  CB        18.5870   -3.7140  -14.6170 C.3   377  TYR377      0.0548
     73  CG        17.8130   -4.9890  -14.8660 C.ar  377  TYR377     -0.0200
     74  CD1       16.4350   -5.0480  -14.6610 C.ar  377  TYR377     -0.0009
     75  CD2       18.4650   -6.1560  -15.2630 C.ar  377  TYR377     -0.0009
     76  CE1       15.7190   -6.2300  -14.8900 C.ar  377  TYR377      0.0417
     77  CE2       17.7600   -7.3320  -15.5140 C.ar  377  TYR377      0.0417
     78  CZ        16.3890   -7.3730  -15.3160 C.ar  377  TYR377      0.1957
     79  OH        15.7210   -8.5780  -15.5250 O.3   377  TYR377     -0.2866
     80  N         17.9180   -3.7870  -17.9330 N.am  378  GLN378     -0.1979
     81  CA        18.1350   -4.3580  -19.2590 C.3   378  GLN378      0.1601
     82  C         18.6260   -3.2970  -20.2560 C.2   378  GLN378      0.2287
     83  O         19.3870   -3.6320  -21.1650 O.2   378  GLN378     -0.2864
     84  CB        16.8770   -5.0880  -19.7390 C.3   378  GLN378      0.0394
     85  CG        16.3860   -6.1300  -18.7370 C.3   378  GLN378      0.0908
     86  CD        15.6990   -7.3380  -19.2830 C.2   378  GLN378      0.2608
     87  OE1       15.2530   -8.2010  -18.5280 O.2   378  GLN378     -0.2717
     88  NE2       15.6320   -7.4610  -20.6020 N.am  378  GLN378     -0.0878
     89  N         21.1020  -10.4110  -23.6080 N.3   460  TYR460     -0.1241
     90  CA        20.2150   -9.2140  -23.5890 C.3   460  TYR460      0.1605
     91  C         20.3650   -8.3020  -24.7670 C.2   460  TYR460      0.2264
     92  O         19.6020   -7.3550  -24.8780 O.2   460  TYR460     -0.2867
     93  CB        20.5820   -8.3180  -22.4090 C.3   460  TYR460      0.0534
     94  CG        20.2910   -8.9140  -21.0660 C.ar  460  TYR460     -0.0201
     95  CD1       21.2530   -9.6650  -20.3970 C.ar  460  TYR460     -0.0009
     96  CD2       19.0830   -8.6660  -20.4200 C.ar  460  TYR460     -0.0009
     97  CE1       21.0150  -10.1650  -19.1310 C.ar  460  TYR460      0.0417
     98  CE2       18.8420   -9.1430  -19.1410 C.ar  460  TYR460      0.0417
     99  CZ        19.8100   -9.9020  -18.5060 C.ar  460  TYR460      0.1957
    100  OH        19.5920  -10.4190  -17.2660 O.3   460  TYR460     -0.2866
    101  N         17.6640   -8.0020  -28.6450 N.3   463  MET463     -0.1245
    102  CA        16.2240   -7.6390  -28.6010 C.3   463  MET463      0.1570
    103  C         15.5110   -7.6030  -29.9460 C.2   463  MET463      0.2261
    104  O         14.5330   -8.3180  -30.1160 O.2   463  MET463     -0.2867
    105  CB        15.9410   -6.3650  -27.7540 C.3   463  MET463      0.0387
    106  CG        16.3130   -6.5110  -26.2790 C.3   463  MET463      0.0595
    107  SD        15.8510   -8.0800  -25.4190 S.3   463  MET463     -0.1393
    108  CE        16.4560   -7.7000  -23.8120 C.3   463  MET463      0.0692
    109  N         15.7800  -11.0750  -31.9050 N.3   466  ASN466     -0.1240
    110  CA        14.8560  -12.0290  -31.2800 C.3   466  ASN466      0.1653
    111  C         13.4220  -11.6850  -31.5960 C.2   466  ASN466      0.2266
    112  O         12.6210  -12.5900  -31.7740 O.2   466  ASN466     -0.2867
    113  CB        15.0620  -12.0710  -29.7670 C.3   466  ASN466      0.1155
    114  CG        16.3870  -12.6440  -29.3330 C.2   466  ASN466      0.2627
    115  OD1       17.1400  -13.2600  -30.1110 O.2   466  ASN466     -0.2716
    116  ND2       16.6780  -12.4960  -28.0710 N.am  466  ASN466     -0.0877
    117  N         10.6470   -8.5310  -10.6650 N.3   492  VAL492     -0.1231
    118  CA        10.8740   -8.2560  -12.0960 C.3   492  VAL492      0.1692
    119  C          9.9550   -9.1830  -12.9260 C.2   492  VAL492      0.2591
    120  O          9.1210   -8.7050  -13.6990 O.2   492  VAL492     -0.2718
    121  CB        12.3650   -8.3760  -12.5150 C.3   492  VAL492      0.0266
    122  CG1       12.5330   -8.1820  -14.0290 C.3   492  VAL492      0.0020
    123  CG2       13.2340   -7.3740  -11.7380 C.3   492  VAL492      0.0020
    124  N         10.0900  -10.5080  -12.7210 N.am  493  LEU493     -0.1980
    125  CA         9.2680  -11.5000  -13.4200 C.3   493  LEU493      0.1596
    126  C          8.0800  -11.7940  -12.5140 C.2   493  LEU493      0.2287
    127  O          7.9970  -12.8480  -11.8680 O.2   493  LEU493     -0.2864
    128  CB        10.0970  -12.7600  -13.7620 C.3   493  LEU493      0.0297
    129  CG        11.4030  -12.5130  -14.5640 C.3   493  LEU493      0.0022
    130  CD1       12.2250  -13.7580  -14.6170 C.3   493  LEU493      0.0001
    131  CD2       11.1070  -12.0360  -15.9880 C.3   493  LEU493      0.0001
    132  N         13.4200  -14.1170   -6.8620 N.3   518  HIS518     -0.1241
    133  CA        13.8840  -14.3860   -8.2150 C.3   518  HIS518      0.1621
    134  C         14.6510  -15.6910   -8.3600 C.2   518  HIS518      0.2264
    135  O         14.5060  -16.3670   -9.3610 O.2   518  HIS518     -0.2867
    136  CB        14.7630  -13.2260   -8.7530 C.3   518  HIS518      0.0745
    137  CG        15.2450  -13.5010  -10.1490 C.ar  518  HIS518      0.0817
    138  ND1       14.3610  -13.5740  -11.2090 N.ar  518  HIS518     -0.2268
    139  CD2       16.4800  -13.8440  -10.5880 C.ar  518  HIS518      0.1154
    140  CE1       15.0900  -13.9260  -12.2580 C.ar  518  HIS518      0.1986
    141  NE2       16.3740  -14.0700  -11.9360 N.ar  518  HIS518     -0.2212
@<TRIPOS>BOND
     1   109   110    1
     2   112   111    2
     3   111   110    1
     4   110   113    1
     5   104   103    2
     6   115   114    2
     7   103   102    1
     8   113   114    1
     9   114   116   am
    10   101   102    1
    11   102   105    1
    12   105   106    1
    13   106   107    1
    14   107   108    1
    15    92    91    2
    16    91    90    1
    17    37    36    2
    18    56    54    1
    19    41    40    1
    20    39    40    1
    21    39    38    1
    22    32    33   ar
    23    32    30   ar
    24    49    50    1
    25    33    31   ar
    26    89    90    1
    27    90    93    1
    28    36    35    1
    29    54    53    1
    30    53    50    1
    31    53    55    1
    32    38    35    1
    33    30    27   ar
    34    31    29   ar
    35    35    34    1
    36    50    51    1
    37    93    94    1
    38    51    52    2
    39    27    29   ar
    40    27    25   ar
    41    29    28   ar
    42    23    22    2
    43    83    82    2
    44    94    96   ar
    45    94    95   ar
    46    88    86   am
    47    28    26   ar
    48    25    24    1
    49    25    26   ar
    50    96    98   ar
    51    95    97   ar
    52    82    81    1
    53    22    21    1
    54    24    21    1
    55    84    81    1
    56    84    85    1
    57    21    20    1
    58    86    85    1
    59    86    87    2
    60    81    80    1
    61    48    46    1
    62    98    99   ar
    63    97    99   ar
    64    99   100    1
    65    15    14    2
    66    64    66   ar
    67    64    62   ar
    68    60    59    2
    69    20    14   am
    70    45    44    2
    71    66    67   ar
    72    61    62    1
    73    61    58    1
    74    46    47    1
    75    46    43    1
    76    80    70   am
    77    62    63   ar
    78    44    43    1
    79    14    13    1
    80    71    70    2
    81     8    10   ar
    82     8     6   ar
    83    67    65   ar
    84    10    11   ar
    85    59    58    1
    86    70    69    1
    87    43    42    1
    88    63    65   ar
    89     5     6    1
    90     5     2    1
    91    58    57    1
    92     6     7   ar
    93    19    17   ar
    94    11     9   ar
    95    13    12    1
    96    13    16    1
    97     1     2    1
    98   131   129    1
    99     2     3    1
   100    68    69    1
   101    69    72    1
   102     7     9   ar
   103    17    16    1
   104    17    18   ar
   105    79    78    1
   106    77    78   ar
   107    77    75   ar
   108    78    76   ar
   109    75    73   ar
   110    76    74   ar
   111    73    74   ar
   112    73    72    1
   113   130   129    1
   114   129   128    1
   115     3     4    2
   116   122   121    1
   117   128   125    1
   118   120   119    2
   119   125   124    1
   120   125   126    1
   121   119   124   am
   122   119   118    1
   123   121   118    1
   124   121   123    1
   125   126   127    2
   126   140   141   ar
   127   140   138   ar
   128   118   117    1
   129   141   139   ar
   130   138   137   ar
   131   139   137   ar
   132   137   136    1
   133   135   134    2
   134   136   133    1
   135   134   133    1
   136   133   132    1
