@<TRIPOS>MOLECULE
tmp/5akbE00.pdb
 136 133 0 0 0
SMALL
GASTEIGER

@<TRIPOS>ATOM
      1  N        205.3480  -55.5130  292.2910 N.3   386  VAL386     -0.1245
      2  CA       204.7170  -54.4900  293.1270 C.3   386  VAL386      0.1561
      3  C        203.1940  -54.6800  293.2000 C.2   386  VAL386      0.2260
      4  O        202.5950  -54.4680  294.2570 O.2   386  VAL386     -0.2867
      5  CB       205.0340  -53.0450  292.6620 C.3   386  VAL386      0.0252
      6  CG1      204.5850  -52.0440  293.7040 C.3   386  VAL386      0.0019
      7  CG2      206.5090  -52.8360  292.3520 C.3   386  VAL386      0.0019
      8  N        201.8570  -54.6580  297.0970 N.3   390  LEU390     -0.1245
      9  CA       201.3130  -53.3540  297.5000 C.3   390  LEU390      0.1561
     10  C        199.8520  -53.4520  297.9390 C.2   390  LEU390      0.2260
     11  O        199.1080  -54.2650  297.4150 O.2   390  LEU390     -0.2867
     12  CB       201.4400  -52.3290  296.3700 C.3   390  LEU390      0.0270
     13  CG       201.6660  -50.8960  296.8480 C.3   390  LEU390      0.0019
     14  CD1      203.1260  -50.7230  297.1710 C.3   390  LEU390      0.0001
     15  CD2      201.2220  -49.8820  295.8240 C.3   390  LEU390      0.0001
     16  N        198.8530  -51.8180  291.1970 N.3   394  PHE394     -0.1227
     17  CA       199.8430  -50.8090  290.8770 C.3   394  PHE394      0.1736
     18  C        199.1360  -49.6200  290.1960 C.2   394  PHE394      0.2595
     19  O        198.2520  -49.8300  289.3580 O.2   394  PHE394     -0.2718
     20  CB       200.9250  -51.4200  290.0030 C.3   394  PHE394      0.0547
     21  CG       202.1810  -50.6210  289.9370 C.ar  394  PHE394     -0.0202
     22  CD1      203.1900  -50.7930  290.8670 C.ar  394  PHE394     -0.0042
     23  CD2      202.3690  -49.7020  288.9140 C.ar  394  PHE394     -0.0042
     24  CE1      204.3610  -50.0610  290.7930 C.ar  394  PHE394     -0.0003
     25  CE2      203.5340  -48.9680  288.8380 C.ar  394  PHE394     -0.0003
     26  CZ       204.5320  -49.1580  289.7830 C.ar  394  PHE394     -0.0000
     27  N        199.4870  -48.3900  290.5840 N.am  395  ILE395     -0.1980
     28  CA       198.9380  -47.1970  289.9250 C.3   395  ILE395      0.1595
     29  C        199.5490  -47.0570  288.5320 C.2   395  ILE395      0.2287
     30  O        200.6660  -46.5460  288.3680 O.2   395  ILE395     -0.2864
     31  CB       199.1390  -45.9070  290.7580 C.3   395  ILE395      0.0276
     32  CG1      198.5650  -46.0830  292.1550 C.3   395  ILE395      0.0022
     33  CG2      198.4670  -44.7040  290.0990 C.3   395  ILE395      0.0022
     34  CD1      197.1940  -46.7130  292.1470 C.3   395  ILE395      0.0001
     35  N        200.0720  -45.9370  284.5690 N.3   397  ASN397     -0.1240
     36  CA       200.1330  -44.6640  283.8530 C.3   397  ASN397      0.1653
     37  C        200.7270  -44.8790  282.4400 C.2   397  ASN397      0.2266
     38  O        201.5830  -45.7600  282.2630 O.2   397  ASN397     -0.2867
     39  CB       200.9810  -43.6550  284.6420 C.3   397  ASN397      0.1155
     40  CG       200.4160  -43.3400  286.0210 C.2   397  ASN397      0.2627
     41  OD1      199.4310  -42.6130  286.1400 O.2   397  ASN397     -0.2716
     42  ND2      201.0610  -43.8620  287.0710 N.am  397  ASN397     -0.0877
     43  N        209.0240  -36.9540  295.0230 N.3   413  PRO413     -0.2102
     44  CA       209.2950  -37.1230  296.4560 C.3   413  PRO413      0.1504
     45  C        210.2330  -38.2510  296.8950 C.2   413  PRO413      0.2576
     46  O        210.4220  -39.2240  296.1750 O.2   413  PRO413     -0.2718
     47  CB       207.9070  -37.3510  297.0670 C.3   413  PRO413      0.0282
     48  CG       206.9130  -37.2230  295.9590 C.3   413  PRO413      0.0208
     49  CD       207.6450  -37.3370  294.6690 C.3   413  PRO413      0.0893
     50  N        210.7980  -38.0870  298.0890 N.am  414  ASN414     -0.1961
     51  CA       211.4090  -39.1700  298.8510 C.3   414  ASN414      0.1819
     52  C        210.3430  -40.1270  299.3950 C.2   414  ASN414      0.2621
     53  O        209.4220  -39.7000  300.0840 O.2   414  ASN414     -0.2715
     54  CB       212.2710  -38.6140  299.9760 C.3   414  ASN414      0.1195
     55  CG       213.6180  -38.1430  299.4980 C.2   414  ASN414      0.2630
     56  OD1      213.8300  -36.9680  299.2630 O.2   414  ASN414     -0.2716
     57  ND2      214.5300  -39.0670  299.3420 N.am  414  ASN414     -0.0877
     58  N        210.4990  -41.4130  299.0830 N.am  415  MET415     -0.1963
     59  CA       209.4140  -42.4090  299.1280 C.3   415  MET415      0.1736
     60  C        208.2390  -42.0430  298.2010 C.2   415  MET415      0.2617
     61  O        207.0770  -42.3280  298.5480 O.2   415  MET415     -0.2715
     62  CB       208.9240  -42.6410  300.5580 C.3   415  MET415      0.0427
     63  CG       209.9340  -43.3500  301.4410 C.3   415  MET415      0.0599
     64  SD       210.0750  -45.1280  301.0590 S.3   415  MET415     -0.1393
     65  CE       211.5300  -45.0830  300.0540 C.3   415  MET415      0.0692
     66  N        208.5460  -41.4760  297.0180 N.am  416  GLY416     -0.1940
     67  CA       207.5580  -40.8180  296.1300 C.3   416  GLY416      0.2014
     68  C        207.2120  -41.3880  294.7570 C.2   416  GLY416      0.2639
     69  O        206.2280  -40.9620  294.1370 O.2   416  GLY416     -0.2714
     70  N        208.0060  -42.3330  294.2650 N.am  417  GLY417     -0.1939
     71  CA       207.7190  -42.9820  292.9720 C.3   417  GLY417      0.2014
     72  C        208.5880  -42.5810  291.7830 C.2   417  GLY417      0.2639
     73  O        208.3560  -43.0370  290.6490 O.2   417  GLY417     -0.2714
     74  N        209.5970  -41.7400  292.0300 N.am  418  LYS418     -0.1963
     75  CA       210.5220  -41.2910  290.9870 C.3   418  LYS418      0.1728
     76  C        211.1410  -42.4660  290.2700 C.2   418  LYS418      0.2617
     77  O        211.0240  -42.5960  289.0560 O.2   418  LYS418     -0.2715
     78  CB       211.6640  -40.4660  291.5710 C.3   418  LYS418      0.0311
     79  CG       211.2870  -39.0830  292.0500 C.3   418  LYS418      0.0038
     80  CD       212.5070  -38.2830  292.4890 C.3   418  LYS418      0.0206
     81  CE       213.0180  -38.6880  293.8650 C.3   418  LYS418      0.1093
     82  NZ       213.9170  -37.6250  294.4180 N.3   418  LYS418     -0.1314
     83  N        211.7990  -43.3240  291.0360 N.am  419  SER419     -0.1936
     84  CA       212.5220  -44.4560  290.4840 C.3   419  SER419      0.2055
     85  C        211.5700  -45.4710  289.8670 C.2   419  SER419      0.2644
     86  O        211.9200  -46.1490  288.9090 O.2   419  SER419     -0.2714
     87  CB       213.3710  -45.1120  291.5750 C.3   419  SER419      0.2130
     88  OG       214.0570  -44.1410  292.3430 O.3   419  SER419     -0.2179
     89  N        210.3550  -45.5490  290.4080 N.am  420  THR420     -0.1936
     90  CA       209.4070  -46.6060  290.0570 C.3   420  THR420      0.2028
     91  C        208.8840  -46.4950  288.6270 C.2   420  THR420      0.2642
     92  O        208.8970  -47.4890  287.9140 O.2   420  THR420     -0.2714
     93  CB       208.2530  -46.7250  291.0720 C.3   420  THR420      0.1808
     94  OG1      208.7770  -46.7480  292.4050 O.3   420  THR420     -0.2208
     95  CG2      207.4840  -48.0190  290.8660 C.3   420  THR420      0.0379
     96  N        208.4480  -45.3110  288.2030 N.am  421  TYR421     -0.1973
     97  CA       208.0340  -45.1020  286.7890 C.3   421  TYR421      0.1639
     98  C        209.0930  -45.5480  285.8040 C.2   421  TYR421      0.2290
     99  O        208.7960  -46.0830  284.7320 O.2   421  TYR421     -0.2864
    100  CB       207.7530  -43.6240  286.5240 C.3   421  TYR421      0.0560
    101  CG       207.0350  -43.2640  285.2190 C.ar  421  TYR421     -0.0198
    102  CD1      206.1180  -44.1360  284.6090 C.ar  421  TYR421     -0.0009
    103  CD2      207.2230  -42.0040  284.6460 C.ar  421  TYR421     -0.0009
    104  CE1      205.4480  -43.7780  283.4530 C.ar  421  TYR421      0.0417
    105  CE2      206.5540  -41.6320  283.4940 C.ar  421  TYR421      0.0417
    106  CZ       205.6660  -42.5160  282.8980 C.ar  421  TYR421      0.1957
    107  OH       205.0020  -42.1480  281.7500 O.3   421  TYR421     -0.2866
    108  N        206.0340  -37.6970  289.1170 N.3   535  LEU535     -0.1245
    109  CA       205.2310  -38.5210  290.0310 C.3   535  LEU535      0.1561
    110  C        204.7430  -37.6140  291.1310 C.2   535  LEU535      0.2260
    111  O        205.3490  -37.5250  292.2070 O.2   535  LEU535     -0.2867
    112  CB       206.0380  -39.6870  290.6180 C.3   535  LEU535      0.0270
    113  CG       206.2360  -40.9710  289.8130 C.3   535  LEU535      0.0019
    114  CD1      205.0360  -41.9030  289.8290 C.3   535  LEU535      0.0001
    115  CD2      206.6490  -40.6480  288.3950 C.3   535  LEU535      0.0001
    116  N        201.0450  -39.6510  298.0110 N.3   546  PHE546     -0.1241
    117  CA       201.7770  -40.0190  296.8090 C.3   546  PHE546      0.1605
    118  C        200.7660  -40.5510  295.8030 C.2   546  PHE546      0.2264
    119  O        200.2250  -41.6460  295.9840 O.2   546  PHE546     -0.2867
    120  CB       202.8040  -41.1000  297.1190 C.3   546  PHE546      0.0534
    121  CG       203.8370  -40.6930  298.1150 C.ar  546  PHE546     -0.0203
    122  CD1      204.4630  -39.4460  298.0430 C.ar  546  PHE546     -0.0042
    123  CD2      204.2100  -41.5670  299.1080 C.ar  546  PHE546     -0.0042
    124  CE1      205.4270  -39.0800  298.9500 C.ar  546  PHE546     -0.0003
    125  CE2      205.1770  -41.2060  300.0230 C.ar  546  PHE546     -0.0003
    126  CZ       205.7920  -39.9590  299.9430 C.ar  546  PHE546     -0.0000
    127  N        201.3020  -41.7360  293.0760 N.3   548  HIS548     -0.1241
    128  CA       201.8900  -42.8750  292.4020 C.3   548  HIS548      0.1621
    129  C        201.5320  -42.7990  290.9050 C.2   548  HIS548      0.2264
    130  O        201.5240  -43.8030  290.1890 O.2   548  HIS548     -0.2867
    131  CB       201.4280  -44.1640  293.0810 C.3   548  HIS548      0.0745
    132  CG       201.7860  -44.2400  294.5340 C.ar  548  HIS548      0.0817
    133  ND1      200.8420  -44.3900  295.5210 N.ar  548  HIS548     -0.2268
    134  CD2      202.9850  -44.1780  295.1670 C.ar  548  HIS548      0.1154
    135  CE1      201.4460  -44.4260  296.6960 C.ar  548  HIS548      0.1986
    136  NE2      202.7460  -44.3010  296.5080 N.ar  548  HIS548     -0.2212
@<TRIPOS>BOND
     1   107   106    1
     2    38    37    2
     3    37    36    1
     4   106   104   ar
     5   106   105   ar
     6   104   102   ar
     7   105   103   ar
     8    36    35    1
     9    36    39    1
    10   102   101   ar
    11    39    40    1
    12   103   101   ar
    13    99    98    2
    14   101   100    1
    15    98    97    1
    16    40    41    2
    17    40    42   am
    18   100    97    1
    19    97    96    1
    20    92    91    2
    21    96    91   am
    22    30    29    2
    23   115   113    1
    24    29    28    1
    25    91    90    1
    26    25    23   ar
    27    25    26   ar
    28    86    85    2
    29    23    21   ar
    30    77    76    2
    31   108   109    1
    32    19    18    2
    33    26    24   ar
    34   113   114    1
    35   113   112    1
    36    85    89   am
    37    85    84    1
    38    28    27    1
    39    28    31    1
    40    21    20    1
    41    21    22   ar
    42    20    17    1
    43   109   112    1
    44   109   110    1
    45    90    89    1
    46    90    93    1
    47    33    31    1
    48   130   129    2
    49    18    27   am
    50    18    17    1
    51    76    75    1
    52    76    83   am
    53    84    83    1
    54    84    87    1
    55    73    72    2
    56    31    32    1
    57    24    22   ar
    58    95    93    1
    59    17    16    1
    60   129   128    1
    61    75    78    1
    62    75    74    1
    63    93    94    1
    64   110   111    2
    65    78    79    1
    66    87    88    1
    67    72    74   am
    68    72    71    1
    69    79    80    1
    70    34    32    1
    71     1     2    1
    72     7     5    1
    73   128   127    1
    74   128   131    1
    75    80    81    1
    76     5     2    1
    77     5     6    1
    78    71    70    1
    79   131   132    1
    80     2     3    1
    81     3     4    2
    82    81    82    1
    83    69    68    2
    84    70    68   am
    85   132   134   ar
    86   132   133   ar
    87    49    43    1
    88    49    48    1
    89    68    67    1
    90    43    44    1
    91   134   136   ar
    92   133   135   ar
    93   118   119    2
    94   118   117    1
    95    15    13    1
    96    48    47    1
    97    67    66    1
    98    46    45    2
    99    12    13    1
   100    12     9    1
   101    44    45    1
   102    44    47    1
   103   136   135   ar
   104   117   120    1
   105   117   116    1
   106    13    14    1
   107    45    50   am
   108    66    60   am
   109     8     9    1
   110   120   121    1
   111    11    10    2
   112     9    10    1
   113   122   121   ar
   114   122   124   ar
   115    50    51    1
   116   121   123   ar
   117    60    61    2
   118    60    59    1
   119    51    52    1
   120    51    54    1
   121   124   126   ar
   122    58    59    1
   123    58    52   am
   124   123   125   ar
   125    59    62    1
   126    56    55    2
   127    57    55   am
   128    52    53    2
   129    55    54    1
   130   126   125   ar
   131    65    64    1
   132    62    63    1
   133    64    63    1
