@<TRIPOS>MOLECULE
tmp/5akcB00.pdb
 156 152 0 0 0
SMALL
GASTEIGER

@<TRIPOS>ATOM
      1  N        449.9970   35.3020  325.8210 N.3   461  VAL461     -0.1245
      2  CA       450.8320   34.3660  326.6040 C.3   461  VAL461      0.1561
      3  C        450.9340   34.7110  328.0820 C.2   461  VAL461      0.2260
      4  O        450.8410   33.8360  328.9290 O.2   461  VAL461     -0.2867
      5  CB       452.2540   34.2210  325.9980 C.3   461  VAL461      0.0252
      6  CG1      453.1750   33.4280  326.9330 C.3   461  VAL461      0.0019
      7  CG2      452.1810   33.5410  324.6320 C.3   461  VAL461      0.0019
      8  N        447.6920   33.2490  330.2250 N.3   464  VAL464     -0.1231
      9  CA       447.6780   31.7730  330.4120 C.3   464  VAL464      0.1692
     10  C        448.7620   31.3210  331.3720 C.2   464  VAL464      0.2591
     11  O        448.6080   30.3270  332.0770 O.2   464  VAL464     -0.2718
     12  CB       447.9540   30.9200  329.1170 C.3   464  VAL464      0.0266
     13  CG1      446.7040   30.6760  328.2520 C.3   464  VAL464      0.0020
     14  CG2      449.1510   31.4340  328.2990 C.3   464  VAL464      0.0020
     15  N        449.8980   31.9960  331.3040 N.am  465  LEU465     -0.1980
     16  CA       451.0300   31.6710  332.1610 C.3   465  LEU465      0.1596
     17  C        450.7300   32.1830  333.5820 C.2   465  LEU465      0.2287
     18  O        450.6980   33.3820  333.7830 O.2   465  LEU465     -0.2864
     19  CB       452.3140   32.3020  331.6010 C.3   465  LEU465      0.0297
     20  CG       453.5320   31.3940  331.4980 C.3   465  LEU465      0.0022
     21  CD1      453.3750   30.4330  330.3500 C.3   465  LEU465      0.0001
     22  CD2      454.7960   32.1800  331.3630 C.3   465  LEU465      0.0001
     23  N        455.7990   34.1540  336.2220 N.3   468  PRO468     -0.2102
     24  CA       456.2640   35.3820  335.5550 C.3   468  PRO468      0.1504
     25  C        456.5630   35.2210  334.0440 C.2   468  PRO468      0.2576
     26  O        457.2650   34.2790  333.6370 O.2   468  PRO468     -0.2718
     27  CB       457.5480   35.7390  336.3100 C.3   468  PRO468      0.0282
     28  CG       457.5390   34.8940  337.5380 C.3   468  PRO468      0.0208
     29  CD       456.8060   33.6420  337.1640 C.3   468  PRO468      0.0893
     30  N        456.0070   36.1250  333.2280 N.am  469  PHE469     -0.1963
     31  CA       456.4510   36.3100  331.8380 C.3   469  PHE469      0.1771
     32  C        457.6000   37.3150  331.8670 C.2   469  PHE469      0.2619
     33  O        457.4670   38.4120  332.4540 O.2   469  PHE469     -0.2715
     34  CB       455.3260   36.8550  330.9450 C.3   469  PHE469      0.0574
     35  CG       455.7320   37.0260  329.5100 C.ar  469  PHE469     -0.0200
     36  CD1      456.4040   38.1820  329.0850 C.ar  469  PHE469     -0.0042
     37  CD2      455.4490   36.0370  328.5840 C.ar  469  PHE469     -0.0042
     38  CE1      456.7860   38.3310  327.7770 C.ar  469  PHE469     -0.0003
     39  CE2      455.8320   36.1950  327.2600 C.ar  469  PHE469     -0.0003
     40  CZ       456.5030   37.3450  326.8600 C.ar  469  PHE469     -0.0000
     41  N        458.7130   36.9510  331.2350 N.am  470  ILE470     -0.1977
     42  CA       459.8690   37.8330  331.1850 C.3   470  ILE470      0.1596
     43  C        459.6920   38.8230  330.0510 C.2   470  ILE470      0.2287
     44  O        459.8150   38.4780  328.8850 O.2   470  ILE470     -0.2864
     45  CB       461.1970   37.0590  331.0470 C.3   470  ILE470      0.0276
     46  CG1      461.3510   36.0400  332.1830 C.3   470  ILE470      0.0022
     47  CG2      462.3970   37.9910  331.0620 C.3   470  ILE470      0.0022
     48  CD1      461.2990   36.6160  333.6010 C.3   470  ILE470      0.0001
     49  N        460.6190   41.9470  327.6340 N.3   472  ASN472     -0.1240
     50  CA       461.8540   42.2820  326.9320 C.3   472  ASN472      0.1653
     51  C        461.7190   43.5340  326.0600 C.2   472  ASN472      0.2266
     52  O        460.6760   43.7290  325.4400 O.2   472  ASN472     -0.2867
     53  CB       462.3100   41.0950  326.0980 C.3   472  ASN472      0.1155
     54  CG       462.7040   39.8950  326.9250 C.2   472  ASN472      0.2627
     55  OD1      463.6180   39.9870  327.7480 O.2   472  ASN472     -0.2716
     56  ND2      462.0220   38.7620  326.7070 N.am  472  ASN472     -0.0877
     57  N        467.9760   28.3580  322.0990 N.3   488  PRO488     -0.2102
     58  CA       467.2340   27.1420  322.3490 C.3   488  PRO488      0.1504
     59  C        465.8150   27.1800  321.8610 C.2   488  PRO488      0.2576
     60  O        465.2480   28.2640  321.7020 O.2   488  PRO488     -0.2718
     61  CB       467.2670   27.0280  323.8590 C.3   488  PRO488      0.0282
     62  CG       467.2690   28.4160  324.3140 C.3   488  PRO488      0.0208
     63  CD       467.9790   29.2160  323.2820 C.3   488  PRO488      0.0893
     64  N        465.2320   26.0060  321.6300 N.am  489  ASN489     -0.1961
     65  CA       463.8120   25.9080  321.3040 C.3   489  ASN489      0.1819
     66  C        463.0160   26.0730  322.5810 C.2   489  ASN489      0.2621
     67  O        463.4970   25.7350  323.6600 O.2   489  ASN489     -0.2715
     68  CB       463.4680   24.6010  320.5910 C.3   489  ASN489      0.1195
     69  CG       463.6640   24.6820  319.0960 C.2   489  ASN489      0.2630
     70  OD1      462.9910   25.4350  318.3920 O.2   489  ASN489     -0.2716
     71  ND2      464.5820   23.8850  318.5960 N.am  489  ASN489     -0.0877
     72  N        461.8080   26.6120  322.4480 N.am  490  MET490     -0.1963
     73  CA       461.0490   27.1310  323.5910 C.3   490  MET490      0.1736
     74  C        461.8870   28.1660  324.3390 C.2   490  MET490      0.2617
     75  O        461.6420   28.4400  325.5020 O.2   490  MET490     -0.2715
     76  CB       460.5730   25.9870  324.5190 C.3   490  MET490      0.0427
     77  CG       459.6550   24.9730  323.8650 C.3   490  MET490      0.0599
     78  SD       460.4490   23.5540  323.0980 S.3   490  MET490     -0.1393
     79  CE       460.2410   22.3650  324.4030 C.3   490  MET490      0.0692
     80  N        462.8780   28.7400  323.6480 N.am  491  GLY491     -0.1940
     81  CA       463.7890   29.7200  324.2320 C.3   491  GLY491      0.2014
     82  C        463.1140   31.0420  324.3730 C.2   491  GLY491      0.2639
     83  O        463.4910   31.8580  325.2050 O.2   491  GLY491     -0.2714
     84  N        462.0990   31.2490  323.5430 N.am  492  GLY492     -0.1939
     85  CA       461.3670   32.5050  323.4810 C.3   492  GLY492      0.2014
     86  C        461.6430   33.2500  322.1900 C.2   492  GLY492      0.2639
     87  O        461.3520   34.4470  322.1200 O.2   492  GLY492     -0.2714
     88  N        462.1830   32.5670  321.1750 N.am  493  LYS493     -0.1963
     89  CA       462.5130   33.2100  319.8970 C.3   493  LYS493      0.1728
     90  C        461.2740   33.7300  319.1970 C.2   493  LYS493      0.2617
     91  O        461.0400   34.9450  319.1590 O.2   493  LYS493     -0.2715
     92  CB       463.2560   32.2630  318.9700 C.3   493  LYS493      0.0311
     93  CG       464.6240   31.8430  319.4520 C.3   493  LYS493      0.0038
     94  CD       465.3470   31.0650  318.3710 C.3   493  LYS493      0.0206
     95  CE       464.6890   29.7400  318.0770 C.3   493  LYS493      0.1093
     96  NZ       464.6970   28.8090  319.2430 N.3   493  LYS493     -0.1314
     97  N        460.4510   32.8060  318.6930 N.am  494  SER494     -0.1936
     98  CA       459.2250   33.1670  317.9910 C.3   494  SER494      0.2055
     99  C        458.3330   34.0740  318.8720 C.2   494  SER494      0.2643
    100  O        457.6270   34.9460  318.3520 O.2   494  SER494     -0.2714
    101  CB       458.4630   31.9160  317.5660 C.3   494  SER494      0.2130
    102  OG       459.3100   31.0410  316.8380 O.3   494  SER494     -0.2179
    103  N        458.3670   33.8580  320.1880 N.am  495  THR495     -0.1950
    104  CA       457.6250   34.6800  321.1470 C.3   495  THR495      0.1897
    105  C        458.0540   36.1360  321.1250 C.2   495  THR495      0.2313
    106  O        457.2270   37.0240  320.9930 O.2   495  THR495     -0.2863
    107  CB       457.8000   34.1480  322.5770 C.3   495  THR495      0.1794
    108  OG1      457.3350   32.7950  322.6320 O.3   495  THR495     -0.2208
    109  CG2      457.0170   34.9740  323.5590 C.3   495  THR495      0.0378
    110  N        456.8100   37.4730  317.7650 N.3   498  ARG498     -0.1231
    111  CA       455.3550   37.5720  317.6510 C.3   498  ARG498      0.1694
    112  C        454.7410   38.6400  318.5650 C.2   498  ARG498      0.2591
    113  O        453.7500   39.2500  318.2040 O.2   498  ARG498     -0.2718
    114  CB       454.6910   36.2030  317.8310 C.3   498  ARG498      0.0321
    115  CG       454.9220   35.2920  316.6120 C.3   498  ARG498      0.0489
    116  CD       454.0080   34.0930  316.4990 C.3   498  ARG498      0.2205
    117  NE       454.3780   33.0020  317.4100 N.pl3 498  ARG498     -0.0865
    118  CZ       453.8970   31.7550  317.3490 C.cat 498  ARG498      0.5346
    119  NH1      453.0190   31.4220  316.4010 N.pl3 498  ARG498      0.1354
    120  NH2      454.2930   30.8310  318.2370 N.pl3 498  ARG498      0.1354
    121  N        455.3340   38.8750  319.7350 N.am  499  GLN499     -0.1979
    122  CA       454.8600   39.9240  320.6570 C.3   499  GLN499      0.1601
    123  C        454.9440   41.3150  320.0390 C.2   499  GLN499      0.2287
    124  O        454.0700   42.1580  320.2600 O.2   499  GLN499     -0.2864
    125  CB       455.5920   39.8680  321.9950 C.3   499  GLN499      0.0394
    126  CG       456.9930   40.4350  322.0240 C.3   499  GLN499      0.0908
    127  CD       457.6320   40.4090  323.3770 C.2   499  GLN499      0.2608
    128  OE1      457.5820   39.4010  324.0900 O.2   499  GLN499     -0.2717
    129  NE2      458.2630   41.5150  323.7290 N.am  499  GLN499     -0.0878
    130  N        460.4280   32.8270  310.4050 N.3   556  ASP556     -0.1225
    131  CA       460.5630   31.8000  311.4190 C.3   556  ASP556      0.1805
    132  C        461.2640   30.5710  310.8780 C.2   556  ASP556      0.2597
    133  O        460.6890   29.8380  310.0930 O.2   556  ASP556     -0.2718
    134  CB       459.2040   31.4750  312.0580 C.3   556  ASP556      0.1424
    135  CG       459.2930   31.4260  313.6050 C.2   556  ASP556      0.3668
    136  OD1      460.2740   30.9050  314.1260 O.co2 556  ASP556     -0.2456
    137  OD2      458.4240   31.9720  314.2960 O.co2 556  ASP556     -0.2456
    138  N        462.5300   30.4040  311.2660 N.am  557  GLU557     -0.1979
    139  CA       463.2880   29.1520  311.1380 C.3   557  GLU557      0.1602
    140  C        463.2440   28.5170  309.7440 C.2   557  GLU557      0.2287
    141  O        462.8630   27.3600  309.5800 O.2   557  GLU557     -0.2864
    142  CB       462.8570   28.1820  312.2450 C.3   557  GLU557      0.0415
    143  CG       463.0600   28.6920  313.6910 C.3   557  GLU557      0.1163
    144  CD       462.5280   27.7290  314.7820 C.2   557  GLU557      0.3649
    145  OE1      462.2720   26.5440  314.4900 O.co2 557  GLU557     -0.2457
    146  OE2      462.3560   28.1320  315.9410 O.co2 557  GLU557     -0.2457
    147  N        464.2910   33.3050  329.0340 N.3   623  HIS623     -0.1241
    148  CA       463.4350   34.0900  328.1310 C.3   623  HIS623      0.1621
    149  C        463.8700   35.5600  328.0840 C.2   623  HIS623      0.2264
    150  O        463.0490   36.4300  327.8680 O.2   623  HIS623     -0.2867
    151  CB       461.9540   34.0040  328.5460 C.3   623  HIS623      0.0745
    152  CG       461.4110   32.6120  328.6260 C.ar  623  HIS623      0.0817
    153  ND1      461.1450   31.8480  327.5120 N.ar  623  HIS623     -0.2268
    154  CD2      461.0440   31.8680  329.6930 C.ar  623  HIS623      0.1154
    155  CE1      460.6630   30.6780  327.8920 C.ar  623  HIS623      0.1986
    156  NE2      460.5930   30.6650  329.2120 N.ar  623  HIS623     -0.2212
@<TRIPOS>BOND
     1   141   140    2
     2   140   139    1
     3   133   132    2
     4   130   131    1
     5   132   138   am
     6   132   131    1
     7   139   138    1
     8   139   142    1
     9   131   134    1
    10   134   135    1
    11   142   143    1
    12   135   136   ar
    13   135   137   ar
    14   143   144    1
    15   145   144   ar
    16   144   146   ar
    17   119   118    1
    18   116   115    1
    19   116   117    1
    20   115   114    1
    21   102   101    1
    22   118   117    2
    23   118   120    1
    24   101    98    1
    25   111   110    1
    26   111   114    1
    27   111   112    1
    28    98    97    1
    29    98    99    1
    30    95    94    1
    31    95    96    1
    32   113   112    2
    33   100    99    2
    34    94    93    1
    35    70    69    2
    36   112   121   am
    37    71    69   am
    38    97    90   am
    39    99   103   am
    40    92    93    1
    41    92    89    1
    42    69    68    1
    43    91    90    2
    44    90    89    1
    45   121   122    1
    46    89    88    1
    47   123   124    2
    48   123   122    1
    49   103   104    1
    50    68    65    1
    51   122   125    1
    52   106   105    2
    53   105   104    1
    54   104   107    1
    55    88    86   am
    56    65    64    1
    57    65    66    1
    58    64    59   am
    59    60    59    2
    60    59    58    1
    61   125   126    1
    62   126   127    1
    63    57    58    1
    64    57    63    1
    65    87    86    2
    66    86    85    1
    67    58    61    1
    68    72    66   am
    69    72    73    1
    70   107   108    1
    71   107   109    1
    72    66    67    2
    73    78    77    1
    74    78    79    1
    75    63    62    1
    76   127   129   am
    77   127   128    2
    78    85    84    1
    79    84    82   am
    80    73    74    1
    81    73    76    1
    82    80    81    1
    83    80    74   am
    84    61    62    1
    85    77    76    1
    86    81    82    1
    87    74    75    2
    88    82    83    2
    89     7     5    1
    90    52    51    2
    91     1     2    1
    92     5     2    1
    93     5     6    1
    94    51    50    1
    95    53    54    1
    96    53    50    1
    97     2     3    1
    98    56    54   am
    99    40    39   ar
   100    40    38   ar
   101    54    55    2
   102    50    49    1
   103    39    37   ar
   104   153   155   ar
   105   153   152   ar
   106    38    36   ar
   107   150   149    2
   108   155   156   ar
   109     3     4    2
   110   149   148    1
   111   148   151    1
   112   148   147    1
   113    13    12    1
   114    14    12    1
   115   151   152    1
   116    37    35   ar
   117   152   154   ar
   118    44    43    2
   119    36    35   ar
   120    12     9    1
   121   156   154   ar
   122    35    34    1
   123    43    42    1
   124     8     9    1
   125    21    20    1
   126     9    10    1
   127    34    31    1
   128    45    47    1
   129    45    42    1
   130    45    46    1
   131    42    41    1
   132    41    32   am
   133    15    10   am
   134    15    16    1
   135    22    20    1
   136    10    11    2
   137    20    19    1
   138    19    16    1
   139    31    32    1
   140    31    30    1
   141    32    33    2
   142    16    17    1
   143    46    48    1
   144    30    25   am
   145    17    18    2
   146    26    25    2
   147    25    24    1
   148    24    23    1
   149    24    27    1
   150    23    29    1
   151    27    28    1
   152    29    28    1
