@<TRIPOS>MOLECULE
tmp/5akeA00.pdb
 203 199 0 0 0
SMALL
GASTEIGER

@<TRIPOS>ATOM
      1  N        -20.2230  -15.6760   16.0680 N.3   266  PHE266     -0.1241
      2  CA       -21.3210  -14.7250   15.9550 C.3   266  PHE266      0.1605
      3  C        -21.5030  -14.2170   14.5330 C.2   266  PHE266      0.2264
      4  O        -20.5130  -13.8260   13.9260 O.2   266  PHE266     -0.2867
      5  CB       -21.0740  -13.5230   16.9050 C.3   266  PHE266      0.0534
      6  CG       -22.0660  -12.3870   16.7680 C.ar  266  PHE266     -0.0203
      7  CD1      -21.8510  -11.3560   15.8540 C.ar  266  PHE266     -0.0042
      8  CD2      -23.2180  -12.3480   17.5470 C.ar  266  PHE266     -0.0042
      9  CE1      -22.7750  -10.3120   15.7180 C.ar  266  PHE266     -0.0003
     10  CE2      -24.1370  -11.3010   17.4180 C.ar  266  PHE266     -0.0003
     11  CZ       -23.9120  -10.2920   16.5000 C.ar  266  PHE266     -0.0000
     12  N        -14.3890  -17.9820   15.8120 N.3   334  ASP334     -0.1225
     13  CA       -14.8280  -16.6620   16.2710 C.3   334  ASP334      0.1805
     14  C        -15.0950  -16.6680   17.7960 C.2   334  ASP334      0.2597
     15  O        -14.1760  -16.9990   18.5410 O.2   334  ASP334     -0.2718
     16  CB       -16.0230  -16.1700   15.4000 C.3   334  ASP334      0.1424
     17  CG       -16.4780  -14.7670   15.7060 C.2   334  ASP334      0.3668
     18  OD1      -15.7670  -13.8320   15.3300 O.co2 334  ASP334     -0.2456
     19  OD2      -17.5180  -14.6140   16.3890 O.co2 334  ASP334     -0.2456
     20  N        -16.3250  -16.3370   18.2690 N.am  335  TRP335     -0.1976
     21  CA       -16.6530  -16.3690   19.7010 C.3   335  TRP335      0.1640
     22  C        -16.5480  -17.7860   20.2720 C.2   335  TRP335      0.2290
     23  O        -16.2210  -17.9460   21.4470 O.2   335  TRP335     -0.2864
     24  CB       -18.0280  -15.7530   19.9880 C.3   335  TRP335      0.0576
     25  CG       -17.9700  -14.3000   20.3430 C.ar  335  TRP335      0.0006
     26  CD1      -18.4250  -13.2560   19.5930 C.ar  335  TRP335      0.0946
     27  CD2      -17.4140  -13.7240   21.5420 C.ar  335  TRP335      0.0152
     28  NE1      -18.2080  -12.0680   20.2550 N.ar  335  TRP335     -0.2442
     29  CE2      -17.6050  -12.3270   21.4610 C.ar  335  TRP335      0.0810
     30  CE3      -16.8050  -14.2600   22.6950 C.ar  335  TRP335      0.0012
     31  CZ2      -17.1860  -11.4510   22.4760 C.ar  335  TRP335      0.0191
     32  CZ3      -16.4110  -13.3960   23.7080 C.ar  335  TRP335      0.0001
     33  CH2      -16.5940  -12.0090   23.5900 C.ar  335  TRP335      0.0015
     34  N        -12.8830  -18.3440   21.1080 N.3   338  MET338     -0.1245
     35  CA       -12.5970  -17.7200   22.3980 C.3   338  MET338      0.1570
     36  C        -13.0300  -18.6630   23.5220 C.2   338  MET338      0.2261
     37  O        -12.3040  -18.8020   24.5050 O.2   338  MET338     -0.2867
     38  CB       -13.3320  -16.3710   22.5270 C.3   338  MET338      0.0387
     39  CG       -13.0180  -15.6170   23.8130 C.3   338  MET338      0.0595
     40  SD       -11.3060  -15.0210   23.8800 S.3   338  MET338     -0.1393
     41  CE       -11.4920  -13.4430   23.0360 C.3   338  MET338      0.0692
     42  N         -9.6800  -17.1130   15.7780 N.3   359  THR359     -0.1204
     43  CA        -9.5700  -16.5270   17.1250 C.3   359  THR359      0.1979
     44  C         -8.2580  -16.8680   17.7840 C.2   359  THR359      0.2459
     45  O         -8.0040  -18.0390   18.0480 O.2   359  THR359     -0.2732
     46  CB       -10.7600  -16.8930   18.0120 C.3   359  THR359      0.1783
     47  OG1      -11.9350  -16.6470   17.2710 O.3   359  THR359     -0.2211
     48  CG2      -10.7870  -16.1050   19.3450 C.3   359  THR359      0.0376
     49  N         -7.4260  -15.8550   18.0950 N.am  360  PRO360     -0.2728
     50  CA        -6.1560  -16.1490   18.7590 C.3   360  PRO360      0.1401
     51  C         -6.3230  -16.2240   20.2770 C.2   360  PRO360      0.2269
     52  O         -7.3510  -15.8080   20.8190 O.2   360  PRO360     -0.2865
     53  CB        -5.2970  -14.9410   18.3680 C.3   360  PRO360      0.0296
     54  CG        -6.2830  -13.7990   18.3060 C.3   360  PRO360      0.0237
     55  CD        -7.5950  -14.3960   17.8690 C.3   360  PRO360      0.0939
     56  N        -12.0990   -1.7830   17.3250 N.3   380  PHE380     -0.1241
     57  CA       -13.2030   -2.6950   17.6180 C.3   380  PHE380      0.1605
     58  C        -14.4360   -1.8220   17.9510 C.2   380  PHE380      0.2264
     59  O        -15.1190   -2.0440   18.9510 O.2   380  PHE380     -0.2867
     60  CB       -12.8360   -3.6510   18.7790 C.3   380  PHE380      0.0534
     61  CG       -11.7020   -4.6330   18.5470 C.ar  380  PHE380     -0.0203
     62  CD1      -11.7740   -5.5810   17.5280 C.ar  380  PHE380     -0.0042
     63  CD2      -10.6080   -4.6720   19.4050 C.ar  380  PHE380     -0.0042
     64  CE1      -10.7430   -6.5090   17.3360 C.ar  380  PHE380     -0.0003
     65  CE2       -9.5820   -5.6090   19.2190 C.ar  380  PHE380     -0.0003
     66  CZ        -9.6550   -6.5180   18.1850 C.ar  380  PHE380     -0.0000
     67  N        -17.3940   -1.4390   16.3730 N.3   382  TYR382     -0.1227
     68  CA       -18.6570   -2.1740   16.2690 C.3   382  TYR382      0.1736
     69  C        -19.0100   -2.8460   17.6290 C.2   382  TYR382      0.2595
     70  O        -20.1870   -3.0280   17.9230 O.2   382  TYR382     -0.2718
     71  CB       -18.5600   -3.2230   15.1390 C.3   382  TYR382      0.0548
     72  CG       -17.6200   -4.3640   15.4690 C.ar  382  TYR382     -0.0200
     73  CD1      -16.2520   -4.2610   15.2290 C.ar  382  TYR382     -0.0009
     74  CD2      -18.0950   -5.5320   16.0620 C.ar  382  TYR382     -0.0009
     75  CE1      -15.3810   -5.2940   15.5670 C.ar  382  TYR382      0.0417
     76  CE2      -17.2350   -6.5700   16.4000 C.ar  382  TYR382      0.0417
     77  CZ       -15.8780   -6.4490   16.1500 C.ar  382  TYR382      0.1957
     78  OH       -15.0330   -7.4710   16.5080 O.3   382  TYR382     -0.2866
     79  N        -17.9880   -3.2100   18.4440 N.am  383  GLN383     -0.1979
     80  CA       -18.1730   -3.8280   19.7650 C.3   383  GLN383      0.1601
     81  C        -18.8150   -2.8240   20.7050 C.2   383  GLN383      0.2287
     82  O        -19.6500   -3.2120   21.5210 O.2   383  GLN383     -0.2864
     83  CB       -16.8490   -4.3320   20.3610 C.3   383  GLN383      0.0394
     84  CG       -16.1500   -5.3870   19.5060 C.3   383  GLN383      0.0908
     85  CD       -15.0720   -6.1730   20.2130 C.2   383  GLN383      0.2608
     86  OE1      -14.9830   -6.2200   21.4390 O.2   383  GLN383     -0.2717
     87  NE2      -14.2520   -6.8580   19.4480 N.am  383  GLN383     -0.0878
     88  N        -22.4230   -2.6380   19.9210 N.3   386  PHE386     -0.1241
     89  CA       -23.0640   -3.8650   20.3960 C.3   386  PHE386      0.1605
     90  C        -23.4200   -3.8360   21.8800 C.2   386  PHE386      0.2264
     91  O        -24.2310   -4.6500   22.3150 O.2   386  PHE386     -0.2867
     92  CB       -22.1610   -5.0840   20.0880 C.3   386  PHE386      0.0534
     93  CG       -22.0950   -5.5580   18.6510 C.ar  386  PHE386     -0.0203
     94  CD1      -22.8860   -4.9740   17.6660 C.ar  386  PHE386     -0.0042
     95  CD2      -21.2510   -6.5960   18.2860 C.ar  386  PHE386     -0.0042
     96  CE1      -22.8480   -5.4360   16.3510 C.ar  386  PHE386     -0.0003
     97  CE2      -21.2030   -7.0520   16.9610 C.ar  386  PHE386     -0.0003
     98  CZ       -22.0040   -6.4730   16.0040 C.ar  386  PHE386     -0.0000
     99  N        -30.2310   -5.4790   13.3530 N.3   396  LEU396     -0.1245
    100  CA       -29.9490   -6.8410   12.8970 C.3   396  LEU396      0.1561
    101  C        -31.2010   -7.6900   12.6550 C.2   396  LEU396      0.2260
    102  O        -31.2020   -8.4980   11.7330 O.2   396  LEU396     -0.2867
    103  CB       -28.9120   -7.5360   13.8060 C.3   396  LEU396      0.0270
    104  CG       -27.5120   -6.9210   13.7550 C.3   396  LEU396      0.0019
    105  CD1      -26.7440   -7.1980   15.0270 C.3   396  LEU396      0.0001
    106  CD2      -26.7390   -7.3950   12.5290 C.3   396  LEU396      0.0001
    107  N        -23.6720   -9.7800    5.8730 N.3   407  LEU407     -0.1245
    108  CA       -22.5710  -10.2630    6.7110 C.3   407  LEU407      0.1561
    109  C        -21.7680  -11.4010    6.1290 C.2   407  LEU407      0.2260
    110  O        -20.5430  -11.3820    6.2320 O.2   407  LEU407     -0.2867
    111  CB       -23.0570  -10.6560    8.1170 C.3   407  LEU407      0.0270
    112  CG       -23.7840   -9.6100    8.9500 C.3   407  LEU407      0.0019
    113  CD1      -24.3800  -10.2470   10.1770 C.3   407  LEU407      0.0001
    114  CD2      -22.8770   -8.4550    9.3330 C.3   407  LEU407      0.0001
    115  N        -19.7660   -3.9820    3.4450 N.3   416  LEU416     -0.1231
    116  CA       -19.7100   -3.5040    4.8120 C.3   416  LEU416      0.1693
    117  C        -18.3500   -2.9500    5.1460 C.2   416  LEU416      0.2593
    118  O        -17.3270   -3.5900    4.8860 O.2   416  LEU416     -0.2718
    119  CB       -20.0000   -4.6830    5.7600 C.3   416  LEU416      0.0284
    120  CG       -20.9720   -4.4570    6.8930 C.3   416  LEU416      0.0019
    121  CD1      -22.3740   -4.3310    6.3710 C.3   416  LEU416      0.0001
    122  CD2      -20.9310   -5.6110    7.8470 C.3   416  LEU416      0.0001
    123  N        -18.3440   -1.7650    5.7490 N.am  417  SER417     -0.1938
    124  CA       -17.1350   -1.1610    6.2800 C.3   417  SER417      0.2055
    125  C        -16.9690   -1.8890    7.6230 C.2   417  SER417      0.2642
    126  O        -17.9670   -2.0400    8.3400 O.2   417  SER417     -0.2714
    127  CB       -17.3330    0.3400    6.4960 C.3   417  SER417      0.2130
    128  OG       -18.5960    0.6470    7.0660 O.3   417  SER417     -0.2179
    129  N        -15.7660   -2.4420    7.9160 N.am  418  MET418     -0.1976
    130  CA       -15.5400   -3.1590    9.1820 C.3   418  MET418      0.1605
    131  C        -15.8160   -2.1800   10.3270 C.2   418  MET418      0.2287
    132  O        -16.5960   -2.4970   11.2270 O.2   418  MET418     -0.2864
    133  CB       -14.1090   -3.7370    9.2770 C.3   418  MET418      0.0413
    134  CG       -13.9210   -4.7330   10.4290 C.3   418  MET418      0.0598
    135  SD       -13.5180   -3.9700   12.0330 S.3   418  MET418     -0.1393
    136  CE       -11.7740   -4.2590   12.1030 C.3   418  MET418      0.0692
    137  N        -24.3910   -0.8330   11.4070 N.3   427  LEU427     -0.1245
    138  CA       -23.5740   -1.7330   10.5940 C.3   427  LEU427      0.1561
    139  C        -23.9710   -1.6980    9.1180 C.2   427  LEU427      0.2260
    140  O        -23.1120   -1.9150    8.2700 O.2   427  LEU427     -0.2867
    141  CB       -23.6840   -3.1970   11.0920 C.3   427  LEU427      0.0270
    142  CG       -23.2970   -3.5320   12.5370 C.3   427  LEU427      0.0019
    143  CD1      -23.8530   -4.8840   12.9270 C.3   427  LEU427      0.0001
    144  CD2      -21.7980   -3.5260   12.7310 C.3   427  LEU427      0.0001
    145  N        -21.0040  -10.2730   23.7610 N.3   465  TYR465     -0.1241
    146  CA       -20.1950   -9.0410   23.7100 C.3   465  TYR465      0.1605
    147  C        -20.3970   -8.1550   24.9280 C.2   465  TYR465      0.2264
    148  O        -19.6760   -7.1700   25.0760 O.2   465  TYR465     -0.2867
    149  CB       -20.6420   -8.1800   22.5080 C.3   465  TYR465      0.0534
    150  CG       -20.2320   -8.7030   21.1570 C.ar  465  TYR465     -0.0201
    151  CD1      -18.9930   -8.3800   20.6090 C.ar  465  TYR465     -0.0009
    152  CD2      -21.1050   -9.4740   20.3950 C.ar  465  TYR465     -0.0009
    153  CE1      -18.6190   -8.8370   19.3470 C.ar  465  TYR465      0.0417
    154  CE2      -20.7440   -9.9340   19.1300 C.ar  465  TYR465      0.0417
    155  CZ       -19.4980   -9.6130   18.6110 C.ar  465  TYR465      0.1957
    156  OH       -19.1350  -10.0750   17.3710 O.3   465  TYR465     -0.2866
    157  N        -11.2160   -8.7790   10.9890 N.3   497  VAL497     -0.1231
    158  CA       -11.6130   -8.6530   12.3920 C.3   497  VAL497      0.1692
    159  C        -10.5000   -9.3440   13.1830 C.2   497  VAL497      0.2591
    160  O        -10.0380   -8.8130   14.1960 O.2   497  VAL497     -0.2718
    161  CB       -13.0070   -9.2820   12.6990 C.3   497  VAL497      0.0266
    162  CG1      -13.3200   -9.2270   14.1950 C.3   497  VAL497      0.0020
    163  CG2      -14.1160   -8.6080   11.8930 C.3   497  VAL497      0.0020
    164  N        -10.0750  -10.5300   12.6940 N.am  498  LEU498     -0.1980
    165  CA        -9.0500  -11.3780   13.2940 C.3   498  LEU498      0.1596
    166  C         -7.8910  -11.5810   12.3250 C.2   498  LEU498      0.2287
    167  O         -7.8100  -12.6030   11.6350 O.2   498  LEU498     -0.2864
    168  CB        -9.6570  -12.7230   13.7580 C.3   498  LEU498      0.0297
    169  CG       -10.7830  -12.6400   14.8020 C.3   498  LEU498      0.0022
    170  CD1      -11.5850  -13.9350   14.8470 C.3   498  LEU498      0.0001
    171  CD2      -10.2330  -12.2950   16.1830 C.3   498  LEU498      0.0001
    172  N         -2.2980  -10.9590   14.9060 N.3   502  MET502     -0.1245
    173  CA        -2.8050  -10.9630   16.2890 C.3   502  MET502      0.1570
    174  C         -2.3660  -12.2290   17.0610 C.2   502  MET502      0.2261
    175  O         -2.2810  -12.1920   18.2910 O.2   502  MET502     -0.2867
    176  CB        -4.3430  -10.9750   16.2790 C.3   502  MET502      0.0387
    177  CG        -5.0010   -9.6260   16.2080 C.3   502  MET502      0.0595
    178  SD        -6.8140   -9.8430   16.1790 S.3   502  MET502     -0.1393
    179  CE        -7.1680  -10.0530   17.9380 C.3   502  MET502      0.0692
    180  N        -13.3280  -13.9540    7.0450 N.3   523  HIS523     -0.1226
    181  CA       -13.7950  -14.2690    8.3960 C.3   523  HIS523      0.1752
    182  C        -14.6350  -15.5410    8.4930 C.2   523  HIS523      0.2596
    183  O        -14.5630  -16.2180    9.5070 O.2   523  HIS523     -0.2718
    184  CB       -14.5340  -13.0690    9.0270 C.3   523  HIS523      0.0759
    185  CG       -15.0750  -13.3660   10.3930 C.ar  523  HIS523      0.0818
    186  ND1      -14.2370  -13.4720   11.4900 N.ar  523  HIS523     -0.2268
    187  CD2      -16.3380  -13.6740   10.7740 C.ar  523  HIS523      0.1154
    188  CE1      -15.0180  -13.8020   12.5000 C.ar  523  HIS523      0.1986
    189  NE2      -16.2920  -13.9270   12.1170 N.ar  523  HIS523     -0.2212
    190  N        -15.4360  -15.8600    7.4680 N.am  524  TRP524     -0.1976
    191  CA       -16.3380  -17.0210    7.4620 C.3   524  TRP524      0.1640
    192  C        -15.6180  -18.2640    6.9640 C.2   524  TRP524      0.2290
    193  O        -16.0810  -18.9360    6.0460 O.2   524  TRP524     -0.2864
    194  CB       -17.6160  -16.7010    6.6630 C.3   524  TRP524      0.0576
    195  CG       -18.1400  -15.3300    6.9650 C.ar  524  TRP524      0.0006
    196  CD1      -17.9550  -14.2070    6.2150 C.ar  524  TRP524      0.0946
    197  CD2      -18.7520  -14.8960    8.1930 C.ar  524  TRP524      0.0152
    198  NE1      -18.4650  -13.1110    6.8690 N.ar  524  TRP524     -0.2442
    199  CE2      -18.9670  -13.5040    8.0840 C.ar  524  TRP524      0.0810
    200  CE3      -19.1900  -15.5570    9.3530 C.ar  524  TRP524      0.0012
    201  CZ2      -19.6020  -12.7620    9.0880 C.ar  524  TRP524      0.0191
    202  CZ3      -19.8200  -14.8210   10.3430 C.ar  524  TRP524      0.0001
    203  CH2      -20.0200  -13.4400   10.2060 C.ar  524  TRP524      0.0015
@<TRIPOS>BOND
     1   115   116    1
     2   116   117    1
     3   116   119    1
     4   118   117    2
     5   117   123   am
     6   123   124    1
     7   119   120    1
     8   107   108    1
     9   193   192    2
    10   109   110    2
    11   109   108    1
    12   196   198   ar
    13   196   195   ar
    14   124   127    1
    15   124   125    1
    16   121   120    1
    17   127   128    1
    18   194   195    1
    19   194   191    1
    20   108   111    1
    21   198   199   ar
    22   120   122    1
    23   192   191    1
    24   195   197   ar
    25   180   181    1
    26   191   190    1
    27   190   182   am
    28   125   129   am
    29   125   126    2
    30   129   130    1
    31   199   197   ar
    32   199   201   ar
    33   111   112    1
    34   197   200   ar
    35   140   139    2
    36   181   182    1
    37   181   184    1
    38   182   183    2
    39   112   114    1
    40   112   113    1
    41   184   185    1
    42   201   203   ar
    43   139   138    1
    44   130   133    1
    45   130   131    1
    46   133   134    1
    47   200   202   ar
    48   203   202   ar
    49   131   132    2
    50   185   187   ar
    51   185   186   ar
    52   134   135    1
    53   138   141    1
    54   138   137    1
    55   187   189   ar
    56   157   158    1
    57   141   142    1
    58   186   188   ar
    59   167   166    2
    60   102   101    2
    61   163   161    1
    62   135   136    1
    63   189   188   ar
    64   166   165    1
    65   158   161    1
    66   158   159    1
    67   106   104    1
    68   142   144    1
    69   142   143    1
    70   101   100    1
    71   164   159   am
    72   164   165    1
    73   161   162    1
    74   100    99    1
    75   100   103    1
    76   159   160    2
    77   165   168    1
    78   104   103    1
    79   104   105    1
    80   168   169    1
    81     4     3    2
    82     3     2    1
    83   169   170    1
    84   169   171    1
    85   172   173    1
    86    71    72    1
    87    71    68    1
    88    73    72   ar
    89    73    75   ar
    90    18    17   ar
    91    16    17    1
    92    16    13    1
    93    72    74   ar
    94    75    77   ar
    95    17    19   ar
    96     9     7   ar
    97     9    11   ar
    98    42    43    1
    99    12    13    1
   100     7     6   ar
   101     2     1    1
   102     2     5    1
   103    98    96   ar
   104    98    97   ar
   105    74    76   ar
   106    77    76   ar
   107    77    78    1
   108   178   177    1
   109   178   179    1
   110   177   176    1
   111    68    67    1
   112    68    69    1
   113    13    14    1
   114   176   173    1
   115   173   174    1
   116    96    94   ar
   117    11    10   ar
   118     6     5    1
   119     6     8   ar
   120    97    95   ar
   121   174   175    2
   122    43    44    1
   123    43    46    1
   124    47    46    1
   125    56    57    1
   126    64    62   ar
   127    64    66   ar
   128   156   155    1
   129    10     8   ar
   130    62    61   ar
   131    57    58    1
   132    57    60    1
   133    69    70    2
   134    69    79   am
   135    94    93   ar
   136    44    45    2
   137    44    49   am
   138    14    20   am
   139    14    15    2
   140    55    49    1
   141    55    54    1
   142    58    59    2
   143    46    48    1
   144    49    50    1
   145    66    65   ar
   146    20    21    1
   147    95    93   ar
   148    54    53    1
   149    53    50    1
   150    79    80    1
   151    61    60    1
   152    61    63   ar
   153   155   154   ar
   154   155   153   ar
   155    93    92    1
   156    50    51    1
   157   154   152   ar
   158    65    63   ar
   159   153   151   ar
   160    87    85   am
   161    84    85    1
   162    84    83    1
   163    26    28   ar
   164    26    25   ar
   165    21    24    1
   166    21    22    1
   167    80    83    1
   168    80    81    1
   169    88    89    1
   170    24    25    1
   171    92    89    1
   172    85    86    2
   173    28    29   ar
   174    22    23    2
   175    51    52    2
   176    25    27   ar
   177   152   150   ar
   178    89    90    1
   179   151   150   ar
   180    81    82    2
   181    34    35    1
   182   150   149    1
   183    29    27   ar
   184    29    31   ar
   185    27    30   ar
   186    90    91    2
   187    35    38    1
   188    35    36    1
   189    31    33   ar
   190   149   146    1
   191    38    39    1
   192    30    32   ar
   193    41    40    1
   194    36    37    2
   195    33    32   ar
   196   146   145    1
   197   146   147    1
   198    39    40    1
   199   147   148    2
