@<TRIPOS>MOLECULE
tmp/5akgA00.pdb
 142 137 0 0 0
SMALL
GASTEIGER

@<TRIPOS>ATOM
      1  N         18.4320   15.5450   29.8550 N.3   309  MET309     -0.1245
      2  CA        17.6240   16.7200   29.5690 C.3   309  MET309      0.1570
      3  C         17.6210   17.7990   30.6390 C.2   309  MET309      0.2261
      4  O         17.6830   18.9840   30.2970 O.2   309  MET309     -0.2867
      5  CB        16.2060   16.3350   29.1910 C.3   309  MET309      0.0387
      6  CG        15.5680   17.3520   28.2810 C.3   309  MET309      0.0595
      7  SD        15.9370   16.9960   26.5540 S.3   309  MET309     -0.1393
      8  CE        14.7570   15.6690   26.3300 C.3   309  MET309      0.0692
      9  N         16.4300   16.3460   18.2240 N.3   335  TRP335     -0.1241
     10  CA        16.7730   16.3780   19.6430 C.3   335  TRP335      0.1605
     11  C         16.5900   17.7660   20.2500 C.2   335  TRP335      0.2264
     12  O         16.1530   17.8650   21.4020 O.2   335  TRP335     -0.2867
     13  CB        18.1960   15.8550   19.8970 C.3   335  TRP335      0.0550
     14  CG        18.2040   14.5000   20.5410 C.ar  335  TRP335      0.0003
     15  CD1       18.7910   13.3730   20.0550 C.ar  335  TRP335      0.0946
     16  CD2       17.4920   14.1070   21.7210 C.ar  335  TRP335      0.0152
     17  NE1       18.5240   12.3070   20.8800 N.ar  335  TRP335     -0.2442
     18  CE2       17.7340   12.7320   21.9150 C.ar  335  TRP335      0.0810
     19  CE3       16.6950   14.7900   22.6550 C.ar  335  TRP335      0.0012
     20  CZ2       17.2070   12.0240   22.9900 C.ar  335  TRP335      0.0191
     21  CZ3       16.1540   14.0750   23.7190 C.ar  335  TRP335      0.0001
     22  CH2       16.4350   12.7080   23.8880 C.ar  335  TRP335      0.0015
     23  N         12.9550   18.3060   21.0180 N.3   338  MET338     -0.1245
     24  CA        12.6300   17.6530   22.2910 C.3   338  MET338      0.1570
     25  C         13.0250   18.5490   23.4560 C.2   338  MET338      0.2261
     26  O         12.1860   18.7970   24.3190 O.2   338  MET338     -0.2867
     27  CB        13.2800   16.2600   22.3980 C.3   338  MET338      0.0387
     28  CG        12.6340   15.3420   23.4480 C.3   338  MET338      0.0595
     29  SD        10.8300   15.1120   23.2730 S.3   338  MET338     -0.1393
     30  CE        10.8040   14.0380   21.9000 C.3   338  MET338      0.0692
     31  N         10.7190   20.7870   26.5370 N.3   342  TYR342     -0.1241
     32  CA        11.0690   20.7010   27.9480 C.3   342  TYR342      0.1605
     33  C         11.4790   22.0290   28.5670 C.2   342  TYR342      0.2264
     34  O         11.2270   22.2430   29.7490 O.2   342  TYR342     -0.2867
     35  CB        11.9880   19.5020   28.2370 C.3   342  TYR342      0.0534
     36  CG        11.1870   18.2200   28.1570 C.ar  342  TYR342     -0.0201
     37  CD1       10.3110   17.8600   29.1730 C.ar  342  TYR342     -0.0009
     38  CD2       11.1970   17.4410   27.0080 C.ar  342  TYR342     -0.0009
     39  CE1        9.4900   16.7370   29.0600 C.ar  342  TYR342      0.0417
     40  CE2       10.3740   16.3200   26.8820 C.ar  342  TYR342      0.0417
     41  CZ         9.5280   15.9700   27.9150 C.ar  342  TYR342      0.1957
     42  OH         8.7390   14.8630   27.8170 O.3   342  TYR342     -0.2866
     43  N          6.4250   14.6380   23.2520 N.3   362  ILE362     -0.1245
     44  CA         6.2290   13.3250   23.8590 C.3   362  ILE362      0.1561
     45  C          6.0960   13.3780   25.3890 C.2   362  ILE362      0.2260
     46  O          7.0960   13.5610   26.0940 O.2   362  ILE362     -0.2867
     47  CB         7.2330   12.2280   23.3550 C.3   362  ILE362      0.0252
     48  CG1        6.9740   11.8380   21.8800 C.3   362  ILE362      0.0019
     49  CG2        7.2950   10.9500   24.2700 C.3   362  ILE362      0.0019
     50  CD1        5.4500   11.4450   21.4640 C.3   362  ILE362      0.0001
     51  N          5.7430   11.8470   29.1460 N.3   364  ALA364     -0.1245
     52  CA         6.2590   10.6360   29.7540 C.3   364  ALA364      0.1562
     53  C          5.0900    9.7120   30.0290 C.2   364  ALA364      0.2260
     54  O          3.9760   10.1540   30.3350 O.2   364  ALA364     -0.2867
     55  CB         6.9810   10.9500   31.0430 C.3   364  ALA364      0.0290
     56  N          9.7850    2.7100   23.7370 N.3   374  ILE374     -0.1245
     57  CA        10.6550    2.7650   22.5460 C.3   374  ILE374      0.1561
     58  C         10.5730    1.4530   21.7660 C.2   374  ILE374      0.2260
     59  O         10.4970    1.4750   20.5330 O.2   374  ILE374     -0.2867
     60  CB        12.1340    3.2080   22.8800 C.3   374  ILE374      0.0252
     61  CG1       12.4390    4.6330   22.3760 C.3   374  ILE374      0.0019
     62  CG2       13.2280    2.2280   22.3980 C.3   374  ILE374      0.0019
     63  CD1       11.6840    5.7470   23.1020 C.3   374  ILE374      0.0001
     64  N         17.6730    3.7300   18.1950 N.3   383  GLN383     -0.1245
     65  CA        17.9220    4.2210   19.5520 C.3   383  GLN383      0.1566
     66  C         18.5510    3.1620   20.4620 C.2   383  GLN383      0.2260
     67  O         19.3420    3.5030   21.3440 O.2   383  GLN383     -0.2867
     68  CB        16.6570    4.8230   20.1810 C.3   383  GLN383      0.0367
     69  CG        16.0560    5.9590   19.3390 C.3   383  GLN383      0.0905
     70  CD        15.1680    6.9050   20.1080 C.2   383  GLN383      0.2608
     71  OE1       15.0630    6.8580   21.3370 O.2   383  GLN383     -0.2717
     72  NE2       14.5350    7.8070   19.3870 N.am  383  GLN383     -0.0878
     73  N         22.5330    2.6770   22.3450 N.3   387  GLN387     -0.1245
     74  CA        22.6310    2.4290   23.7870 C.3   387  GLN387      0.1566
     75  C         23.9870    2.0670   24.3500 C.2   387  GLN387      0.2260
     76  O         24.4320    2.7260   25.2880 O.2   387  GLN387     -0.2867
     77  CB        21.5430    1.4810   24.2870 C.3   387  GLN387      0.0367
     78  CG        20.1380    2.0640   24.2100 C.3   387  GLN387      0.0905
     79  CD        20.0760    3.4960   24.6960 C.2   387  GLN387      0.2608
     80  OE1       20.3410    3.7950   25.8510 O.2   387  GLN387     -0.2717
     81  NE2       19.7740    4.4160   23.8120 N.am  387  GLN387     -0.0878
     82  N         23.1140   11.9610   24.1960 N.3   464  TRP464     -0.1227
     83  CA        21.7630   12.5370   24.2490 C.3   464  TRP464      0.1737
     84  C         20.7020   11.4120   24.2910 C.2   464  TRP464      0.2595
     85  O         19.6690   11.5600   24.9470 O.2   464  TRP464     -0.2718
     86  CB        21.5300   13.4150   23.0160 C.3   464  TRP464      0.0564
     87  CG        22.1580   14.7840   23.0830 C.ar  464  TRP464      0.0003
     88  CD1       23.4860   15.0740   23.0570 C.ar  464  TRP464      0.0946
     89  CD2       21.4720   16.0410   23.0830 C.ar  464  TRP464      0.0152
     90  NE1       23.6760   16.4370   23.0780 N.ar  464  TRP464     -0.2442
     91  CE2       22.4550   17.0550   23.0730 C.ar  464  TRP464      0.0810
     92  CE3       20.1160   16.4120   23.0540 C.ar  464  TRP464      0.0012
     93  CZ2       22.1310   18.4120   23.0590 C.ar  464  TRP464      0.0191
     94  CZ3       19.7940   17.7700   23.0500 C.ar  464  TRP464      0.0001
     95  CH2       20.8020   18.7500   23.0440 C.ar  464  TRP464      0.0015
     96  N         21.0010   10.2760   23.6150 N.am  465  TYR465     -0.1976
     97  CA        20.1790    9.0560   23.5230 C.3   465  TYR465      0.1639
     98  C         20.3970    8.0860   24.6840 C.2   465  TYR465      0.2290
     99  O         19.6800    7.0990   24.7750 O.2   465  TYR465     -0.2864
    100  CB        20.5590    8.2940   22.2530 C.3   465  TYR465      0.0560
    101  CG        20.0850    8.9340   20.9690 C.ar  465  TYR465     -0.0198
    102  CD1       18.7630    8.7900   20.5530 C.ar  465  TYR465     -0.0009
    103  CD2       20.9520    9.6260   20.1460 C.ar  465  TYR465     -0.0009
    104  CE1       18.3280    9.3330   19.3460 C.ar  465  TYR465      0.0417
    105  CE2       20.5290   10.1740   18.9390 C.ar  465  TYR465      0.0417
    106  CZ        19.2130   10.0280   18.5460 C.ar  465  TYR465      0.1957
    107  OH        18.7910   10.5830   17.3750 O.3   465  TYR465     -0.2866
    108  N         17.7240    7.8220   28.7650 N.3   468  MET468     -0.1245
    109  CA        16.3290    7.4030   28.6730 C.3   468  MET468      0.1570
    110  C         15.5970    7.3470   30.0040 C.2   468  MET468      0.2261
    111  O         14.5630    7.9980   30.1340 O.2   468  MET468     -0.2867
    112  CB        16.2590    6.0480   28.0080 C.3   468  MET468      0.0387
    113  CG        15.2990    6.0040   26.8670 C.3   468  MET468      0.0595
    114  SD        15.9710    5.0620   25.4810 S.3   468  MET468     -0.1393
    115  CE        16.2070    3.4790   26.2800 C.3   468  MET468      0.0692
    116  N         15.6620   10.9160   31.9210 N.3   471  ASN471     -0.1225
    117  CA        14.7450   11.8090   31.2180 C.3   471  ASN471      0.1785
    118  C         13.2890   11.4690   31.5470 C.2   471  ASN471      0.2597
    119  O         12.4910   12.3720   31.7560 O.2   471  ASN471     -0.2718
    120  CB        14.9840   11.7430   29.7060 C.3   471  ASN471      0.1169
    121  CG        16.2880   12.3580   29.2320 C.2   471  ASN471      0.2627
    122  OD1       17.0380   12.9620   29.9900 O.2   471  ASN471     -0.2716
    123  ND2       16.5690   12.2400   27.9550 N.am  471  ASN471     -0.0877
    124  N         12.9560   10.1560   31.6290 N.am  472  TRP472     -0.1976
    125  CA        11.6280    9.6460   31.9750 C.3   472  TRP472      0.1640
    126  C         11.1900   10.1400   33.3710 C.2   472  TRP472      0.2290
    127  O         10.1090   10.7180   33.4920 O.2   472  TRP472     -0.2864
    128  CB        11.6020    8.1140   31.8730 C.3   472  TRP472      0.0576
    129  CG        10.2730    7.5110   32.2070 C.ar  472  TRP472      0.0006
    130  CD1        9.1350    7.6020   31.4690 C.ar  472  TRP472      0.0946
    131  CD2        9.9160    6.8410   33.4150 C.ar  472  TRP472      0.0152
    132  NE1        8.0950    7.0030   32.1270 N.ar  472  TRP472     -0.2442
    133  CE2        8.5480    6.5140   33.3210 C.ar  472  TRP472      0.0810
    134  CE3       10.6330    6.4350   34.5540 C.ar  472  TRP472      0.0012
    135  CZ2        7.8760    5.8080   34.3140 C.ar  472  TRP472      0.0191
    136  CZ3        9.9560    5.7470   35.5570 C.ar  472  TRP472      0.0001
    137  CH2        8.5880    5.4400   35.4250 C.ar  472  TRP472      0.0015
    138  N         10.7420   14.1130   33.3570 N.3   475  ALA475     -0.1245
    139  CA         9.5110   14.4010   32.6120 C.3   475  ALA475      0.1562
    140  C          8.2230   14.0490   33.4090 C.2   475  ALA475      0.2260
    141  O          7.2200   14.7190   33.2210 O.2   475  ALA475     -0.2867
    142  CB         9.5310   13.6750   31.2780 C.3   475  ALA475      0.0290
@<TRIPOS>BOND
     1   107   106    1
     2    64    65    1
     3     9    10    1
     4   106   105   ar
     5   106   104   ar
     6   105   103   ar
     7    69    70    1
     8    69    68    1
     9   104   102   ar
    10    72    70   am
    11    65    68    1
    12    65    66    1
    13    10    13    1
    14    10    11    1
    15    13    14    1
    16    15    14   ar
    17    15    17   ar
    18    70    71    2
    19   103   101   ar
    20    11    12    2
    21    66    67    2
    22    59    58    2
    23    14    16   ar
    24   102   101   ar
    25    17    18   ar
    26   101   100    1
    27    23    24    1
    28    50    48    1
    29    16    18   ar
    30    16    19   ar
    31    58    57    1
    32    48    47    1
    33    30    29    1
    34    18    20   ar
    35   100    97    1
    36    24    27    1
    37    24    25    1
    38    73    74    1
    39    61    60    1
    40    61    63    1
    41    62    60    1
    42    27    28    1
    43    57    60    1
    44    57    56    1
    45    19    21   ar
    46    20    22   ar
    47    86    87    1
    48    86    83    1
    49    95    94   ar
    50    95    93   ar
    51    94    92   ar
    52    92    89   ar
    53    88    90   ar
    54    88    87   ar
    55    93    91   ar
    56    91    90   ar
    57    91    89   ar
    58    89    87   ar
    59    43    44    1
    60    29    28    1
    61    47    44    1
    62    47    49    1
    63    25    26    2
    64    97    96    1
    65    97    98    1
    66    96    84   am
    67    21    22   ar
    68    74    77    1
    69    74    75    1
    70    81    79   am
    71    44    45    1
    72    82    83    1
    73    78    77    1
    74    78    79    1
    75    83    84    1
    76    84    85    2
    77    75    76    2
    78    98    99    2
    79    79    80    2
    80    45    46    2
    81   114   115    1
    82   114   113    1
    83     8     7    1
    84    31    32    1
    85     7     6    1
    86   113   112    1
    87    40    38   ar
    88    40    41   ar
    89    38    36   ar
    90    42    41    1
    91    41    39   ar
    92    32    35    1
    93    32    33    1
    94   123   121   am
    95   112   109    1
    96    36    35    1
    97    36    37   ar
    98     6     5    1
    99    33    34    2
   100   109   108    1
   101   109   110    1
   102    39    37   ar
   103    51    52    1
   104     5     2    1
   105   121   120    1
   106   121   122    2
   107     2     1    1
   108     2     3    1
   109   120   117    1
   110    52    53    1
   111    52    55    1
   112   110   111    2
   113    53    54    2
   114     4     3    2
   115   117   118    1
   116   117   116    1
   117   142   139    1
   118   130   132   ar
   119   130   129   ar
   120   118   124   am
   121   118   119    2
   122   124   125    1
   123   128   125    1
   124   128   129    1
   125   125   126    1
   126   132   133   ar
   127   129   131   ar
   128   139   138    1
   129   139   140    1
   130   141   140    2
   131   133   131   ar
   132   133   135   ar
   133   126   127    2
   134   131   134   ar
   135   135   137   ar
   136   134   136   ar
   137   137   136   ar
