@<TRIPOS>MOLECULE
tmp/5akhA00.pdb
 189 185 0 0 0
SMALL
GASTEIGER

@<TRIPOS>ATOM
      1  N        -20.4300  -15.6800   15.9020 N.3   266  PHE266     -0.1228
      2  CA       -21.5400  -14.7600   15.8110 C.3   266  PHE266      0.1721
      3  C        -21.6840  -14.2470   14.3930 C.2   266  PHE266      0.2437
      4  O        -20.6830  -13.7580   13.8470 O.2   266  PHE266     -0.2733
      5  CB       -21.3420  -13.5560   16.7820 C.3   266  PHE266      0.0547
      6  CG       -22.3960  -12.4670   16.6260 C.ar  266  PHE266     -0.0202
      7  CD1      -22.2940  -11.5110   15.6150 C.ar  266  PHE266     -0.0042
      8  CD2      -23.4880  -12.4040   17.4850 C.ar  266  PHE266     -0.0042
      9  CE1      -23.2910  -10.5450   15.4370 C.ar  266  PHE266     -0.0003
     10  CE2      -24.4740  -11.4210   17.3230 C.ar  266  PHE266     -0.0003
     11  CZ       -24.3730  -10.5060   16.2960 C.ar  266  PHE266     -0.0000
     12  N        -22.9320  -14.1420   13.8710 N.am  267  PRO267     -0.2729
     13  CA       -24.2250  -14.6260   14.4010 C.3   267  PRO267      0.1401
     14  C        -24.5610  -15.9080   13.6480 C.2   267  PRO267      0.2269
     15  O        -25.0890  -15.9000   12.5270 O.2   267  PRO267     -0.2865
     16  CB       -25.1750  -13.4670   14.0590 C.3   267  PRO267      0.0296
     17  CG       -24.5220  -12.7750   12.8100 C.3   267  PRO267      0.0237
     18  CD       -23.1590  -13.4650   12.5840 C.3   267  PRO267      0.0939
     19  N        -14.5260  -17.8240   15.7400 N.3   334  ASP334     -0.1239
     20  CA       -14.9690  -16.5150   16.1940 C.3   334  ASP334      0.1674
     21  C        -15.2640  -16.5620   17.7050 C.2   334  ASP334      0.2266
     22  O        -14.3560  -16.9070   18.4480 O.2   334  ASP334     -0.2867
     23  CB       -16.1220  -15.9940   15.2850 C.3   334  ASP334      0.1410
     24  CG       -16.6790  -14.6380   15.6600 C.2   334  ASP334      0.3668
     25  OD1      -16.0260  -13.6230   15.3410 O.co2 334  ASP334     -0.2456
     26  OD2      -17.7200  -14.6010   16.3620 O.co2 334  ASP334     -0.2456
     27  N        -17.1060   -2.2880   15.7770 N.3   382  TYR382     -0.1241
     28  CA       -18.3780   -3.0190   15.7090 C.3   382  TYR382      0.1605
     29  C        -18.7890   -3.6020   17.1000 C.2   382  TYR382      0.2264
     30  O        -19.9790   -3.6380   17.4070 O.2   382  TYR382     -0.2867
     31  CB       -18.3510   -4.0900   14.6080 C.3   382  TYR382      0.0534
     32  CG       -17.7050   -5.4030   15.0120 C.ar  382  TYR382     -0.0201
     33  CD1      -18.4580   -6.4290   15.5810 C.ar  382  TYR382     -0.0009
     34  CD2      -16.3440   -5.6230   14.8160 C.ar  382  TYR382     -0.0009
     35  CE1      -17.8710   -7.6300   15.9640 C.ar  382  TYR382      0.0417
     36  CE2      -15.7510   -6.8340   15.1680 C.ar  382  TYR382      0.0417
     37  CZ       -16.5200   -7.8390   15.7360 C.ar  382  TYR382      0.1957
     38  OH       -15.9410   -9.0370   16.0920 O.3   382  TYR382     -0.2866
     39  N        -22.1620   -2.8910   19.4870 N.3   386  PHE386     -0.1241
     40  CA       -22.8910   -4.0230   20.0480 C.3   386  PHE386      0.1605
     41  C        -23.1550   -3.8710   21.5440 C.2   386  PHE386      0.2264
     42  O        -23.9570   -4.6300   22.0790 O.2   386  PHE386     -0.2867
     43  CB       -22.1480   -5.3400   19.7290 C.3   386  PHE386      0.0534
     44  CG       -22.2490   -5.8580   18.3080 C.ar  386  PHE386     -0.0203
     45  CD1      -22.9870   -5.1770   17.3490 C.ar  386  PHE386     -0.0042
     46  CD2      -21.6440   -7.0570   17.9440 C.ar  386  PHE386     -0.0042
     47  CE1      -23.1200   -5.6840   16.0570 C.ar  386  PHE386     -0.0003
     48  CE2      -21.7600   -7.5550   16.6400 C.ar  386  PHE386     -0.0003
     49  CZ       -22.5070   -6.8730   15.7070 C.ar  386  PHE386     -0.0000
     50  N        -30.1640   -5.4440   13.2070 N.3   396  LEU396     -0.1245
     51  CA       -29.9510   -6.8370   12.7860 C.3   396  LEU396      0.1561
     52  C        -31.2350   -7.6090   12.5340 C.2   396  LEU396      0.2260
     53  O        -31.2750   -8.4170   11.6220 O.2   396  LEU396     -0.2867
     54  CB       -28.9780   -7.5890   13.7140 C.3   396  LEU396      0.0270
     55  CG       -27.5400   -7.0520   13.7210 C.3   396  LEU396      0.0019
     56  CD1      -26.7630   -7.5630   14.9000 C.3   396  LEU396      0.0001
     57  CD2      -26.8330   -7.3330   12.4160 C.3   396  LEU396      0.0001
     58  N        -25.7070   -9.5990    3.7260 N.3   406  SER406     -0.1202
     59  CA       -24.6770   -8.5720    3.9130 C.3   406  SER406      0.2020
     60  C        -23.4530   -9.1330    4.6400 C.2   406  SER406      0.2618
     61  O        -22.3250   -8.8250    4.2700 O.2   406  SER406     -0.2717
     62  CB       -25.2250   -7.3870    4.7080 C.3   406  SER406      0.2103
     63  OG       -26.4300   -6.8500    4.1870 O.3   406  SER406     -0.2182
     64  N        -23.6830   -9.9450    5.6910 N.am  407  LEU407     -0.1979
     65  CA       -22.6390  -10.5490    6.5210 C.3   407  LEU407      0.1596
     66  C        -21.8390  -11.6470    5.8420 C.2   407  LEU407      0.2287
     67  O        -20.6100  -11.5730    5.7850 O.2   407  LEU407     -0.2864
     68  CB       -23.2560  -11.1010    7.8170 C.3   407  LEU407      0.0297
     69  CG       -23.8030  -10.1020    8.8160 C.3   407  LEU407      0.0022
     70  CD1      -24.5550  -10.8240    9.9260 C.3   407  LEU407      0.0001
     71  CD2      -22.7050   -9.2500    9.4160 C.3   407  LEU407      0.0001
     72  N        -20.2150  -13.0830    3.2100 N.3   409  ARG409     -0.1245
     73  CA       -19.5610  -12.8010    1.9180 C.3   409  ARG409      0.1563
     74  C        -18.1000  -13.2190    1.9330 C.2   409  ARG409      0.2260
     75  O        -17.4760  -13.1540    2.9860 O.2   409  ARG409     -0.2867
     76  CB       -19.5700  -11.2970    1.6190 C.3   409  ARG409      0.0307
     77  CG       -20.8880  -10.6030    1.7360 C.3   409  ARG409      0.0489
     78  CD       -20.9430   -9.5440    0.6670 C.3   409  ARG409      0.2205
     79  NE       -22.3160   -9.2570    0.3090 N.pl3 409  ARG409     -0.0865
     80  CZ       -22.8400   -9.4700   -0.8870 C.cat 409  ARG409      0.5346
     81  NH1      -22.0950   -9.9320   -1.8760 N.pl3 409  ARG409      0.1354
     82  NH2      -24.1120   -9.1930   -1.1080 N.pl3 409  ARG409      0.1354
     83  N        -17.0660   -8.3640    0.0480 N.3   414  SER414     -0.1202
     84  CA       -17.5070   -7.5290    1.1910 C.3   414  SER414      0.2020
     85  C        -18.2290   -6.2380    0.8920 C.2   414  SER414      0.2619
     86  O        -17.7720   -5.4220    0.0950 O.2   414  SER414     -0.2717
     87  CB       -16.4260   -7.3480    2.2480 C.3   414  SER414      0.2103
     88  OG       -16.1840   -8.5730    2.9190 O.3   414  SER414     -0.2182
     89  N        -19.4050   -6.1070    1.5060 N.am  415  VAL415     -0.1965
     90  CA       -20.3560   -4.9950    1.4140 C.3   415  VAL415      0.1727
     91  C        -20.2130   -4.0720    2.6630 C.2   415  VAL415      0.2616
     92  O        -20.5960   -2.8890    2.6270 O.2   415  VAL415     -0.2715
     93  CB       -21.7730   -5.6190    1.1820 C.3   415  VAL415      0.0290
     94  CG1      -22.8740   -4.9970    2.0260 C.3   415  VAL415      0.0023
     95  CG2      -22.1300   -5.6400   -0.2930 C.3   415  VAL415      0.0023
     96  N        -19.5780   -4.6190    3.7400 N.am  416  LEU416     -0.1977
     97  CA       -19.3770   -3.9310    5.0140 C.3   416  LEU416      0.1596
     98  C        -17.9550   -3.5530    5.3420 C.2   416  LEU416      0.2287
     99  O        -17.0590   -4.3960    5.3660 O.2   416  LEU416     -0.2864
    100  CB       -19.9230   -4.7440    6.2180 C.3   416  LEU416      0.0297
    101  CG       -21.2600   -5.4580    6.1240 C.3   416  LEU416      0.0022
    102  CD1      -21.5040   -6.2800    7.3690 C.3   416  LEU416      0.0001
    103  CD2      -22.4000   -4.4870    5.9280 C.3   416  LEU416      0.0001
    104  N        -15.5960   -2.5220    8.4200 N.3   418  MET418     -0.1245
    105  CA       -15.6290   -2.7640    9.8640 C.3   418  MET418      0.1570
    106  C        -15.1830   -1.4940   10.6090 C.2   418  MET418      0.2261
    107  O        -15.1020   -1.4590   11.8400 O.2   418  MET418     -0.2867
    108  CB       -14.7750   -4.0000   10.2200 C.3   418  MET418      0.0387
    109  CG       -15.4540   -5.3180    9.8730 C.3   418  MET418      0.0595
    110  SD       -17.0510   -5.5680   10.7030 S.3   418  MET418     -0.1393
    111  CE       -18.1290   -5.3980    9.3610 C.3   418  MET418      0.0692
    112  N        -24.1750   -0.9950   11.0590 N.3   427  LEU427     -0.1245
    113  CA       -23.4340   -1.9170   10.1930 C.3   427  LEU427      0.1561
    114  C        -23.7910   -1.7650    8.7120 C.2   427  LEU427      0.2260
    115  O        -22.9030   -1.8990    7.8660 O.2   427  LEU427     -0.2867
    116  CB       -23.8060   -3.3660   10.5850 C.3   427  LEU427      0.0270
    117  CG       -22.8850   -4.2720   11.4070 C.3   427  LEU427      0.0019
    118  CD1      -21.5380   -3.6720   11.7090 C.3   427  LEU427      0.0001
    119  CD2      -23.5980   -4.7860   12.6360 C.3   427  LEU427      0.0001
    120  N        -21.1070  -10.3330   23.6590 N.3   465  TYR465     -0.1241
    121  CA       -20.2290   -9.1360   23.6070 C.3   465  TYR465      0.1605
    122  C        -20.4200   -8.2050   24.7870 C.2   465  TYR465      0.2264
    123  O        -19.6570   -7.2390   24.9560 O.2   465  TYR465     -0.2867
    124  CB       -20.5620   -8.3100   22.3550 C.3   465  TYR465      0.0534
    125  CG       -20.2500   -8.9760   21.0390 C.ar  465  TYR465     -0.0201
    126  CD1      -19.0200   -8.7880   20.4160 C.ar  465  TYR465     -0.0009
    127  CD2      -21.2200   -9.7160   20.3620 C.ar  465  TYR465     -0.0009
    128  CE1      -18.7440   -9.3610   19.1790 C.ar  465  TYR465      0.0417
    129  CE2      -20.9530  -10.2920   19.1240 C.ar  465  TYR465      0.0417
    130  CZ       -19.7170  -10.1040   18.5350 C.ar  465  TYR465      0.1957
    131  OH       -19.4490  -10.6620   17.3190 O.3   465  TYR465     -0.2866
    132  N         -9.0260  -12.2560    6.9210 N.3   495  ASP495     -0.1225
    133  CA        -9.9630  -11.8760    7.9720 C.3   495  ASP495      0.1805
    134  C         -9.3620  -10.5260    8.4200 C.2   495  ASP495      0.2598
    135  O         -8.2660  -10.5130    8.9780 O.2   495  ASP495     -0.2718
    136  CB       -10.0110  -12.8970    9.1320 C.3   495  ASP495      0.1424
    137  CG       -11.1320  -12.6150   10.1220 C.2   495  ASP495      0.3668
    138  OD1      -11.3420  -11.4270   10.4680 O.co2 495  ASP495     -0.2456
    139  OD2      -11.7680  -13.5840   10.5930 O.co2 495  ASP495     -0.2456
    140  N        -10.0270   -9.4030    8.0770 N.am  496  PHE496     -0.1962
    141  CA        -9.4880   -8.0760    8.3740 C.3   496  PHE496      0.1771
    142  C         -9.7280   -7.5410    9.7810 C.2   496  PHE496      0.2619
    143  O         -9.2760   -6.4460   10.0990 O.2   496  PHE496     -0.2715
    144  CB        -9.7000   -7.0570    7.2250 C.3   496  PHE496      0.0574
    145  CG        -9.0890   -7.5020    5.9100 C.ar  496  PHE496     -0.0200
    146  CD1       -7.7210   -7.7300    5.7970 C.ar  496  PHE496     -0.0042
    147  CD2       -9.8800   -7.7070    4.7940 C.ar  496  PHE496     -0.0042
    148  CE1       -7.1650   -8.1640    4.5910 C.ar  496  PHE496     -0.0003
    149  CE2       -9.3210   -8.1380    3.5850 C.ar  496  PHE496     -0.0003
    150  CZ        -7.9720   -8.3700    3.4950 C.ar  496  PHE496     -0.0000
    151  N        -10.3290   -8.3760   10.6560 N.am  497  VAL497     -0.1963
    152  CA       -10.5570   -8.1000   12.0800 C.3   497  VAL497      0.1727
    153  C         -9.7000   -9.1050   12.8840 C.2   497  VAL497      0.2616
    154  O         -8.8710   -8.7000   13.6990 O.2   497  VAL497     -0.2715
    155  CB       -12.0610   -8.1620   12.4600 C.3   497  VAL497      0.0290
    156  CG1      -12.2760   -7.9080   13.9540 C.3   497  VAL497      0.0023
    157  CG2      -12.8660   -7.1750   11.6240 C.3   497  VAL497      0.0023
    158  N         -9.8720  -10.4150   12.6090 N.am  498  LEU498     -0.1977
    159  CA        -9.0720  -11.4650   13.2540 C.3   498  LEU498      0.1596
    160  C         -7.8710  -11.7800   12.3600 C.2   498  LEU498      0.2287
    161  O         -7.7620  -12.8650   11.7900 O.2   498  LEU498     -0.2864
    162  CB        -9.9390  -12.7000   13.6020 C.3   498  LEU498      0.0297
    163  CG       -11.1720  -12.4110   14.4950 C.3   498  LEU498      0.0022
    164  CD1      -12.0540  -13.6330   14.6420 C.3   498  LEU498      0.0001
    165  CD2      -10.7620  -11.9110   15.8760 C.3   498  LEU498      0.0001
    166  N        -13.5200  -13.9820    6.8630 N.3   523  HIS523     -0.1226
    167  CA       -13.9800  -14.3050    8.2070 C.3   523  HIS523      0.1752
    168  C        -14.7630  -15.6110    8.3390 C.2   523  HIS523      0.2596
    169  O        -14.6380  -16.2860    9.3550 O.2   523  HIS523     -0.2718
    170  CB       -14.7790  -13.1430    8.8290 C.3   523  HIS523      0.0759
    171  CG       -15.2700  -13.4550   10.2150 C.ar  523  HIS523      0.0818
    172  ND1      -14.3930  -13.5310   11.2960 N.ar  523  HIS523     -0.2268
    173  CD2      -16.5090  -13.8010   10.6410 C.ar  523  HIS523      0.1154
    174  CE1      -15.1330  -13.8780   12.3360 C.ar  523  HIS523      0.1986
    175  NE2      -16.4080  -14.0520   11.9930 N.ar  523  HIS523     -0.2212
    176  N        -15.5750  -15.9480    7.3360 N.am  524  TRP524     -0.1976
    177  CA       -16.4890  -17.0860    7.3400 C.3   524  TRP524      0.1640
    178  C        -15.7900  -18.3350    6.8590 C.2   524  TRP524      0.2290
    179  O        -16.2600  -19.0220    5.9490 O.2   524  TRP524     -0.2864
    180  CB       -17.7660  -16.7340    6.5600 C.3   524  TRP524      0.0576
    181  CG       -18.2950  -15.3740    6.9070 C.ar  524  TRP524      0.0006
    182  CD1      -18.1300  -14.2280    6.1850 C.ar  524  TRP524      0.0946
    183  CD2      -18.9640  -14.9880    8.1220 C.ar  524  TRP524      0.0152
    184  NE1      -18.6840  -13.1630    6.8490 N.ar  524  TRP524     -0.2442
    185  CE2      -19.2090  -13.5980    8.0380 C.ar  524  TRP524      0.0810
    186  CE3      -19.4020  -15.6830    9.2630 C.ar  524  TRP524      0.0012
    187  CZ2      -19.8710  -12.8900    9.0480 C.ar  524  TRP524      0.0191
    188  CZ3      -20.0640  -14.9800   10.2560 C.ar  524  TRP524      0.0001
    189  CH2      -20.2850  -13.5980   10.1490 C.ar  524  TRP524      0.0015
@<TRIPOS>BOND
     1    81    80    1
     2    82    80    1
     3    80    79    2
     4    95    93    1
     5    83    84    1
     6    86    85    2
     7    79    78    1
     8    78    77    1
     9    85    84    1
    10    85    89   am
    11    93    90    1
    12    93    94    1
    13    84    87    1
    14    90    89    1
    15    90    91    1
    16    76    77    1
    17    76    73    1
    18    73    74    1
    19    73    72    1
    20    74    75    2
    21    87    88    1
    22    92    91    2
    23    91    96   am
    24   150   149   ar
    25   150   148   ar
    26   149   147   ar
    27    58    59    1
    28    96    97    1
    29    59    60    1
    30    59    62    1
    31    63    62    1
    32    61    60    2
    33   148   146   ar
    34    60    64   am
    35   147   145   ar
    36    97    98    1
    37    97   100    1
    38    98    99    2
    39    64    65    1
    40    67    66    2
    41   146   145   ar
    42    66    65    1
    43   145   144    1
    44   103   101    1
    45   179   178    2
    46   101   100    1
    47   101   102    1
    48   182   184   ar
    49   182   181   ar
    50    65    68    1
    51   180   181    1
    52   180   177    1
    53   184   185   ar
    54   178   177    1
    55   166   167    1
    56   181   183   ar
    57   132   133    1
    58   144   141    1
    59   176   177    1
    60   176   168   am
    61    68    69    1
    62   115   114    2
    63   133   134    1
    64   133   136    1
    65   185   183   ar
    66   185   187   ar
    67   140   141    1
    68   140   134   am
    69   183   186   ar
    70   167   168    1
    71   167   170    1
    72   168   169    2
    73   141   142    1
    74   134   135    2
    75   104   105    1
    76   114   113    1
    77    69    71    1
    78    69    70    1
    79   170   171    1
    80   187   189   ar
    81   136   137    1
    82   186   188   ar
    83   111   110    1
    84   142   143    2
    85   142   151   am
    86   105   108    1
    87   105   106    1
    88   109   108    1
    89   109   110    1
    90   137   138   ar
    91   137   139   ar
    92   189   188   ar
    93   113   116    1
    94   113   112    1
    95   171   173   ar
    96   171   172   ar
    97   116   117    1
    98   106   107    2
    99   173   175   ar
   100   151   152    1
   101   172   174   ar
   102   117   118    1
   103   117   119    1
   104    53    52    2
   105   157   155    1
   106   161   160    2
   107   175   174   ar
   108   152   155    1
   109   152   153    1
   110   160   159    1
   111    57    55    1
   112   155   156    1
   113    15    14    2
   114    52    51    1
   115    18    17    1
   116    18    12    1
   117   158   153   am
   118   158   159    1
   119    51    50    1
   120    51    54    1
   121    17    16    1
   122   153   154    2
   123   159   162    1
   124   162   163    1
   125    14    13    1
   126    54    55    1
   127    55    56    1
   128     4     3    2
   129    12     3   am
   130    12    13    1
   131    16    13    1
   132     3     2    1
   133   163   164    1
   134   163   165    1
   135    31    32    1
   136    31    28    1
   137    34    32   ar
   138    34    36   ar
   139    32    33   ar
   140    36    37   ar
   141    23    24    1
   142    23    20    1
   143    25    24   ar
   144     9     7   ar
   145     9    11   ar
   146    33    35   ar
   147     7     6   ar
   148    24    26   ar
   149    49    47   ar
   150    49    48   ar
   151    28    27    1
   152    28    29    1
   153    37    35   ar
   154    37    38    1
   155    19    20    1
   156     2     1    1
   157     2     5    1
   158    47    45   ar
   159    20    21    1
   160    11    10   ar
   161     6     5    1
   162     6     8   ar
   163    48    46   ar
   164    29    30    2
   165   131   130    1
   166    10     8   ar
   167    45    44   ar
   168    21    22    2
   169    46    44   ar
   170    44    43    1
   171   130   129   ar
   172   130   128   ar
   173   129   127   ar
   174   128   126   ar
   175    39    40    1
   176    43    40    1
   177    40    41    1
   178   127   125   ar
   179   126   125   ar
   180   125   124    1
   181    41    42    2
   182   124   121    1
   183   121   120    1
   184   121   122    1
   185   122   123    2
