@<TRIPOS>MOLECULE
tmp/5akiA03.pdb
 181 178 0 0 0
SMALL
GASTEIGER

@<TRIPOS>ATOM
      1  N         20.5410  -15.6220  -15.9310 N.3   263  PHE263     -0.1228
      2  CA        21.6380  -14.6620  -15.7860 C.3   263  PHE263      0.1721
      3  C         21.8080  -14.1830  -14.3440 C.2   263  PHE263      0.2437
      4  O         20.8260  -13.7500  -13.7470 O.2   263  PHE263     -0.2733
      5  CB        21.3900  -13.4300  -16.6910 C.3   263  PHE263      0.0547
      6  CG        22.4430  -12.3390  -16.5570 C.ar  263  PHE263     -0.0202
      7  CD1       22.3350  -11.3590  -15.5720 C.ar  263  PHE263     -0.0042
      8  CD2       23.5340  -12.2880  -17.4230 C.ar  263  PHE263     -0.0042
      9  CE1       23.3270  -10.3820  -15.4180 C.ar  263  PHE263     -0.0003
     10  CE2       24.5110  -11.2890  -17.2880 C.ar  263  PHE263     -0.0003
     11  CZ        24.3950  -10.3400  -16.2870 C.ar  263  PHE263     -0.0000
     12  N         23.0490  -14.0800  -13.8340 N.am  264  PRO264     -0.2729
     13  CA        24.3260  -14.5690  -14.3800 C.3   264  PRO264      0.1401
     14  C         24.6430  -15.8400  -13.5850 C.2   264  PRO264      0.2269
     15  O         25.2100  -15.7720  -12.4920 O.2   264  PRO264     -0.2865
     16  CB        25.2850  -13.4170  -14.0210 C.3   264  PRO264      0.0296
     17  CG        24.6530  -12.7680  -12.7290 C.3   264  PRO264      0.0237
     18  CD        23.2860  -13.4410  -12.5220 C.3   264  PRO264      0.0939
     19  N         14.6230  -17.8900  -15.6600 N.3   331  ASP331     -0.1225
     20  CA        15.1250  -16.6060  -16.1150 C.3   331  ASP331      0.1805
     21  C         15.3580  -16.6600  -17.6260 C.2   331  ASP331      0.2597
     22  O         14.4610  -17.0290  -18.3770 O.2   331  ASP331     -0.2718
     23  CB        16.4140  -16.2630  -15.3670 C.3   331  ASP331      0.1424
     24  CG        16.8370  -14.8260  -15.5620 C.2   331  ASP331      0.3668
     25  OD1       16.2010  -13.9330  -14.9700 O.co2 331  ASP331     -0.2456
     26  OD2       17.8060  -14.5950  -16.3090 O.co2 331  ASP331     -0.2456
     27  N         16.5570  -16.3020  -18.0730 N.am  332  TRP332     -0.1976
     28  CA        16.8600  -16.3380  -19.5010 C.3   332  TRP332      0.1640
     29  C         16.7030  -17.7460  -20.0690 C.2   332  TRP332      0.2290
     30  O         16.2870  -17.9200  -21.2110 O.2   332  TRP332     -0.2864
     31  CB        18.2620  -15.8000  -19.7830 C.3   332  TRP332      0.0576
     32  CG        18.2620  -14.3670  -20.1980 C.ar  332  TRP332      0.0006
     33  CD1       18.7680  -13.3160  -19.5000 C.ar  332  TRP332      0.0946
     34  CD2       17.7140  -13.8210  -21.4040 C.ar  332  TRP332      0.0152
     35  NE1       18.5780  -12.1500  -20.1940 N.ar  332  TRP332     -0.2442
     36  CE2       17.9320  -12.4320  -21.3680 C.ar  332  TRP332      0.0810
     37  CE3       17.0630  -14.3730  -22.5100 C.ar  332  TRP332      0.0012
     38  CZ2       17.5240  -11.5870  -22.3950 C.ar  332  TRP332      0.0191
     39  CZ3       16.6590  -13.5320  -23.5280 C.ar  332  TRP332      0.0001
     40  CH2       16.8910  -12.1550  -23.4640 C.ar  332  TRP332      0.0015
     41  N         13.1300  -18.2400  -20.9880 N.3   335  MET335     -0.1245
     42  CA        12.7850  -17.6600  -22.2780 C.3   335  MET335      0.1570
     43  C         13.2310  -18.6220  -23.3810 C.2   335  MET335      0.2261
     44  O         12.4780  -18.8740  -24.3200 O.2   335  MET335     -0.2867
     45  CB        13.4440  -16.2870  -22.4770 C.3   335  MET335      0.0387
     46  CG        12.9850  -15.6280  -23.7410 C.3   335  MET335      0.0595
     47  SD        11.4470  -14.6900  -23.5240 S.3   335  MET335     -0.1393
     48  CE        10.1700  -15.9510  -23.4560 C.3   335  MET335      0.0692
     49  N          9.9260  -16.9920  -15.5640 N.3   356  THR356     -0.1218
     50  CA         9.8240  -16.3570  -16.8720 C.3   356  THR356      0.1862
     51  C          8.5420  -16.7410  -17.5940 C.2   356  THR356      0.2287
     52  O          8.3150  -17.9110  -17.8820 O.2   356  THR356     -0.2866
     53  CB        11.0220  -16.7150  -17.7650 C.3   356  THR356      0.1770
     54  OG1       12.2400  -16.4140  -17.0760 O.3   356  THR356     -0.2211
     55  CG2       10.9670  -15.9300  -19.0630 C.3   356  THR356      0.0375
     56  N         12.5570   -2.7440  -15.7010 N.3   377  PHE377     -0.1241
     57  CA        13.4750   -3.1950  -16.7600 C.3   377  PHE377      0.1605
     58  C         14.5470   -2.1690  -17.1830 C.2   377  PHE377      0.2264
     59  O         15.1710   -2.3680  -18.2290 O.2   377  PHE377     -0.2867
     60  CB        12.7130   -3.7250  -17.9990 C.3   377  PHE377      0.0534
     61  CG        11.7170   -4.8520  -17.8090 C.ar  377  PHE377     -0.0203
     62  CD1       11.9970   -5.9190  -16.9590 C.ar  377  PHE377     -0.0042
     63  CD2       10.5290   -4.8770  -18.5290 C.ar  377  PHE377     -0.0042
     64  CE1       11.0830   -6.9660  -16.7980 C.ar  377  PHE377     -0.0003
     65  CE2        9.6160   -5.9250  -18.3710 C.ar  377  PHE377     -0.0003
     66  CZ         9.8990   -6.9640  -17.5060 C.ar  377  PHE377     -0.0000
     67  N         17.5420   -1.4850  -15.7830 N.3   379  TYR379     -0.1227
     68  CA        18.8690   -2.1070  -15.7460 C.3   379  TYR379      0.1736
     69  C         19.1990   -2.7490  -17.1310 C.2   379  TYR379      0.2595
     70  O         20.3640   -2.7950  -17.5210 O.2   379  TYR379     -0.2718
     71  CB        18.9510   -3.1430  -14.6000 C.3   379  TYR379      0.0548
     72  CG        18.1160   -4.3820  -14.8510 C.ar  379  TYR379     -0.0200
     73  CD1       16.7420   -4.3810  -14.6210 C.ar  379  TYR379     -0.0009
     74  CD2       18.6940   -5.5450  -15.3530 C.ar  379  TYR379     -0.0009
     75  CE1       15.9620   -5.5020  -14.9020 C.ar  379  TYR379      0.0417
     76  CE2       17.9300   -6.6800  -15.6120 C.ar  379  TYR379      0.0417
     77  CZ        16.5630   -6.6500  -15.3930 C.ar  379  TYR379      0.1957
     78  OH        15.8010   -7.7510  -15.6750 O.3   379  TYR379     -0.2866
     79  N         18.1660   -3.2040  -17.8850 N.am  380  GLN380     -0.1979
     80  CA        18.3870   -3.8050  -19.2100 C.3   380  GLN380      0.1601
     81  C         18.9560   -2.8030  -20.2180 C.2   380  GLN380      0.2287
     82  O         19.7260   -3.2020  -21.0850 O.2   380  GLN380     -0.2864
     83  CB        17.1220   -4.4810  -19.7560 C.3   380  GLN380      0.0394
     84  CG        16.6040   -5.6030  -18.8510 C.3   380  GLN380      0.0908
     85  CD        15.5120   -6.4450  -19.4640 C.2   380  GLN380      0.2608
     86  OE1       15.4260   -6.6140  -20.6800 O.2   380  GLN380     -0.2717
     87  NE2       14.7220   -7.0840  -18.6200 N.am  380  GLN380     -0.0878
     88  N         22.5710   -2.5190  -19.6060 N.3   383  PHE383     -0.1241
     89  CA        23.2850   -3.6860  -20.1340 C.3   383  PHE383      0.1605
     90  C         23.5810   -3.6180  -21.6290 C.2   383  PHE383      0.2264
     91  O         24.3440   -4.4560  -22.1230 O.2   383  PHE383     -0.2867
     92  CB        22.4730   -4.9700  -19.8190 C.3   383  PHE383      0.0534
     93  CG        22.4480   -5.4520  -18.3820 C.ar  383  PHE383     -0.0203
     94  CD1       23.1800   -4.7980  -17.3920 C.ar  383  PHE383     -0.0042
     95  CD2       21.7050   -6.5710  -18.0210 C.ar  383  PHE383     -0.0042
     96  CE1       23.1780   -5.2640  -16.0780 C.ar  383  PHE383     -0.0003
     97  CE2       21.6760   -7.0180  -16.6960 C.ar  383  PHE383     -0.0003
     98  CZ        22.4290   -6.3780  -15.7340 C.ar  383  PHE383     -0.0000
     99  N         23.9100   -9.8970   -5.7300 N.3   404  LEU404     -0.1245
    100  CA        22.8240  -10.4650   -6.5280 C.3   404  LEU404      0.1561
    101  C         22.0330  -11.5760   -5.8330 C.2   404  LEU404      0.2260
    102  O         20.7970  -11.5410   -5.8290 O.2   404  LEU404     -0.2867
    103  CB        23.3870  -10.9830   -7.8850 C.3   404  LEU404      0.0270
    104  CG        23.8370   -9.9290   -8.8830 C.3   404  LEU404      0.0019
    105  CD1       24.6130  -10.5660  -10.0130 C.3   404  LEU404      0.0001
    106  CD2       22.6700   -9.1190   -9.4250 C.3   404  LEU404      0.0001
    107  N         19.6670   -4.1690   -3.7630 N.3   413  LEU413     -0.1245
    108  CA        19.5850   -3.4670   -5.0490 C.3   413  LEU413      0.1561
    109  C         18.1880   -2.8950   -5.3350 C.2   413  LEU413      0.2260
    110  O         17.1750   -3.4570   -4.9120 O.2   413  LEU413     -0.2867
    111  CB        20.0010   -4.3850   -6.2260 C.3   413  LEU413      0.0270
    112  CG        21.3520   -5.1110   -6.1640 C.3   413  LEU413      0.0019
    113  CD1       21.5550   -5.9630   -7.3950 C.3   413  LEU413      0.0001
    114  CD2       22.5100   -4.1460   -6.0190 C.3   413  LEU413      0.0001
    115  N         16.5650   -1.8010   -8.8680 N.3   415  MET415     -0.1245
    116  CA        16.6950   -1.7970  -10.3280 C.3   415  MET415      0.1570
    117  C         16.0360   -0.6660  -11.1260 C.2   415  MET415      0.2261
    118  O         16.1270   -0.6530  -12.3620 O.2   415  MET415     -0.2867
    119  CB        16.4490   -3.1810  -10.9250 C.3   415  MET415      0.0387
    120  CG        17.6240   -4.1080  -10.7500 C.3   415  MET415      0.0595
    121  SD        17.0310   -5.7790  -10.5070 S.3   415  MET415     -0.1393
    122  CE        16.8210   -5.7960   -8.7250 C.3   415  MET415      0.0692
    123  N         24.5790   -0.7750  -11.2770 N.3   424  LEU424     -0.1245
    124  CA        23.7870   -1.7070  -10.4720 C.3   424  LEU424      0.1561
    125  C         24.1440   -1.5870   -9.0070 C.2   424  LEU424      0.2260
    126  O         23.2590   -1.6970   -8.1570 O.2   424  LEU424     -0.2867
    127  CB        24.0640   -3.1720  -10.9050 C.3   424  LEU424      0.0270
    128  CG        23.0190   -3.9390  -11.7360 C.3   424  LEU424      0.0019
    129  CD1       21.6530   -3.9880  -11.0600 C.3   424  LEU424      0.0001
    130  CD2       22.9060   -3.3790  -13.1260 C.3   424  LEU424      0.0001
    131  N         21.2970  -10.1900  -23.5840 N.3   462  TYR462     -0.1241
    132  CA        20.4230   -9.0010  -23.5710 C.3   462  TYR462      0.1605
    133  C         20.5590   -8.0760  -24.7900 C.2   462  TYR462      0.2264
    134  O         19.7720   -7.1180  -24.9260 O.2   462  TYR462     -0.2867
    135  CB        20.8210   -8.1510  -22.3410 C.3   462  TYR462      0.0534
    136  CG        20.4560   -8.7290  -20.9940 C.ar  462  TYR462     -0.0201
    137  CD1       19.2410   -8.4180  -20.3890 C.ar  462  TYR462     -0.0009
    138  CD2       21.3700   -9.4860  -20.2700 C.ar  462  TYR462     -0.0009
    139  CE1       18.9380   -8.8640  -19.1030 C.ar  462  TYR462      0.0417
    140  CE2       21.0690   -9.9620  -18.9980 C.ar  462  TYR462      0.0417
    141  CZ        19.8580   -9.6390  -18.4140 C.ar  462  TYR462      0.1957
    142  OH        19.5900  -10.0920  -17.1570 O.3   462  TYR462     -0.2866
    143  N         11.0320   -8.5970  -10.6130 N.3   494  VAL494     -0.1231
    144  CA        11.3900   -8.3460  -12.0090 C.3   494  VAL494      0.1692
    145  C         10.4210   -9.1700  -12.8820 C.2   494  VAL494      0.2591
    146  O          9.7170   -8.6160  -13.7350 O.2   494  VAL494     -0.2718
    147  CB        12.8830   -8.6620  -12.3140 C.3   494  VAL494      0.0266
    148  CG1       13.1740   -8.5190  -13.8080 C.3   494  VAL494      0.0020
    149  CG2       13.8190   -7.7710  -11.4930 C.3   494  VAL494      0.0020
    150  N         10.3810  -10.4860  -12.6450 N.am  495  LEU495     -0.1980
    151  CA         9.4880  -11.4100  -13.3530 C.3   495  LEU495      0.1596
    152  C          8.2960  -11.6680  -12.4530 C.2   495  LEU495      0.2287
    153  O          8.2040  -12.7060  -11.7860 O.2   495  LEU495     -0.2864
    154  CB        10.2380  -12.7120  -13.7300 C.3   495  LEU495      0.0297
    155  CG        11.4510  -12.5140  -14.6580 C.3   495  LEU495      0.0022
    156  CD1       12.1870  -13.8460  -14.8560 C.3   495  LEU495      0.0001
    157  CD2       11.0110  -11.9250  -16.0250 C.3   495  LEU495      0.0001
    158  N         13.5110  -13.9380   -6.8440 N.3   520  HIS520     -0.1226
    159  CA        13.9980  -14.2550   -8.1820 C.3   520  HIS520      0.1752
    160  C         14.8130  -15.5520   -8.2720 C.2   520  HIS520      0.2596
    161  O         14.7830  -16.2050   -9.3180 O.2   520  HIS520     -0.2718
    162  CB        14.8280  -13.0800   -8.7550 C.3   520  HIS520      0.0759
    163  CG        15.3090  -13.3560  -10.1510 C.ar  520  HIS520      0.0818
    164  ND1       14.4270  -13.3790  -11.2240 N.ar  520  HIS520     -0.2268
    165  CD2       16.5370  -13.7310  -10.5850 C.ar  520  HIS520      0.1154
    166  CE1       15.1510  -13.7320  -12.2750 C.ar  520  HIS520      0.1986
    167  NE2       16.4310  -13.9360  -11.9450 N.ar  520  HIS520     -0.2212
    168  N         15.5990  -15.8820   -7.2290 N.am  521  TRP521     -0.1976
    169  CA        16.5390  -17.0300   -7.2630 C.3   521  TRP521      0.1640
    170  C         15.8710  -18.3060   -6.7710 C.2   521  TRP521      0.2290
    171  O         16.3300  -18.9480   -5.8270 O.2   521  TRP521     -0.2864
    172  CB        17.8280  -16.6760   -6.4930 C.3   521  TRP521      0.0576
    173  CG        18.3390  -15.2990   -6.8130 C.ar  521  TRP521      0.0006
    174  CD1       18.1750  -14.1690   -6.0620 C.ar  521  TRP521      0.0946
    175  CD2       18.9840  -14.8860   -8.0250 C.ar  521  TRP521      0.0152
    176  NE1       18.7200  -13.0860   -6.7110 N.ar  521  TRP521     -0.2442
    177  CE2       19.2320  -13.4970   -7.9160 C.ar  521  TRP521      0.0810
    178  CE3       19.3870  -15.5570   -9.1940 C.ar  521  TRP521      0.0012
    179  CZ2       19.8350  -12.7610   -8.9430 C.ar  521  TRP521      0.0191
    180  CZ3       20.0280  -14.8350  -10.1870 C.ar  521  TRP521      0.0001
    181  CH2       20.2500  -13.4550  -10.0580 C.ar  521  TRP521      0.0015
@<TRIPOS>BOND
     1   134   133    2
     2   133   132    1
     3    44    43    2
     4    46    47    1
     5    46    45    1
     6   131   132    1
     7   132   135    1
     8    39    40   ar
     9    39    37   ar
    10    47    48    1
    11    40    38   ar
    12    43    42    1
    13    37    34   ar
    14    45    42    1
    15    38    36   ar
    16   135   136    1
    17    42    41    1
    18    91    90    2
    19    90    89    1
    20    34    36   ar
    21    34    32   ar
    22    36    35   ar
    23    30    29    2
    24    82    81    2
    25   136   137   ar
    26   136   138   ar
    27    86    85    2
    28   137   139   ar
    29   138   140   ar
    30    81    80    1
    31    32    31    1
    32    32    33   ar
    33    35    33   ar
    34    89    92    1
    35    89    88    1
    36    29    28    1
    37    92    93    1
    38    31    28    1
    39    83    80    1
    40    83    84    1
    41    28    27    1
    42    85    84    1
    43    85    87   am
    44    80    79    1
    45   139   141   ar
    46    55    53    1
    47   140   141   ar
    48    63    65   ar
    49    63    61   ar
    50   141   142    1
    51    93    95   ar
    52    93    94   ar
    53    22    21    2
    54    65    66   ar
    55    59    58    2
    56    27    21   am
    57    95    97   ar
    58    60    61    1
    59    60    57    1
    60    79    69   am
    61    52    51    2
    62    61    62   ar
    63    53    54    1
    64    53    50    1
    65    21    20    1
    66    51    50    1
    67    70    69    2
    68    66    64   ar
    69     8    10   ar
    70     8     6   ar
    71    94    96   ar
    72    10    11   ar
    73    58    57    1
    74    69    68    1
    75    62    64   ar
    76    50    49    1
    77    57    56    1
    78    97    98   ar
    79     5     6    1
    80     5     2    1
    81     6     7   ar
    82    26    24   ar
    83    11     9   ar
    84    20    19    1
    85    20    23    1
    86    96    98   ar
    87   157   155    1
    88     1     2    1
    89     2     3    1
    90    67    68    1
    91    68    71    1
    92    78    77    1
    93    76    77   ar
    94    76    74   ar
    95     7     9   ar
    96    24    23    1
    97    24    25   ar
    98    77    75   ar
    99    74    72   ar
   100    75    73   ar
   101   156   155    1
   102    72    73   ar
   103    72    71    1
   104   155   154    1
   105    13    16    1
   106    13    12    1
   107    13    14    1
   108     3    12   am
   109     3     4    2
   110    16    17    1
   111    12    18    1
   112   148   147    1
   113   146   145    2
   114   154   151    1
   115    14    15    2
   116   151   150    1
   117   151   152    1
   118   130   128    1
   119   145   150   am
   120   145   144    1
   121    17    18    1
   122   152   153    2
   123   118   117    2
   124   147   144    1
   125   147   149    1
   126   166   167   ar
   127   166   164   ar
   128   144   143    1
   129   167   165   ar
   130   128   129    1
   131   128   127    1
   132   123   124    1
   133   164   163   ar
   134   117   116    1
   135   119   120    1
   136   119   116    1
   137   127   124    1
   138   120   121    1
   139   165   163   ar
   140   121   122    1
   141   124   125    1
   142   116   115    1
   143   180   181   ar
   144   180   178   ar
   145   163   162    1
   146   181   179   ar
   147   105   104    1
   148   106   104    1
   149   161   160    2
   150   178   175   ar
   151   125   126    2
   152   179   177   ar
   153   104   103    1
   154   162   159    1
   155   160   159    1
   156   160   168   am
   157   159   158    1
   158   175   177   ar
   159   175   173   ar
   160   177   176   ar
   161   103   100    1
   162   113   112    1
   163   169   168    1
   164   169   170    1
   165   169   172    1
   166   173   172    1
   167   173   174   ar
   168   170   171    2
   169   176   174   ar
   170   100   101    1
   171   100    99    1
   172   111   112    1
   173   111   108    1
   174   112   114    1
   175   101   102    2
   176   109   108    1
   177   109   110    2
   178   108   107    1
