@<TRIPOS>MOLECULE
tmp/5akjA00.pdb
 173 171 0 0 0
SMALL
GASTEIGER

@<TRIPOS>ATOM
      1  N         20.2490   15.7010   15.9190 N.3   266  PHE266     -0.1228
      2  CA        21.3040   14.7180   15.8250 C.3   266  PHE266      0.1721
      3  C         21.4810   14.2060   14.3850 C.2   266  PHE266      0.2437
      4  O         20.4900   13.7670   13.7880 O.2   266  PHE266     -0.2733
      5  CB        21.0470   13.5330   16.7880 C.3   266  PHE266      0.0547
      6  CG        21.9900   12.3610   16.5770 C.ar  266  PHE266     -0.0202
      7  CD1       21.7090   11.3810   15.6240 C.ar  266  PHE266     -0.0042
      8  CD2       23.1680   12.2450   17.3200 C.ar  266  PHE266     -0.0042
      9  CE1       22.5940   10.3260   15.3920 C.ar  266  PHE266     -0.0003
     10  CE2       24.0410   11.1630   17.1140 C.ar  266  PHE266     -0.0003
     11  CZ        23.7450   10.2130   16.1500 C.ar  266  PHE266     -0.0000
     12  N         22.7270   14.1500   13.8570 N.am  267  PRO267     -0.2729
     13  CA        24.0030   14.6010   14.4290 C.3   267  PRO267      0.1401
     14  C         24.3580   15.8760   13.6620 C.2   267  PRO267      0.2269
     15  O         24.9270   15.8330   12.5700 O.2   267  PRO267     -0.2865
     16  CB        24.9260   13.4100   14.1150 C.3   267  PRO267      0.0296
     17  CG        24.3200   12.7820   12.8000 C.3   267  PRO267      0.0237
     18  CD        22.9850   13.5130   12.5520 C.3   267  PRO267      0.0939
     19  N         14.3820   17.8640   15.7050 N.3   334  ASP334     -0.1225
     20  CA        14.8480   16.5410   16.1400 C.3   334  ASP334      0.1805
     21  C         15.1480   16.5430   17.6600 C.2   334  ASP334      0.2597
     22  O         14.2390   16.8520   18.4270 O.2   334  ASP334     -0.2718
     23  CB        16.0290   16.0830   15.2350 C.3   334  ASP334      0.1424
     24  CG        16.5850   14.7250   15.5630 C.2   334  ASP334      0.3668
     25  OD1       15.9620   13.7290   15.1760 O.co2 334  ASP334     -0.2456
     26  OD2       17.6270   14.6620   16.2420 O.co2 334  ASP334     -0.2456
     27  N         16.4060   16.2690   18.1070 N.am  335  TRP335     -0.1976
     28  CA        16.7620   16.3370   19.5240 C.3   335  TRP335      0.1640
     29  C         16.5720   17.7260   20.1200 C.2   335  TRP335      0.2290
     30  O         16.1610   17.8290   21.2720 O.2   335  TRP335     -0.2864
     31  CB        18.1680   15.7790   19.8300 C.3   335  TRP335      0.0576
     32  CG        18.1460   14.3500   20.2990 C.ar  335  TRP335      0.0006
     33  CD1       18.6640   13.2740   19.6440 C.ar  335  TRP335      0.0946
     34  CD2       17.4630   13.8270   21.4490 C.ar  335  TRP335      0.0152
     35  NE1       18.4280   12.1260   20.3640 N.ar  335  TRP335     -0.2442
     36  CE2       17.6750   12.4310   21.4600 C.ar  335  TRP335      0.0810
     37  CE3       16.7450   14.4110   22.5050 C.ar  335  TRP335      0.0012
     38  CZ2       17.1680   11.6040   22.4640 C.ar  335  TRP335      0.0191
     39  CZ3       16.2600   13.5870   23.5130 C.ar  335  TRP335      0.0001
     40  CH2       16.4860   12.1970   23.4920 C.ar  335  TRP335      0.0015
     41  N         12.9480   18.1750   20.9400 N.3   338  MET338     -0.1245
     42  CA        12.6160   17.5750   22.2340 C.3   338  MET338      0.1570
     43  C         13.0080   18.5420   23.3680 C.2   338  MET338      0.2261
     44  O         12.2410   18.7340   24.3070 O.2   338  MET338     -0.2867
     45  CB        13.3110   16.2180   22.4420 C.3   338  MET338      0.0387
     46  CG        12.8250   15.4880   23.6710 C.3   338  MET338      0.0595
     47  SD        11.2820   14.5620   23.3770 S.3   338  MET338     -0.1393
     48  CE        10.1110   15.7680   23.8020 C.3   338  MET338      0.0692
     49  N          9.7070   16.9160   15.6790 N.3   359  THR359     -0.1218
     50  CA         9.6080   16.3120   17.0050 C.3   359  THR359      0.1862
     51  C          8.2890   16.6010   17.6770 C.2   359  THR359      0.2287
     52  O          8.0060   17.7480   17.9800 O.2   359  THR359     -0.2866
     53  CB        10.7930   16.6600   17.9140 C.3   359  THR359      0.1770
     54  OG1       11.9730   16.5770   17.1400 O.3   359  THR359     -0.2211
     55  CG2       10.8920   15.7150   19.1360 C.3   359  THR359      0.0375
     56  N         11.4120    2.8690   16.9110 N.3   380  PHE380     -0.1241
     57  CA        12.5570    3.3710   17.6690 C.3   380  PHE380      0.1605
     58  C         13.5710    2.3110   18.0420 C.2   380  PHE380      0.2264
     59  O         14.4480    2.5620   18.8640 O.2   380  PHE380     -0.2867
     60  CB        12.0600    4.1600   18.8830 C.3   380  PHE380      0.0534
     61  CG        11.3000    5.3580   18.3800 C.ar  380  PHE380     -0.0203
     62  CD1       11.9440    6.3460   17.6410 C.ar  380  PHE380     -0.0042
     63  CD2        9.9260    5.4530   18.5630 C.ar  380  PHE380     -0.0042
     64  CE1       11.2420    7.4340   17.1530 C.ar  380  PHE380     -0.0003
     65  CE2        9.2230    6.5460   18.0750 C.ar  380  PHE380     -0.0003
     66  CZ         9.8860    7.5250   17.3660 C.ar  380  PHE380     -0.0000
     67  N         16.2080    0.9310   16.3940 N.3   382  TYR382     -0.1227
     68  CA        17.5750    1.3650   16.1050 C.3   382  TYR382      0.1736
     69  C         18.2040    2.1430   17.2960 C.2   382  TYR382      0.2595
     70  O         19.4290    2.1750   17.4000 O.2   382  TYR382     -0.2718
     71  CB        17.5770    2.2470   14.8250 C.3   382  TYR382      0.0548
     72  CG        16.9560    3.6120   15.0510 C.ar  382  TYR382     -0.0200
     73  CD1       15.5790    3.7950   14.9680 C.ar  382  TYR382     -0.0009
     74  CD2       17.7390    4.7030   15.4240 C.ar  382  TYR382     -0.0009
     75  CE1       14.9960    5.0260   15.2550 C.ar  382  TYR382      0.0417
     76  CE2       17.1690    5.9380   15.7070 C.ar  382  TYR382      0.0417
     77  CZ        15.7980    6.0980   15.6010 C.ar  382  TYR382      0.1957
     78  OH        15.2340    7.3060   15.8860 O.3   382  TYR382     -0.2866
     79  N         17.3770    2.8400   18.1360 N.am  383  GLN383     -0.1979
     80  CA        17.8990    3.6100   19.2800 C.3   383  GLN383      0.1601
     81  C         18.6140    2.7010   20.2650 C.2   383  GLN383      0.2287
     82  O         19.5010    3.1570   20.9650 O.2   383  GLN383     -0.2864
     83  CB        16.8210    4.4560   19.9860 C.3   383  GLN383      0.0394
     84  CG        16.1460    5.4520   19.0580 C.3   383  GLN383      0.0908
     85  CD        15.3660    6.5300   19.7670 C.2   383  GLN383      0.2608
     86  OE1       15.2800    6.5770   20.9840 O.2   383  GLN383     -0.2717
     87  NE2       14.7850    7.4250   19.0060 N.am  383  GLN383     -0.0878
     88  N         22.2600    2.5790   19.5580 N.3   386  PHE386     -0.1241
     89  CA        22.9310    3.7770   20.0800 C.3   386  PHE386      0.1605
     90  C         23.2810    3.7120   21.5490 C.2   386  PHE386      0.2264
     91  O         23.9970    4.5850   22.0310 O.2   386  PHE386     -0.2867
     92  CB        22.0670    5.0310   19.8360 C.3   386  PHE386      0.0534
     93  CG        21.8760    5.4340   18.3980 C.ar  386  PHE386     -0.0203
     94  CD1       22.6680    4.8860   17.3930 C.ar  386  PHE386     -0.0042
     95  CD2       20.9080    6.3690   18.0450 C.ar  386  PHE386     -0.0042
     96  CE1       22.4920    5.2580   16.0740 C.ar  386  PHE386     -0.0003
     97  CE2       20.7330    6.7420   16.7210 C.ar  386  PHE386     -0.0003
     98  CZ        21.5310    6.1900   15.7440 C.ar  386  PHE386     -0.0000
     99  N         23.5120    9.8440    5.7970 N.3   407  LEU407     -0.1245
    100  CA        22.4360   10.4270    6.5940 C.3   407  LEU407      0.1561
    101  C         21.6420   11.5100    5.8840 C.2   407  LEU407      0.2260
    102  O         20.4150   11.4330    5.8180 O.2   407  LEU407     -0.2867
    103  CB        23.0260   10.9990    7.8880 C.3   407  LEU407      0.0270
    104  CG        23.4790    9.9720    8.9090 C.3   407  LEU407      0.0019
    105  CD1       24.3460   10.6190    9.9550 C.3   407  LEU407      0.0001
    106  CD2       22.3010    9.2600    9.5310 C.3   407  LEU407      0.0001
    107  N         15.7870    2.7740    8.9640 N.3   418  MET418     -0.1245
    108  CA        16.0490    2.6300   10.3960 C.3   418  MET418      0.1570
    109  C         15.5600    1.2940   10.9100 C.2   418  MET418      0.2261
    110  O         15.9490    0.8760   12.0000 O.2   418  MET418     -0.2867
    111  CB        15.4830    3.8020   11.2170 C.3   418  MET418      0.0387
    112  CG        16.2290    5.1150   11.0070 C.3   418  MET418      0.0595
    113  SD        18.0050    5.0530   11.3360 S.3   418  MET418     -0.1393
    114  CE        18.6110    4.9120    9.6720 C.3   418  MET418      0.0692
    115  N         24.1720    1.0670   11.1850 N.3   427  LEU427     -0.1245
    116  CA        23.4100    2.0300   10.3840 C.3   427  LEU427      0.1561
    117  C         23.6830    1.8930    8.9140 C.2   427  LEU427      0.2260
    118  O         22.7840    2.1020    8.1040 O.2   427  LEU427     -0.2867
    119  CB        23.8210    3.4750   10.7610 C.3   427  LEU427      0.0270
    120  CG        23.0130    4.2660   11.7790 C.3   427  LEU427      0.0019
    121  CD1       21.5340    4.1350   11.5540 C.3   427  LEU427      0.0001
    122  CD2       23.3810    3.8900   13.1580 C.3   427  LEU427      0.0001
    123  N         20.8840   10.1860   23.5240 N.3   465  TYR465     -0.1241
    124  CA        20.0460    8.9660   23.4890 C.3   465  TYR465      0.1605
    125  C         20.2690    8.0580   24.7040 C.2   465  TYR465      0.2264
    126  O         19.5770    7.0540   24.8610 O.2   465  TYR465     -0.2867
    127  CB        20.4360    8.1080   22.2650 C.3   465  TYR465      0.0534
    128  CG        20.0770    8.7030   20.9300 C.ar  465  TYR465     -0.0201
    129  CD1       18.8000    8.5470   20.3930 C.ar  465  TYR465     -0.0009
    130  CD2       21.0270    9.3830   20.1710 C.ar  465  TYR465     -0.0009
    131  CE1       18.4830    9.0490   19.1320 C.ar  465  TYR465      0.0417
    132  CE2       20.7110    9.9160   18.9270 C.ar  465  TYR465      0.0417
    133  CZ        19.4430    9.7380   18.4100 C.ar  465  TYR465      0.1957
    134  OH        19.1570   10.2600   17.1860 O.3   465  TYR465     -0.2866
    135  N         10.7990    8.5280   10.7690 N.3   497  VAL497     -0.1231
    136  CA        11.1700    8.2690   12.1470 C.3   497  VAL497      0.1692
    137  C         10.2840    9.1340   13.0490 C.2   497  VAL497      0.2591
    138  O          9.6490    8.6130   13.9650 O.2   497  VAL497     -0.2718
    139  CB        12.6930    8.4500   12.3740 C.3   497  VAL497      0.0266
    140  CG1       13.0540    8.2970   13.8420 C.3   497  VAL497      0.0020
    141  CG2       13.4820    7.4530   11.5280 C.3   497  VAL497      0.0020
    142  N         10.1840   10.4380   12.7270 N.am  498  LEU498     -0.1980
    143  CA         9.3430   11.3970   13.4500 C.3   498  LEU498      0.1596
    144  C          8.1760   11.6820   12.5480 C.2   498  LEU498      0.2287
    145  O          8.1300   12.6990   11.8590 O.2   498  LEU498     -0.2864
    146  CB        10.1320   12.6750   13.8260 C.3   498  LEU498      0.0297
    147  CG        11.4780   12.4560   14.5750 C.3   498  LEU498      0.0022
    148  CD1       12.2300   13.7900   14.7580 C.3   498  LEU498      0.0001
    149  CD2       11.2820   11.7520   15.9170 C.3   498  LEU498      0.0001
    150  N         13.3080   13.9180    6.7680 N.3   523  HIS523     -0.1226
    151  CA        13.7670   14.2210    8.1240 C.3   523  HIS523      0.1752
    152  C         14.5570   15.5220    8.2600 C.2   523  HIS523      0.2596
    153  O         14.4710   16.1750    9.2950 O.2   523  HIS523     -0.2718
    154  CB        14.5820   13.0370    8.6910 C.3   523  HIS523      0.0759
    155  CG        15.1580   13.3210   10.0450 C.ar  523  HIS523      0.0818
    156  ND1       14.3570   13.2690   11.1840 N.ar  523  HIS523     -0.2268
    157  CD2       16.3880   13.7630   10.3870 C.ar  523  HIS523      0.1154
    158  CE1       15.1340   13.6460   12.1780 C.ar  523  HIS523      0.1986
    159  NE2       16.3640   13.9590   11.7550 N.ar  523  HIS523     -0.2212
    160  N         15.3690   15.8640    7.2480 N.am  524  TRP524     -0.1976
    161  CA        16.2770   17.0210    7.2880 C.3   524  TRP524      0.1640
    162  C         15.5640   18.2710    6.8050 C.2   524  TRP524      0.2290
    163  O         16.0100   18.9320    5.8790 O.2   524  TRP524     -0.2864
    164  CB        17.6020   16.7020    6.5520 C.3   524  TRP524      0.0576
    165  CG        18.0960   15.3160    6.8790 C.ar  524  TRP524      0.0006
    166  CD1       17.8440   14.1800    6.1650 C.ar  524  TRP524      0.0946
    167  CD2       18.7660   14.8950    8.0770 C.ar  524  TRP524      0.0152
    168  NE1       18.3770   13.0930    6.8080 N.ar  524  TRP524     -0.2442
    169  CE2       18.9450   13.4960    7.9840 C.ar  524  TRP524      0.0810
    170  CE3       19.2900   15.5720    9.1960 C.ar  524  TRP524      0.0012
    171  CZ2       19.5900   12.7530    8.9740 C.ar  524  TRP524      0.0191
    172  CZ3       19.9080   14.8220   10.1920 C.ar  524  TRP524      0.0001
    173  CH2       20.0840   13.4300   10.0550 C.ar  524  TRP524      0.0015
@<TRIPOS>BOND
     1    99   100    1
     2   102   101    2
     3   163   162    2
     4   101   100    1
     5   166   168   ar
     6   166   165   ar
     7   164   165    1
     8   164   161    1
     9   100   103    1
    10   150   151    1
    11   162   161    1
    12   168   169   ar
    13   165   167   ar
    14   160   161    1
    15   160   152   am
    16   103   104    1
    17   169   167   ar
    18   169   171   ar
    19   167   170   ar
    20   118   117    2
    21   151   152    1
    22   151   154    1
    23   152   153    2
    24   154   155    1
    25   104   106    1
    26   104   105    1
    27   117   116    1
    28   107   108    1
    29   171   173   ar
    30   170   172   ar
    31   114   113    1
    32   155   157   ar
    33   155   156   ar
    34   173   172   ar
    35   116   119    1
    36   116   115    1
    37   157   159   ar
    38   108   109    1
    39   108   111    1
    40   119   120    1
    41   135   136    1
    42   109   110    2
    43   112   111    1
    44   112   113    1
    45   156   158   ar
    46   141   139    1
    47   121   120    1
    48   159   158   ar
    49   120   122    1
    50   145   144    2
    51   136   139    1
    52   136   137    1
    53   139   140    1
    54   144   143    1
    55    18    17    1
    56    18    12    1
    57    15    14    2
    58   142   137   am
    59   142   143    1
    60    17    16    1
    61   137   138    2
    62   143   146    1
    63    14    13    1
    64     4     3    2
    65   146   147    1
    66    12     3   am
    67    12    13    1
    68    16    13    1
    69     3     2    1
    70   147   148    1
    71   147   149    1
    72    71    72    1
    73    71    68    1
    74    73    72   ar
    75    73    75   ar
    76    72    74   ar
    77    25    24   ar
    78    23    24    1
    79    23    20    1
    80    75    77   ar
    81     9     7   ar
    82     9    11   ar
    83    74    76   ar
    84    24    26   ar
    85    77    76   ar
    86    77    78    1
    87     7     6   ar
    88    49    50    1
    89    19    20    1
    90    98    96   ar
    91    98    97   ar
    92     2     1    1
    93     2     5    1
    94    96    94   ar
    95    68    67    1
    96    68    69    1
    97    20    21    1
    98    11    10   ar
    99     6     5    1
   100     6     8   ar
   101    97    95   ar
   102    56    57    1
   103    50    51    1
   104    50    53    1
   105    10     8   ar
   106    54    53    1
   107    64    66   ar
   108    64    62   ar
   109   134   133    1
   110    69    70    2
   111    69    79   am
   112    66    65   ar
   113    94    93   ar
   114    62    61   ar
   115    21    27   am
   116    21    22    2
   117    57    58    1
   118    57    60    1
   119    51    52    2
   120    53    55    1
   121    58    59    2
   122    95    93   ar
   123    65    63   ar
   124    27    28    1
   125    79    80    1
   126    61    63   ar
   127    61    60    1
   128    93    92    1
   129   133   132   ar
   130   133   131   ar
   131   132   130   ar
   132    87    85   am
   133    84    85    1
   134    84    83    1
   135   131   129   ar
   136    80    83    1
   137    80    81    1
   138    28    31    1
   139    28    29    1
   140    88    89    1
   141    33    32   ar
   142    33    35   ar
   143    85    86    2
   144    31    32    1
   145    92    89    1
   146    89    90    1
   147    29    30    2
   148   130   128   ar
   149    81    82    2
   150    32    34   ar
   151    35    36   ar
   152   129   128   ar
   153   128   127    1
   154    41    42    1
   155    34    36   ar
   156    34    37   ar
   157    36    38   ar
   158    90    91    2
   159    42    45    1
   160    42    43    1
   161   127   124    1
   162    45    46    1
   163    38    40   ar
   164    37    39   ar
   165    43    44    2
   166    47    46    1
   167    47    48    1
   168   124   123    1
   169   124   125    1
   170    40    39   ar
   171   125   126    2
