@<TRIPOS>MOLECULE
tmp/5akkA00.pdb
 111 112 0 0 0
SMALL
GASTEIGER

@<TRIPOS>ATOM
      1  N         18.0090  -15.7450  -30.2210 N.3   306  MET306     -0.1196
      2  CA        17.1970  -16.9270  -29.9010 C.3   306  MET306      0.1786
      3  C         17.2470  -18.0160  -30.9840 C.2   306  MET306      0.2306
      4  O         17.3430  -19.2030  -30.6560 O.2   306  MET306     -0.2863
      5  CB        15.7570  -16.5380  -29.5860 C.2   306  MET306      0.0070
      6  CG        15.1880  -17.1310  -28.2860 C.2   306  MET306      0.0282
      7  SD        16.1840  -18.2350  -27.2340 S.3   306  MET306     -0.1125
      8  CE        16.4980  -17.1640  -25.8850 C.3   306  MET306      0.0742
      9  N         16.0390  -16.2390  -18.7130 N.3   332  TRP332     -0.1241
     10  CA        16.3440  -16.3630  -20.1390 C.3   332  TRP332      0.1605
     11  C         16.1780  -17.8050  -20.6500 C.2   332  TRP332      0.2264
     12  O         15.7340  -17.9860  -21.7750 O.2   332  TRP332     -0.2867
     13  CB        17.7480  -15.8350  -20.4600 C.3   332  TRP332      0.0550
     14  CG        17.7180  -14.4500  -21.0380 C.ar  332  TRP332      0.0003
     15  CD1       18.2440  -13.3290  -20.4760 C.ar  332  TRP332      0.0946
     16  CD2       17.0420  -14.0240  -22.2340 C.ar  332  TRP332      0.0152
     17  NE1       17.9940  -12.2360  -21.2760 N.ar  332  TRP332     -0.2442
     18  CE2       17.2540  -12.6310  -22.3590 C.ar  332  TRP332      0.0810
     19  CE3       16.3180  -14.6880  -23.2410 C.ar  332  TRP332      0.0012
     20  CZ2       16.7420  -11.8860  -23.4280 C.ar  332  TRP332      0.0191
     21  CZ3       15.8340  -13.9530  -24.3150 C.ar  332  TRP332      0.0001
     22  CH2       16.0300  -12.5660  -24.3920 C.ar  332  TRP332      0.0015
     23  N         12.6420  -18.3770  -21.4400 N.3   335  MET335     -0.1245
     24  CA        12.3090  -17.8080  -22.7370 C.3   335  MET335      0.1570
     25  C         12.7640  -18.7510  -23.8620 C.2   335  MET335      0.2261
     26  O         12.0160  -18.9730  -24.8020 O.2   335  MET335     -0.2867
     27  CB        12.9090  -16.4070  -22.9220 C.3   335  MET335      0.0387
     28  CG        12.2740  -15.6470  -24.0760 C.3   335  MET335      0.0595
     29  SD        10.6480  -14.9090  -23.7010 S.3   335  MET335     -0.1393
     30  CE         9.5810  -16.2840  -23.7300 C.3   335  MET335      0.0692
     31  N         10.3760  -20.9420  -26.9720 N.3   339  TYR339     -0.1241
     32  CA        10.7320  -20.9160  -28.3930 C.3   339  TYR339      0.1605
     33  C         11.1520  -22.2820  -28.9250 C.2   339  TYR339      0.2264
     34  O         10.9060  -22.5760  -30.0910 O.2   339  TYR339     -0.2867
     35  CB        11.6730  -19.7420  -28.7350 C.3   339  TYR339      0.0534
     36  CG        10.8810  -18.4550  -28.7230 C.ar  339  TYR339     -0.0201
     37  CD1       10.0520  -18.1190  -29.7920 C.ar  339  TYR339     -0.0009
     38  CD2       10.8050  -17.6720  -27.5720 C.ar  339  TYR339     -0.0009
     39  CE1        9.2150  -17.0070  -29.7390 C.ar  339  TYR339      0.0417
     40  CE2        9.9700  -16.5520  -27.5100 C.ar  339  TYR339      0.0417
     41  CZ         9.1800  -16.2230  -28.5980 C.ar  339  TYR339      0.1957
     42  OH         8.3540  -15.1260  -28.5600 O.3   339  TYR339     -0.2866
     43  N          4.7970  -14.3700  -23.5870 N.3   359  ILE359     -0.1231
     44  CA         4.0870  -13.2150  -24.1190 C.3   359  ILE359      0.1678
     45  C          4.4770  -13.1380  -25.5980 C.2   359  ILE359      0.2434
     46  O          5.6620  -12.9910  -25.8910 O.2   359  ILE359     -0.2733
     47  CB         4.3800  -11.8910  -23.3420 C.3   359  ILE359      0.0265
     48  CG1        3.9970  -12.0270  -21.8400 C.3   359  ILE359      0.0019
     49  CG2        3.6430  -10.6980  -24.0120 C.3   359  ILE359      0.0020
     50  CD1        4.6040  -10.9580  -20.9140 C.3   359  ILE359      0.0001
     51  N          3.5170  -13.2940  -26.5410 N.am  360  PRO360     -0.2718
     52  CA         3.8670  -13.2610  -27.9700 C.3   360  PRO360      0.1535
     53  C          4.3770  -11.9020  -28.4090 C.2   360  PRO360      0.2598
     54  O          4.0290  -10.8900  -27.7990 O.2   360  PRO360     -0.2715
     55  CB         2.5430  -13.5800  -28.6650 C.3   360  PRO360      0.0310
     56  CG         1.7120  -14.2380  -27.6140 C.3   360  PRO360      0.0237
     57  CD         2.0720  -13.5280  -26.3630 C.3   360  PRO360      0.0939
     58  N          5.2250  -11.8870  -29.4510 N.am  361  ALA361     -0.1964
     59  CA         5.7920  -10.6650  -30.0010 C.3   361  ALA361      0.1728
     60  C          4.6720   -9.7400  -30.4920 C.2   361  ALA361      0.2616
     61  O          3.6860  -10.2140  -31.0620 O.2   361  ALA361     -0.2715
     62  CB         6.7330  -11.0020  -31.1490 C.3   361  ALA361      0.0334
     63  N          4.8020   -8.4310  -30.2330 N.am  362  ASN362     -0.1972
     64  CA         3.8190   -7.4630  -30.7260 C.3   362  ASN362      0.1688
     65  C          4.3200   -7.0140  -32.0950 C.2   362  ASN362      0.2292
     66  O          5.3600   -6.3610  -32.1640 O.2   362  ASN362     -0.2864
     67  CB         3.6640   -6.2680  -29.7790 C.3   362  ASN362      0.1181
     68  CG         2.6130   -5.2560  -30.2100 C.2   362  ASN362      0.2629
     69  OD1        2.2000   -5.1710  -31.3760 O.2   362  ASN362     -0.2716
     70  ND2        2.1580   -4.4570  -29.2640 N.am  362  ASN362     -0.0877
     71  N         15.4050  -11.1250  -32.4280 N.3   466  ASN466     -0.1225
     72  CA        14.4930  -12.0320  -31.7250 C.3   466  ASN466      0.1785
     73  C         13.0410  -11.7650  -32.0320 C.2   466  ASN466      0.2597
     74  O         12.2880  -12.7170  -32.2190 O.2   466  ASN466     -0.2718
     75  CB        14.7450  -12.0610  -30.2270 C.3   466  ASN466      0.1169
     76  CG        16.0530  -12.7100  -29.8500 C.2   466  ASN466      0.2627
     77  OD1       16.7070  -13.3820  -30.6550 O.2   466  ASN466     -0.2716
     78  ND2       16.4470  -12.5550  -28.6120 N.am  466  ASN466     -0.0877
     79  N         12.6660  -10.4750  -32.1370 N.am  467  TRP467     -0.1976
     80  CA        11.3140  -10.0090  -32.4350 C.3   467  TRP467      0.1640
     81  C         10.8840  -10.4360  -33.8310 C.2   467  TRP467      0.2290
     82  O          9.7700  -10.9360  -34.0020 O.2   467  TRP467     -0.2864
     83  CB        11.2550   -8.4770  -32.2580 C.3   467  TRP467      0.0576
     84  CG         9.9620   -7.8380  -32.6510 C.ar  467  TRP467      0.0006
     85  CD1        8.8200   -7.7710  -31.9100 C.ar  467  TRP467      0.0946
     86  CD2        9.6950   -7.1350  -33.8700 C.ar  467  TRP467      0.0152
     87  NE1        7.8450   -7.0980  -32.6050 N.ar  467  TRP467     -0.2442
     88  CE2        8.3600   -6.6750  -33.8030 C.ar  467  TRP467      0.0810
     89  CE3       10.4450   -6.8740  -35.0310 C.ar  467  TRP467      0.0012
     90  CZ2        7.7520   -5.9800  -34.8580 C.ar  467  TRP467      0.0191
     91  CZ3        9.8490   -6.1670  -36.0670 C.ar  467  TRP467      0.0001
     92  CH2        8.5150   -5.7310  -35.9760 C.ar  467  TRP467      0.0015
     93  N         12.1790  -12.9150  -35.6530 N.3   469  TRP469     -0.1227
     94  CA        12.1180  -14.3710  -35.6810 C.3   469  TRP469      0.1737
     95  C         10.8360  -14.8400  -35.0080 C.2   469  TRP469      0.2595
     96  O         10.1400  -15.6770  -35.5750 O.2   469  TRP469     -0.2718
     97  CB        13.3720  -14.9630  -35.0300 C.3   469  TRP469      0.0564
     98  CG        13.4570  -16.4610  -35.0520 C.ar  469  TRP469      0.0003
     99  CD1       13.6190  -17.2600  -36.1480 C.ar  469  TRP469      0.0946
    100  CD2       13.4900  -17.3290  -33.9120 C.ar  469  TRP469      0.0152
    101  NE1       13.7060  -18.5790  -35.7620 N.ar  469  TRP469     -0.2442
    102  CE2       13.6450  -18.6480  -34.3940 C.ar  469  TRP469      0.0810
    103  CE3       13.3410  -17.1270  -32.5280 C.ar  469  TRP469      0.0012
    104  CZ2       13.7030  -19.7550  -33.5400 C.ar  469  TRP469      0.0191
    105  CZ3       13.3940  -18.2290  -31.6820 C.ar  469  TRP469      0.0001
    106  CH2       13.5760  -19.5230  -32.1890 C.ar  469  TRP469      0.0015
    107  N         10.4910  -14.2510  -33.8440 N.am  470  ALA470     -0.1980
    108  CA         9.2840  -14.5810  -33.0750 C.3   470  ALA470      0.1597
    109  C          7.9820  -14.2940  -33.8350 C.2   470  ALA470      0.2287
    110  O          7.0230  -15.0580  -33.6890 O.2   470  ALA470     -0.2864
    111  CB         9.2850  -13.8310  -31.7620 C.3   470  ALA470      0.0319
@<TRIPOS>BOND
     1    99   101   ar
     2    99    98   ar
     3    91    92   ar
     4    91    89   ar
     5    92    90   ar
     6   101   102   ar
     7    94    93    1
     8    94    97    1
     9    94    95    1
    10    96    95    2
    11    98    97    1
    12    98   100   ar
    13    89    86   ar
    14    95   107   am
    15    90    88   ar
    16   102   100   ar
    17   102   104   ar
    18    82    81    2
    19   100   103   ar
    20    86    88   ar
    21    86    84   ar
    22   107   108    1
    23   109   110    2
    24   109   108    1
    25    81    80    1
    26    88    87   ar
    27   104   106   ar
    28   108   111    1
    29    84    83    1
    30    84    85   ar
    31    87    85   ar
    32   103   105   ar
    33    80    83    1
    34    80    79    1
    35    71    72    1
    36    74    73    2
    37   106   105   ar
    38    66    65    2
    39    79    73   am
    40    65    64    1
    41    73    72    1
    42    72    75    1
    43    69    68    2
    44    62    59    1
    45    61    60    2
    46     3     4    2
    47     3     2    1
    48    64    63    1
    49    64    67    1
    50    77    76    2
    51    60    63   am
    52    60    59    1
    53    75    76    1
    54     1     2    1
    55    68    67    1
    56    68    70   am
    57    34    33    2
    58    59    58    1
    59     2     5    1
    60    76    78   am
    61    37    39   ar
    62    37    36   ar
    63    39    41   ar
    64     5     6    2
    65    58    53   am
    66    33    32    1
    67    35    36    1
    68    35    32    1
    69    36    38   ar
    70    55    52    1
    71    55    56    1
    72    41    42    1
    73    41    40   ar
    74    53    52    1
    75    53    54    2
    76    32    31    1
    77     6     7    1
    78    52    51    1
    79    56    57    1
    80    38    40   ar
    81     7     8    1
    82    51    57    1
    83    51    45   am
    84    46    45    2
    85    45    44    1
    86    26    25    2
    87    22    21   ar
    88    22    20   ar
    89    21    19   ar
    90    44    43    1
    91    44    47    1
    92    28    29    1
    93    28    27    1
    94    49    47    1
    95    25    24    1
    96    30    29    1
    97    20    18   ar
    98    47    48    1
    99    19    16   ar
   100    27    24    1
   101    24    23    1
   102    18    16   ar
   103    18    17   ar
   104    16    14   ar
   105    48    50    1
   106    12    11    2
   107    17    15   ar
   108    14    15   ar
   109    14    13    1
   110    11    10    1
   111    13    10    1
   112    10     9    1
