@<TRIPOS>MOLECULE
tmp/5akkA01.pdb
 124 124 0 0 0
SMALL
GASTEIGER

@<TRIPOS>ATOM
      1  N         16.0390  -16.2390  -18.7130 N.3   332  TRP332     -0.1241
      2  CA        16.3440  -16.3630  -20.1390 C.3   332  TRP332      0.1605
      3  C         16.1780  -17.8050  -20.6500 C.2   332  TRP332      0.2264
      4  O         15.7340  -17.9860  -21.7750 O.2   332  TRP332     -0.2867
      5  CB        17.7480  -15.8350  -20.4600 C.3   332  TRP332      0.0550
      6  CG        17.7180  -14.4500  -21.0380 C.ar  332  TRP332      0.0003
      7  CD1       18.2440  -13.3290  -20.4760 C.ar  332  TRP332      0.0946
      8  CD2       17.0420  -14.0240  -22.2340 C.ar  332  TRP332      0.0152
      9  NE1       17.9940  -12.2360  -21.2760 N.ar  332  TRP332     -0.2442
     10  CE2       17.2540  -12.6310  -22.3590 C.ar  332  TRP332      0.0810
     11  CE3       16.3180  -14.6880  -23.2410 C.ar  332  TRP332      0.0012
     12  CZ2       16.7420  -11.8860  -23.4280 C.ar  332  TRP332      0.0191
     13  CZ3       15.8340  -13.9530  -24.3150 C.ar  332  TRP332      0.0001
     14  CH2       16.0300  -12.5660  -24.3920 C.ar  332  TRP332      0.0015
     15  N          5.2250  -11.8870  -29.4510 N.3   361  ALA361     -0.1245
     16  CA         5.7920  -10.6650  -30.0010 C.3   361  ALA361      0.1562
     17  C          4.6720   -9.7400  -30.4920 C.2   361  ALA361      0.2260
     18  O          3.6860  -10.2140  -31.0620 O.2   361  ALA361     -0.2867
     19  CB         6.7330  -11.0020  -31.1490 C.3   361  ALA361      0.0290
     20  N         10.5590   -3.8080  -30.0220 N.3   367  PRO367     -0.2116
     21  CA        10.8870   -4.2650  -28.6510 C.3   367  PRO367      0.1372
     22  C         11.3470   -3.1110  -27.7440 C.2   367  PRO367      0.2244
     23  O         11.0300   -3.1060  -26.5540 O.2   367  PRO367     -0.2868
     24  CB        11.9870   -5.3130  -28.8550 C.3   367  PRO367      0.0268
     25  CG        12.4020   -5.2120  -30.2560 C.3   367  PRO367      0.0207
     26  CD        11.3600   -4.5110  -31.0440 C.3   367  PRO367      0.0892
     27  N          8.1460   -1.3620  -26.6440 N.3   370  SER370     -0.1202
     28  CA         7.5180   -2.2500  -25.6600 C.3   370  SER370      0.2020
     29  C          8.1960   -2.2140  -24.2910 C.2   370  SER370      0.2618
     30  O          7.4960   -2.1900  -23.2760 O.2   370  SER370     -0.2717
     31  CB         7.4790   -3.6830  -26.1800 C.3   370  SER370      0.2103
     32  OG         6.7330   -3.7820  -27.3800 O.3   370  SER370     -0.2182
     33  N          9.5520   -2.2250  -24.2650 N.am  371  ILE371     -0.1979
     34  CA        10.3630   -2.2120  -23.0380 C.3   371  ILE371      0.1595
     35  C         10.1770   -0.9370  -22.2410 C.2   371  ILE371      0.2287
     36  O         10.0100   -0.9990  -21.0200 O.2   371  ILE371     -0.2864
     37  CB        11.8540   -2.5720  -23.3100 C.3   371  ILE371      0.0276
     38  CG1       12.0050   -4.0960  -23.3460 C.3   371  ILE371      0.0022
     39  CG2       12.8270   -1.9420  -22.2760 C.3   371  ILE371      0.0022
     40  CD1       13.2620   -4.5870  -23.7650 C.3   371  ILE371      0.0001
     41  N         11.6550   -3.2750  -16.6710 N.3   377  PHE377     -0.1241
     42  CA        12.6020   -3.6730  -17.7190 C.3   377  PHE377      0.1605
     43  C         13.6400   -2.6210  -18.0900 C.2   377  PHE377      0.2264
     44  O         14.3920   -2.8460  -19.0400 O.2   377  PHE377     -0.2867
     45  CB        11.8630   -4.1400  -18.9880 C.3   377  PHE377      0.0534
     46  CG        10.8980   -5.2910  -18.8230 C.ar  377  PHE377     -0.0203
     47  CD1       11.2590   -6.4260  -18.1030 C.ar  377  PHE377     -0.0042
     48  CD2        9.6550   -5.2700  -19.4440 C.ar  377  PHE377     -0.0042
     49  CE1       10.3680   -7.4940  -17.9580 C.ar  377  PHE377     -0.0003
     50  CE2        8.7680   -6.3430  -19.3080 C.ar  377  PHE377     -0.0003
     51  CZ         9.1320   -7.4460  -18.5690 C.ar  377  PHE377     -0.0000
     52  N         17.2520   -3.6690  -18.8000 N.3   380  GLN380     -0.1245
     53  CA        17.5500   -4.2380  -20.1210 C.3   380  GLN380      0.1566
     54  C         18.1110   -3.1970  -21.0960 C.2   380  GLN380      0.2260
     55  O         18.8510   -3.5640  -22.0110 O.2   380  GLN380     -0.2867
     56  CB        16.3170   -4.9340  -20.7330 C.3   380  GLN380      0.0367
     57  CG        15.9270   -6.2260  -20.0190 C.3   380  GLN380      0.0905
     58  CD        14.7660   -6.9580  -20.6490 C.2   380  GLN380      0.2608
     59  OE1       14.5960   -6.9940  -21.8680 O.2   380  GLN380     -0.2717
     60  NE2       13.9660   -7.6120  -19.8290 N.am  380  GLN380     -0.0878
     61  N         22.7370  -12.0730  -24.6170 N.3   459  TRP459     -0.1227
     62  CA        21.3960  -12.6780  -24.6510 C.3   459  TRP459      0.1737
     63  C         20.3460  -11.5670  -24.6980 C.2   459  TRP459      0.2595
     64  O         19.3080  -11.7570  -25.3170 O.2   459  TRP459     -0.2718
     65  CB        21.1430  -13.5790  -23.4280 C.3   459  TRP459      0.0564
     66  CG        21.7450  -14.9610  -23.4990 C.ar  459  TRP459      0.0003
     67  CD1       23.0690  -15.2790  -23.3810 C.ar  459  TRP459      0.0946
     68  CD2       21.0340  -16.2110  -23.4870 C.ar  459  TRP459      0.0152
     69  NE1       23.2330  -16.6420  -23.3760 N.ar  459  TRP459     -0.2442
     70  CE2       21.9990  -17.2420  -23.4450 C.ar  459  TRP459      0.0810
     71  CE3       19.6660  -16.5630  -23.5340 C.ar  459  TRP459      0.0012
     72  CZ2       21.6490  -18.6020  -23.4610 C.ar  459  TRP459      0.0191
     73  CZ3       19.3190  -17.9130  -23.5500 C.ar  459  TRP459      0.0001
     74  CH2       20.3020  -18.9150  -23.5250 C.ar  459  TRP459      0.0015
     75  N         20.6510  -10.3760  -24.1240 N.am  460  TYR460     -0.1976
     76  CA        19.7490   -9.2000  -24.1430 C.3   460  TYR460      0.1639
     77  C         19.9140   -8.3060  -25.3740 C.2   460  TYR460      0.2290
     78  O         19.1030   -7.3910  -25.5640 O.2   460  TYR460     -0.2864
     79  CB        20.0130   -8.3050  -22.9290 C.3   460  TYR460      0.0560
     80  CG        19.6800   -8.9300  -21.6010 C.ar  460  TYR460     -0.0198
     81  CD1       20.6340   -9.6560  -20.8930 C.ar  460  TYR460     -0.0009
     82  CD2       18.4180   -8.7750  -21.0320 C.ar  460  TYR460     -0.0009
     83  CE1       20.3440  -10.2090  -19.6510 C.ar  460  TYR460      0.0417
     84  CE2       18.1090   -9.3470  -19.7960 C.ar  460  TYR460      0.0417
     85  CZ        19.0800  -10.0500  -19.1050 C.ar  460  TYR460      0.1957
     86  OH        18.8020  -10.6010  -17.8830 O.3   460  TYR460     -0.2866
     87  N         19.8510   -8.9100  -28.6980 N.3   462  ASN462     -0.1225
     88  CA        19.2990   -9.3690  -29.9650 C.3   462  ASN462      0.1785
     89  C         17.7970   -9.1160  -30.0630 C.2   462  ASN462      0.2597
     90  O         17.1080   -9.8470  -30.7680 O.2   462  ASN462     -0.2718
     91  CB        19.6230  -10.8540  -30.1460 C.3   462  ASN462      0.1169
     92  CG        21.0770  -11.1010  -30.4320 C.2   462  ASN462      0.2627
     93  OD1       21.5290  -11.0090  -31.5700 O.2   462  ASN462     -0.2716
     94  ND2       21.8310  -11.4570  -29.4130 N.am  462  ASN462     -0.0877
     95  N         17.2930   -8.0590  -29.3920 N.am  463  MET463     -0.1979
     96  CA        15.8560   -7.7240  -29.3540 C.3   463  MET463      0.1605
     97  C         15.1940   -7.6660  -30.7080 C.2   463  MET463      0.2287
     98  O         14.1970   -8.3530  -30.9220 O.2   463  MET463     -0.2864
     99  CB        15.5740   -6.4310  -28.5650 C.3   463  MET463      0.0413
    100  CG        16.4110   -6.2870  -27.3520 C.3   463  MET463      0.0598
    101  SD        15.5080   -5.6840  -25.9220 S.3   463  MET463     -0.1393
    102  CE        15.9190   -7.0580  -24.7370 C.3   463  MET463      0.0692
    103  N         15.4050  -11.1250  -32.4280 N.3   466  ASN466     -0.1225
    104  CA        14.4930  -12.0320  -31.7250 C.3   466  ASN466      0.1785
    105  C         13.0410  -11.7650  -32.0320 C.2   466  ASN466      0.2597
    106  O         12.2880  -12.7170  -32.2190 O.2   466  ASN466     -0.2718
    107  CB        14.7450  -12.0610  -30.2270 C.3   466  ASN466      0.1169
    108  CG        16.0530  -12.7100  -29.8500 C.2   466  ASN466      0.2627
    109  OD1       16.7070  -13.3820  -30.6550 O.2   466  ASN466     -0.2716
    110  ND2       16.4470  -12.5550  -28.6120 N.am  466  ASN466     -0.0877
    111  N         12.6660  -10.4750  -32.1370 N.am  467  TRP467     -0.1976
    112  CA        11.3140  -10.0090  -32.4350 C.3   467  TRP467      0.1640
    113  C         10.8840  -10.4360  -33.8310 C.2   467  TRP467      0.2290
    114  O          9.7700  -10.9360  -34.0020 O.2   467  TRP467     -0.2864
    115  CB        11.2550   -8.4770  -32.2580 C.3   467  TRP467      0.0576
    116  CG         9.9620   -7.8380  -32.6510 C.ar  467  TRP467      0.0006
    117  CD1        8.8200   -7.7710  -31.9100 C.ar  467  TRP467      0.0946
    118  CD2        9.6950   -7.1350  -33.8700 C.ar  467  TRP467      0.0152
    119  NE1        7.8450   -7.0980  -32.6050 N.ar  467  TRP467     -0.2442
    120  CE2        8.3600   -6.6750  -33.8030 C.ar  467  TRP467      0.0810
    121  CE3       10.4450   -6.8740  -35.0310 C.ar  467  TRP467      0.0012
    122  CZ2        7.7520   -5.9800  -34.8580 C.ar  467  TRP467      0.0191
    123  CZ3        9.8490   -6.1670  -36.0670 C.ar  467  TRP467      0.0001
    124  CH2        8.5150   -5.7310  -35.9760 C.ar  467  TRP467      0.0015
@<TRIPOS>BOND
     1   123   124   ar
     2   123   121   ar
     3   124   122   ar
     4   121   118   ar
     5   122   120   ar
     6   114   113    2
     7   118   120   ar
     8   118   116   ar
     9   113   112    1
    10   120   119   ar
    11   116   115    1
    12   116   117   ar
    13   119   117   ar
    14   112   115    1
    15   112   111    1
    16   103   104    1
    17   106   105    2
    18   111   105   am
    19   105   104    1
    20   104   107    1
    21    93    92    2
    22    19    16    1
    23    18    17    2
    24    26    25    1
    25    26    20    1
    26    98    97    2
    27    90    89    2
    28    97    96    1
    29   109   108    2
    30    17    16    1
    31    92    91    1
    32    92    94   am
    33    25    24    1
    34   107   108    1
    35    91    88    1
    36    89    88    1
    37    89    95   am
    38    20    21    1
    39    16    15    1
    40    88    87    1
    41   108   110   am
    42    95    96    1
    43    96    99    1
    44    24    21    1
    45    21    22    1
    46    99   100    1
    47    22    23    2
    48    32    31    1
    49   100   101    1
    50    27    28    1
    51    31    28    1
    52   101   102    1
    53    28    29    1
    54    78    77    2
    55    77    76    1
    56    64    63    2
    57    63    62    1
    58    63    75   am
    59    62    61    1
    60    62    65    1
    61    14    13   ar
    62    14    12   ar
    63    13    11   ar
    64    29    33   am
    65    29    30    2
    66    33    34    1
    67    76    75    1
    68    76    79    1
    69    40    38    1
    70    73    71   ar
    71    73    74   ar
    72    71    68   ar
    73    74    72   ar
    74    66    68   ar
    75    66    65    1
    76    66    67   ar
    77    68    70   ar
    78    72    70   ar
    79    70    69   ar
    80    12    10   ar
    81    67    69   ar
    82    38    37    1
    83    37    34    1
    84    37    39    1
    85    11     8   ar
    86    34    35    1
    87    79    80    1
    88    10     8   ar
    89    10     9   ar
    90    35    36    2
    91     8     6   ar
    92    55    54    2
    93    59    58    2
    94     4     3    2
    95    80    82   ar
    96    80    81   ar
    97     9     7   ar
    98    54    53    1
    99     6     7   ar
   100     6     5    1
   101    82    84   ar
   102    81    83   ar
   103    56    53    1
   104    56    57    1
   105     3     2    1
   106    58    57    1
   107    58    60   am
   108     5     2    1
   109     2     1    1
   110    53    52    1
   111    84    85   ar
   112    83    85   ar
   113    48    50   ar
   114    48    46   ar
   115    50    51   ar
   116    85    86    1
   117    44    43    2
   118    45    46    1
   119    45    42    1
   120    46    47   ar
   121    51    49   ar
   122    47    49   ar
   123    43    42    1
   124    42    41    1
