@<TRIPOS>MOLECULE
tmp/5aklA00.pdb
 200 198 0 0 0
SMALL
GASTEIGER

@<TRIPOS>ATOM
      1  N         20.3100  -15.6050  -15.9910 N.3   254  PHE254     -0.1228
      2  CA        21.4020  -14.6390  -15.9170 C.3   254  PHE254      0.1721
      3  C         21.5990  -14.1010  -14.5000 C.2   254  PHE254      0.2437
      4  O         20.6220  -13.6440  -13.9110 O.2   254  PHE254     -0.2733
      5  CB        21.1080  -13.4570  -16.8710 C.3   254  PHE254      0.0547
      6  CG        22.1120  -12.3240  -16.7990 C.ar  254  PHE254     -0.0202
      7  CD1       23.2360  -12.3160  -17.6160 C.ar  254  PHE254     -0.0042
      8  CD2       21.9070  -11.2430  -15.9480 C.ar  254  PHE254     -0.0042
      9  CE1       24.1730  -11.2810  -17.5350 C.ar  254  PHE254     -0.0003
     10  CE2       22.8450  -10.2100  -15.8660 C.ar  254  PHE254     -0.0003
     11  CZ        23.9650  -10.2300  -16.6680 C.ar  254  PHE254     -0.0000
     12  N         22.8360  -13.9970  -13.9720 N.am  255  PRO255     -0.2729
     13  CA        24.1350  -14.4580  -14.4960 C.3   255  PRO255      0.1401
     14  C         24.4590  -15.7310  -13.7130 C.2   255  PRO255      0.2269
     15  O         25.0430  -15.6760  -12.6360 O.2   255  PRO255     -0.2865
     16  CB        25.0560  -13.2780  -14.1400 C.3   255  PRO255      0.0296
     17  CG        24.3570  -12.5790  -12.9000 C.3   255  PRO255      0.0237
     18  CD        23.0420  -13.3240  -12.6770 C.3   255  PRO255      0.0939
     19  N         14.3900  -17.9630  -15.6350 N.3   322  ASP322     -0.1225
     20  CA        14.8580  -16.6480  -16.0860 C.3   322  ASP322      0.1805
     21  C         15.1550  -16.6390  -17.6200 C.2   322  ASP322      0.2597
     22  O         14.2500  -16.9640  -18.3800 O.2   322  ASP322     -0.2718
     23  CB        16.0500  -16.2200  -15.1890 C.3   322  ASP322      0.1424
     24  CG        16.5640  -14.8440  -15.4720 C.2   322  ASP322      0.3668
     25  OD1       15.9140  -13.8780  -15.0400 O.co2 322  ASP322     -0.2456
     26  OD2       17.5930  -14.7320  -16.1690 O.co2 322  ASP322     -0.2456
     27  N         16.3880  -16.2980  -18.0850 N.am  323  TRP323     -0.1976
     28  CA        16.7080  -16.3250  -19.5190 C.3   323  TRP323      0.1640
     29  C         16.5580  -17.7410  -20.1060 C.2   323  TRP323      0.2290
     30  O         16.1600  -17.8760  -21.2650 O.2   323  TRP323     -0.2864
     31  CB        18.1040  -15.7670  -19.8010 C.3   323  TRP323      0.0576
     32  CG        18.0950  -14.3050  -20.1110 C.ar  323  TRP323      0.0006
     33  CD1       18.4460  -13.2880  -19.2740 C.ar  323  TRP323      0.0946
     34  CD2       17.6390  -13.6880  -21.3270 C.ar  323  TRP323      0.0152
     35  NE1       18.2690  -12.0750  -19.9040 N.ar  323  TRP323     -0.2442
     36  CE2       17.7990  -12.2930  -21.1750 C.ar  323  TRP323      0.0810
     37  CE3       17.1420  -14.1830  -22.5470 C.ar  323  TRP323      0.0012
     38  CZ2       17.4700  -11.3850  -22.1940 C.ar  323  TRP323      0.0191
     39  CZ3       16.8420  -13.2860  -23.5640 C.ar  323  TRP323      0.0001
     40  CH2       16.9970  -11.9070  -23.3820 C.ar  323  TRP323      0.0015
     41  N         12.9700  -18.2390  -20.9610 N.3   326  MET326     -0.1245
     42  CA        12.7040  -17.5690  -22.2380 C.3   326  MET326      0.1570
     43  C         13.1070  -18.5090  -23.3870 C.2   326  MET326      0.2261
     44  O         12.3640  -18.6320  -24.3600 O.2   326  MET326     -0.2867
     45  CB        13.5100  -16.2630  -22.3270 C.3   326  MET326      0.0387
     46  CG        13.2450  -15.4600  -23.5830 C.3   326  MET326      0.0595
     47  SD        11.6100  -14.6850  -23.5460 S.3   326  MET326     -0.1393
     48  CE        11.9790  -13.2160  -22.6130 C.3   326  MET326      0.0692
     49  N          9.7650  -16.9580  -15.6530 N.3   347  THR347     -0.1218
     50  CA         9.6580  -16.3820  -16.9990 C.3   347  THR347      0.1862
     51  C          8.3520  -16.7130  -17.6910 C.2   347  THR347      0.2287
     52  O          8.1150  -17.8790  -18.0200 O.2   347  THR347     -0.2866
     53  CB        10.8770  -16.7220  -17.8540 C.3   347  THR347      0.1770
     54  OG1       12.0200  -16.3280  -17.1290 O.3   347  THR347     -0.2211
     55  CG2       10.8810  -15.9890  -19.2000 C.3   347  THR347      0.0375
     56  N         12.4430   -2.8130  -15.8490 N.3   368  PHE368     -0.1241
     57  CA        13.3440   -3.2630  -16.9160 C.3   368  PHE368      0.1605
     58  C         14.3940   -2.2330  -17.3490 C.2   368  PHE368      0.2264
     59  O         14.9970   -2.4010  -18.4160 O.2   368  PHE368     -0.2867
     60  CB        12.5480   -3.7690  -18.1410 C.3   368  PHE368      0.0534
     61  CG        11.6330   -4.9630  -17.9590 C.ar  368  PHE368     -0.0203
     62  CD1       11.9080   -5.9370  -17.0050 C.ar  368  PHE368     -0.0042
     63  CD2       10.5400   -5.1520  -18.7950 C.ar  368  PHE368     -0.0042
     64  CE1       11.0700   -7.0460  -16.8520 C.ar  368  PHE368     -0.0003
     65  CE2        9.7020   -6.2620  -18.6400 C.ar  368  PHE368     -0.0003
     66  CZ         9.9780   -7.2040  -17.6750 C.ar  368  PHE368     -0.0000
     67  N         17.3910   -1.6600  -16.0770 N.3   370  TYR370     -0.1227
     68  CA        18.7030   -2.3170  -16.0730 C.3   370  TYR370      0.1736
     69  C         19.0520   -2.9160  -17.4570 C.2   370  TYR370      0.2595
     70  O         20.2270   -2.9900  -17.8070 O.2   370  TYR370     -0.2718
     71  CB        18.7810   -3.3780  -14.9580 C.3   370  TYR370      0.0548
     72  CG        17.8850   -4.5740  -15.1900 C.ar  370  TYR370     -0.0200
     73  CD1       16.5600   -4.5700  -14.7650 C.ar  370  TYR370     -0.0009
     74  CD2       18.3640   -5.7180  -15.8280 C.ar  370  TYR370     -0.0009
     75  CE1       15.7230   -5.6610  -14.9960 C.ar  370  TYR370      0.0417
     76  CE2       17.5390   -6.8160  -16.0600 C.ar  370  TYR370      0.0417
     77  CZ        16.2170   -6.7830  -15.6450 C.ar  370  TYR370      0.1957
     78  OH        15.3950   -7.8630  -15.8690 O.3   370  TYR370     -0.2866
     79  N         18.0270   -3.3250  -18.2390 N.am  371  GLN371     -0.1979
     80  CA        18.1980   -3.9040  -19.5810 C.3   371  GLN371      0.1601
     81  C         18.7750   -2.8890  -20.5770 C.2   371  GLN371      0.2287
     82  O         19.5850   -3.2690  -21.4230 O.2   371  GLN371     -0.2864
     83  CB        16.8890   -4.5260  -20.0930 C.3   371  GLN371      0.0394
     84  CG        16.3950   -5.6780  -19.2120 C.3   371  GLN371      0.0908
     85  CD        15.2070   -6.4470  -19.7430 C.2   371  GLN371      0.2608
     86  OE1       14.9630   -6.5310  -20.9460 O.2   371  GLN371     -0.2717
     87  NE2       14.4720   -7.0830  -18.8480 N.am  371  GLN371     -0.0878
     88  N         22.4150   -2.4510  -19.8790 N.3   374  PHE374     -0.1241
     89  CA        23.1070   -3.6320  -20.3970 C.3   374  PHE374      0.1605
     90  C         23.4100   -3.6120  -21.8960 C.2   374  PHE374      0.2264
     91  O         24.1530   -4.4790  -22.3730 O.2   374  PHE374     -0.2867
     92  CB        22.2660   -4.8860  -20.0800 C.3   374  PHE374      0.0534
     93  CG        22.2800   -5.3910  -18.6600 C.ar  374  PHE374     -0.0203
     94  CD1       23.0140   -4.7380  -17.6740 C.ar  374  PHE374     -0.0042
     95  CD2       21.5630   -6.5250  -18.3060 C.ar  374  PHE374     -0.0042
     96  CE1       23.0490   -5.2250  -16.3700 C.ar  374  PHE374     -0.0003
     97  CE2       21.5870   -7.0060  -16.9950 C.ar  374  PHE374     -0.0003
     98  CZ        22.3340   -6.3600  -16.0380 C.ar  374  PHE374     -0.0000
     99  N         30.1760   -5.3780  -13.4430 N.3   384  LEU384     -0.1245
    100  CA        29.9390   -6.7390  -12.9620 C.3   384  LEU384      0.1561
    101  C         31.2220   -7.5400  -12.7700 C.2   384  LEU384      0.2260
    102  O         31.2640   -8.3970  -11.8930 O.2   384  LEU384     -0.2867
    103  CB        28.9250   -7.4740  -13.8600 C.3   384  LEU384      0.0270
    104  CG        27.5070   -6.8800  -13.8870 C.3   384  LEU384      0.0019
    105  CD1       26.7750   -7.2440  -15.1530 C.3   384  LEU384      0.0001
    106  CD2       26.7070   -7.2960  -12.6840 C.3   384  LEU384      0.0001
    107  N         23.7080   -9.8190   -5.7860 N.3   395  LEU395     -0.1245
    108  CA        22.6310  -10.3640   -6.6060 C.3   395  LEU395      0.1561
    109  C         21.8160  -11.4520   -5.9360 C.2   395  LEU395      0.2260
    110  O         20.5850  -11.3590   -5.9000 O.2   395  LEU395     -0.2867
    111  CB        23.1800  -10.8640   -7.9550 C.3   395  LEU395      0.0270
    112  CG        23.5010   -9.7990   -8.9750 C.3   395  LEU395      0.0019
    113  CD1       24.2570  -10.3970  -10.1220 C.3   395  LEU395      0.0001
    114  CD2       22.2430   -9.1070   -9.4620 C.3   395  LEU395      0.0001
    115  N         16.7500   -1.7100   -8.9360 N.3   406  MET406     -0.1245
    116  CA        16.8280   -1.9560  -10.3790 C.3   406  MET406      0.1570
    117  C         16.0900   -0.8920  -11.2050 C.2   406  MET406      0.2261
    118  O         15.9090   -1.0380  -12.4210 O.2   406  MET406     -0.2867
    119  CB        16.4280   -3.3970  -10.7280 C.3   406  MET406      0.0387
    120  CG        17.6190   -4.3300  -10.7920 C.3   406  MET406      0.0595
    121  SD        17.1750   -6.0600  -10.5470 S.3   406  MET406     -0.1393
    122  CE        17.3030   -6.1760   -8.8020 C.3   406  MET406      0.0692
    123  N         24.4310   -0.4760  -11.4950 N.3   415  LEU415     -0.1245
    124  CA        23.5710   -1.4470  -10.8300 C.3   415  LEU415      0.1561
    125  C         23.8380   -1.5160   -9.3250 C.2   415  LEU415      0.2260
    126  O         22.9150   -1.7930   -8.5570 O.2   415  LEU415     -0.2867
    127  CB        23.8370   -2.8290  -11.4490 C.3   415  LEU415      0.0270
    128  CG        22.6410   -3.7480  -11.5940 C.3   415  LEU415      0.0019
    129  CD1       21.9590   -3.5270  -12.9310 C.3   415  LEU415      0.0001
    130  CD2       23.0710   -5.1990  -11.4840 C.3   415  LEU415      0.0001
    131  N         21.1750  -10.0970  -23.8600 N.3   453  TYR453     -0.1241
    132  CA        20.3350   -8.8770  -23.8740 C.3   453  TYR453      0.1605
    133  C         20.5200   -8.0210  -25.1130 C.2   453  TYR453      0.2264
    134  O         19.7560   -7.0710  -25.3070 O.2   453  TYR453     -0.2867
    135  CB        20.7090   -7.9650  -22.6800 C.3   453  TYR453      0.0534
    136  CG        20.3360   -8.5090  -21.3240 C.ar  453  TYR453     -0.0201
    137  CD1       21.2190   -9.3070  -20.6060 C.ar  453  TYR453     -0.0009
    138  CD2       19.1160   -8.1930  -20.7370 C.ar  453  TYR453     -0.0009
    139  CE1       20.8940   -9.7890  -19.3450 C.ar  453  TYR453      0.0417
    140  CE2       18.7840   -8.6600  -19.4640 C.ar  453  TYR453      0.0417
    141  CZ        19.6740   -9.4640  -18.7760 C.ar  453  TYR453      0.1957
    142  OH        19.3630   -9.9590  -17.5350 O.3   453  TYR453     -0.2866
    143  N          9.0390  -12.3550   -6.8590 N.3   483  ASP483     -0.1225
    144  CA        10.0030  -11.9660   -7.8860 C.3   483  ASP483      0.1805
    145  C          9.4500  -10.6130   -8.3460 C.2   483  ASP483      0.2598
    146  O          8.3660  -10.5740   -8.9170 O.2   483  ASP483     -0.2718
    147  CB        10.0460  -12.9690   -9.0650 C.3   483  ASP483      0.1424
    148  CG        11.1100  -12.6570  -10.1040 C.2   483  ASP483      0.3668
    149  OD1       11.3950  -11.4590  -10.3270 O.co2 483  ASP483     -0.2456
    150  OD2       11.6240  -13.6070  -10.7290 O.co2 483  ASP483     -0.2456
    151  N         10.1710   -9.5170   -8.0570 N.am  484  PHE484     -0.1962
    152  CA         9.7080   -8.1800   -8.3990 C.3   484  PHE484      0.1771
    153  C         10.0130   -7.6940   -9.8090 C.2   484  PHE484      0.2619
    154  O          9.5900   -6.6020  -10.1720 O.2   484  PHE484     -0.2715
    155  CB         9.9930   -7.1620   -7.2710 C.3   484  PHE484      0.0574
    156  CG         9.3200   -7.5630   -5.9730 C.ar  484  PHE484     -0.0200
    157  CD1        7.9360   -7.7190   -5.9030 C.ar  484  PHE484     -0.0042
    158  CD2       10.0720   -7.8390   -4.8370 C.ar  484  PHE484     -0.0042
    159  CE1        7.3180   -8.1320   -4.7170 C.ar  484  PHE484     -0.0003
    160  CE2        9.4510   -8.2490   -3.6470 C.ar  484  PHE484     -0.0003
    161  CZ         8.0790   -8.3910   -3.5960 C.ar  484  PHE484     -0.0000
    162  N         10.6810   -8.5340  -10.6280 N.am  485  VAL485     -0.1963
    163  CA        10.9820   -8.2320  -12.0340 C.3   485  VAL485      0.1727
    164  C         10.1140   -9.1360  -12.9240 C.2   485  VAL485      0.2616
    165  O          9.3960   -8.6350  -13.7950 O.2   485  VAL485     -0.2715
    166  CB        12.4980   -8.3230  -12.3490 C.3   485  VAL485      0.0290
    167  CG1       12.7710   -8.2880  -13.8540 C.3   485  VAL485      0.0023
    168  CG2       13.2660   -7.2120  -11.6400 C.3   485  VAL485      0.0023
    169  N         10.1580  -10.4540  -12.6780 N.am  486  LEU486     -0.1977
    170  CA         9.3440  -11.4350  -13.4120 C.3   486  LEU486      0.1596
    171  C          8.1410  -11.7390  -12.5290 C.2   486  LEU486      0.2287
    172  O          8.0670  -12.7800  -11.8760 O.2   486  LEU486     -0.2864
    173  CB        10.1600  -12.7010  -13.7620 C.3   486  LEU486      0.0297
    174  CG        11.4900  -12.4640  -14.5020 C.3   486  LEU486      0.0022
    175  CD1       12.2630  -13.7600  -14.6410 C.3   486  LEU486      0.0001
    176  CD2       11.2660  -11.8410  -15.8870 C.3   486  LEU486      0.0001
    177  N         13.3540  -14.0480   -6.7720 N.3   511  HIS511     -0.1226
    178  CA        13.7940  -14.3510   -8.1330 C.3   511  HIS511      0.1752
    179  C         14.5760  -15.6490   -8.2800 C.2   511  HIS511      0.2596
    180  O         14.4450  -16.3310   -9.2990 O.2   511  HIS511     -0.2718
    181  CB        14.6200  -13.2020   -8.7050 C.3   511  HIS511      0.0759
    182  CG        15.0790  -13.4560  -10.1090 C.ar  511  HIS511      0.0818
    183  ND1       14.1870  -13.4630  -11.1690 N.ar  511  HIS511     -0.2268
    184  CD2       16.3140  -13.7630  -10.5730 C.ar  511  HIS511      0.1154
    185  CE1       14.9090  -13.7590  -12.2350 C.ar  511  HIS511      0.1986
    186  NE2       16.1960  -13.9370  -11.9250 N.ar  511  HIS511     -0.2212
    187  N         15.4320  -15.9560   -7.2980 N.am  512  TRP512     -0.1976
    188  CA        16.3300  -17.1060   -7.3110 C.3   512  TRP512      0.1640
    189  C         15.6120  -18.3300   -6.7940 C.2   512  TRP512      0.2290
    190  O         16.0650  -18.9740   -5.8530 O.2   512  TRP512     -0.2864
    191  CB        17.5990  -16.7680   -6.5130 C.3   512  TRP512      0.0576
    192  CG        18.1040  -15.3810   -6.7890 C.ar  512  TRP512      0.0006
    193  CD1       17.9270  -14.2780   -6.0060 C.ar  512  TRP512      0.0946
    194  CD2       18.7740  -14.9260   -7.9770 C.ar  512  TRP512      0.0152
    195  NE1       18.4650  -13.1690   -6.6190 N.ar  512  TRP512     -0.2442
    196  CE2       19.0040  -13.5390   -7.8220 C.ar  512  TRP512      0.0810
    197  CE3       19.2170  -15.5590   -9.1560 C.ar  512  TRP512      0.0012
    198  CZ2       19.6650  -12.7750   -8.7940 C.ar  512  TRP512      0.0191
    199  CZ3       19.8630  -14.8000  -10.1160 C.ar  512  TRP512      0.0001
    200  CH2       20.0920  -13.4260   -9.9290 C.ar  512  TRP512      0.0015
@<TRIPOS>BOND
     1   134   133    2
     2   133   132    1
     3    44    43    2
     4   132   131    1
     5   132   135    1
     6    46    47    1
     7    46    45    1
     8    39    40   ar
     9    39    37   ar
    10    47    48    1
    11    43    42    1
    12    40    38   ar
    13   135   136    1
    14    37    34   ar
    15    91    90    2
    16    45    42    1
    17    42    41    1
    18    38    36   ar
    19    90    89    1
    20    82    81    2
    21    34    36   ar
    22    34    32   ar
    23   136   138   ar
    24   136   137   ar
    25    30    29    2
    26    36    35   ar
    27    86    85    2
    28   138   140   ar
    29   137   139   ar
    30    81    80    1
    31    89    92    1
    32    89    88    1
    33    32    31    1
    34    32    33   ar
    35    29    28    1
    36    83    80    1
    37    83    84    1
    38    92    93    1
    39    35    33   ar
    40    31    28    1
    41    85    84    1
    42    85    87   am
    43    80    79    1
    44    28    27    1
    45   140   141   ar
    46   139   141   ar
    47    55    53    1
    48    63    65   ar
    49    63    61   ar
    50   141   142    1
    51    93    95   ar
    52    93    94   ar
    53    65    66   ar
    54    59    58    2
    55    22    21    2
    56    95    97   ar
    57    79    69   am
    58    60    61    1
    59    60    57    1
    60    27    21   am
    61    52    51    2
    62    61    62   ar
    63    53    54    1
    64    53    50    1
    65    70    69    2
    66    51    50    1
    67    66    64   ar
    68    94    96   ar
    69    21    20    1
    70     7     9   ar
    71     7     6   ar
    72     9    11   ar
    73    69    68    1
    74    58    57    1
    75    62    64   ar
    76    50    49    1
    77    97    98   ar
    78    57    56    1
    79     5     6    1
    80     5     2    1
    81     6     8   ar
    82    11    10   ar
    83    96    98   ar
    84    26    24   ar
    85    20    19    1
    86    20    23    1
    87    67    68    1
    88    68    71    1
    89    76    74   ar
    90    76    77   ar
    91     1     2    1
    92     8    10   ar
    93     2     3    1
    94   176   174    1
    95    78    77    1
    96    74    72   ar
    97    77    75   ar
    98    24    23    1
    99    24    25   ar
   100    72    71    1
   101    72    73   ar
   102   105   104    1
   103    75    73   ar
   104   175   174    1
   105   174   173    1
   106     3    12   am
   107     3     4    2
   108    13    16    1
   109    13    12    1
   110    13    14    1
   111    16    17    1
   112    12    18    1
   113   104   103    1
   114   104   106    1
   115   103   100    1
   116   167   166    1
   117   165   164    2
   118   173   170    1
   119    14    15    2
   120    99   100    1
   121   170   169    1
   122   170   171    1
   123   100   101    1
   124   129   128    1
   125   164   169   am
   126   164   163    1
   127    17    18    1
   128   101   102    2
   129   171   172    2
   130   118   117    2
   131   166   163    1
   132   166   168    1
   133   185   186   ar
   134   185   183   ar
   135   163   162    1
   136   186   184   ar
   137   128   130    1
   138   128   127    1
   139   123   124    1
   140   127   124    1
   141   117   116    1
   142   183   182   ar
   143   124   125    1
   144   120   119    1
   145   120   121    1
   146   150   148   ar
   147   119   116    1
   148   162   153   am
   149   184   182   ar
   150   121   122    1
   151   116   115    1
   152   149   148   ar
   153   154   153    2
   154   113   112    1
   155   199   200   ar
   156   199   197   ar
   157   182   181    1
   158   148   147    1
   159   200   198   ar
   160   153   152    1
   161   114   112    1
   162   125   126    2
   163   180   179    2
   164   197   194   ar
   165   147   144    1
   166   112   111    1
   167   146   145    2
   168   198   196   ar
   169   181   178    1
   170   152   151    1
   171   152   155    1
   172   145   151   am
   173   145   144    1
   174   179   178    1
   175   179   187   am
   176   178   177    1
   177   194   196   ar
   178   194   192   ar
   179   111   108    1
   180   144   143    1
   181   196   195   ar
   182   188   187    1
   183   188   189    1
   184   188   191    1
   185   155   156    1
   186   189   190    2
   187   192   191    1
   188   192   193   ar
   189   195   193   ar
   190   108   109    1
   191   108   107    1
   192   156   157   ar
   193   156   158   ar
   194   109   110    2
   195   157   159   ar
   196   158   160   ar
   197   159   161   ar
   198   160   161   ar
