@<TRIPOS>MOLECULE
tmp/5akrA00.pdb
 86 87 0 0 0
SMALL
GASTEIGER

@<TRIPOS>ATOM
      1  N         -5.6220   13.0350   24.2440 N.3    22  VAL22      -0.1231
      2  CA        -6.8680   12.5400   24.7950 C.3    22  VAL22       0.1692
      3  C         -8.0010   13.3990   24.2520 C.2    22  VAL22       0.2592
      4  O         -7.9060   14.6340   24.2480 O.2    22  VAL22      -0.2718
      5  CB        -6.8620   12.6160   26.3450 C.3    22  VAL22       0.0266
      6  CG1       -8.2140   12.1700   26.9040 C.3    22  VAL22       0.0020
      7  CG2       -5.7180   11.7760   26.8970 C.3    22  VAL22       0.0020
      8  N         -9.0850   12.7600   23.8200 N.am   23  HIS23      -0.1962
      9  CA       -10.2120   13.5060   23.2950 C.3    23  HIS23       0.1787
     10  C        -10.7600   14.4930   24.3580 C.2    23  HIS23       0.2620
     11  O        -10.6580   14.2900   25.5500 O.2    23  HIS23      -0.2715
     12  CB       -11.3080   12.5370   22.7730 C.3    23  HIS23       0.0785
     13  CG       -12.1100   11.8340   23.8280 C.ar   23  HIS23       0.0821
     14  ND1      -13.1920   12.3810   24.4460 N.ar   23  HIS23      -0.2267
     15  CD2      -12.0310   10.5630   24.2970 C.ar   23  HIS23       0.1154
     16  CE1      -13.7380   11.4470   25.2540 C.ar   23  HIS23       0.1986
     17  NE2      -13.0480   10.3290   25.1890 N.ar   23  HIS23      -0.2212
     18  N        -10.9700   15.7510   23.8840 N.am   24  ALA24      -0.1963
     19  CA       -11.5300   16.7750   24.8160 C.3    24  ALA24       0.1728
     20  C        -12.8420   16.1910   25.4750 C.2    24  ALA24       0.2616
     21  O        -13.6170   15.4660   24.8800 O.2    24  ALA24      -0.2715
     22  CB       -11.8330   18.0500   23.9980 C.3    24  ALA24       0.0334
     23  N        -13.1600   16.5230   26.7340 N.am   25  HIS25      -0.1959
     24  CA       -14.1260   16.1190   27.6780 C.3    25  HIS25       0.1787
     25  C        -14.2310   17.1960   28.7690 C.2    25  HIS25       0.2620
     26  O        -13.4250   18.1010   28.8300 O.2    25  HIS25      -0.2715
     27  CB       -13.7510   14.7720   28.2720 C.3    25  HIS25       0.0785
     28  CG       -12.4330   14.7850   28.9860 C.ar   25  HIS25       0.0821
     29  ND1      -11.2610   14.6230   28.3200 N.ar   25  HIS25      -0.2267
     30  CD2      -12.0960   14.9940   30.2950 C.ar   25  HIS25       0.1154
     31  CE1      -10.2680   14.7070   29.2290 C.ar   25  HIS25       0.1986
     32  NE2      -10.7400   14.9310   30.4350 N.ar   25  HIS25      -0.2212
     33  N        -15.2430   17.1060   29.6290 N.am   26  ASP26      -0.1957
     34  CA       -15.3490   18.0200   30.7780 C.3    26  ASP26       0.1840
     35  C        -15.1070   17.2390   32.0670 C.2    26  ASP26       0.2621
     36  O        -15.7120   16.1990   32.3070 O.2    26  ASP26      -0.2715
     37  CB       -16.7330   18.6960   30.7990 C.3    26  ASP26       0.1450
     38  CG       -16.9210   19.6540   29.6280 C.2    26  ASP26       0.3671
     39  OD1      -16.2240   20.6950   29.5780 O.co2  26  ASP26      -0.2456
     40  OD2      -17.7210   19.3360   28.7170 O.co2  26  ASP26      -0.2456
     41  N        -14.2000   17.7150   32.9110 N.am   27  GLN27      -0.1977
     42  CA       -13.8750   17.0490   34.1430 C.3    27  GLN27       0.1601
     43  C        -15.1050   16.8750   35.0190 C.2    27  GLN27       0.2287
     44  O        -15.4050   15.7560   35.4770 O.2    27  GLN27      -0.2864
     45  CB       -12.7400   17.7470   34.8830 C.3    27  GLN27       0.0394
     46  CG       -11.4420   17.5110   34.1300 C.3    27  GLN27       0.0908
     47  CD       -10.2910   18.3350   34.6830 C.2    27  GLN27       0.2608
     48  OE1       -9.9300   18.2670   35.8590 O.2    27  GLN27      -0.2717
     49  NE2       -9.6970   19.1160   33.8170 N.am   27  GLN27      -0.0878
     50  N         -7.0260   19.2690   36.4240 N.3   169  TYR169     -0.1227
     51  CA        -5.8830   19.2860   35.5430 C.3   169  TYR169      0.1736
     52  C         -6.0770   20.2820   34.4090 C.2   169  TYR169      0.2595
     53  O         -7.2100   20.5100   33.9360 O.2   169  TYR169     -0.2718
     54  CB        -5.5040   17.8820   35.0320 C.3   169  TYR169      0.0548
     55  CG        -6.6210   17.0690   34.4450 C.ar  169  TYR169     -0.0200
     56  CD1       -6.9460   17.1360   33.0980 C.ar  169  TYR169     -0.0009
     57  CD2       -7.3700   16.2050   35.2410 C.ar  169  TYR169     -0.0009
     58  CE1       -7.9900   16.3590   32.5590 C.ar  169  TYR169      0.0417
     59  CE2       -8.3860   15.4340   34.7280 C.ar  169  TYR169      0.0417
     60  CZ        -8.6960   15.5170   33.3800 C.ar  169  TYR169      0.1957
     61  OH        -9.7320   14.7370   32.9330 O.3   169  TYR169     -0.2866
     62  N         -4.9840   20.8640   33.9620 N.am  170  ASP170     -0.1960
     63  CA        -4.9440   21.7120   32.7930 C.3   170  ASP170      0.1840
     64  C         -4.6950   20.9300   31.5110 C.2   170  ASP170      0.2622
     65  O         -5.1480   21.3200   30.4390 O.2   170  ASP170     -0.2715
     66  CB        -3.8630   22.7780   32.9530 C.3   170  ASP170      0.1450
     67  CG        -4.1190   23.6490   34.1760 C.2   170  ASP170      0.3671
     68  OD1       -5.2440   24.2190   34.2400 O.co2 170  ASP170     -0.2456
     69  OD2       -3.2510   23.7280   35.0800 O.co2 170  ASP170     -0.2456
     70  N         -3.9100   19.8490   31.6110 N.am  171  LYS171     -0.1963
     71  CA        -3.7480   18.9900   30.4850 C.3   171  LYS171      0.1728
     72  C         -3.6180   17.5430   30.9720 C.2   171  LYS171      0.2616
     73  O         -3.3390   17.2870   32.1390 O.2   171  LYS171     -0.2715
     74  CB        -2.5380   19.5530   29.7660 C.3   171  LYS171      0.0311
     75  CG        -1.9740   18.8820   28.5360 C.3   171  LYS171      0.0038
     76  CD        -0.6380   19.5950   28.1370 C.3   171  LYS171      0.0206
     77  CE        -0.4630   19.6300   26.6510 C.3   171  LYS171      0.1093
     78  NZ         0.8010   20.2870   26.2010 N.3   171  LYS171     -0.1314
     79  N         -3.9100   16.6410   30.0360 N.am  172  ILE172     -0.1977
     80  CA        -3.9000   15.2160   30.3130 C.3   172  ILE172      0.1596
     81  C         -3.1710   14.5330   29.1700 C.2   172  ILE172      0.2287
     82  O         -3.3500   14.8590   28.0030 O.2   172  ILE172     -0.2864
     83  CB        -5.3210   14.6640   30.5170 C.3   172  ILE172      0.0276
     84  CG1       -5.3220   13.1520   30.8130 C.3   172  ILE172      0.0022
     85  CG2       -6.2630   15.0070   29.3500 C.3   172  ILE172      0.0022
     86  CD1       -6.6840   12.5980   31.1640 C.3   172  ILE172      0.0001
@<TRIPOS>BOND
     1    12     9    1
     2    12    13    1
     3     9     8    1
     4     9    10    1
     5     8     3   am
     6    13    15   ar
     7    13    14   ar
     8    18    10   am
     9    18    19    1
    10    22    19    1
    11     1     2    1
    12     4     3    2
    13     3     2    1
    14    15    17   ar
    15    10    11    2
    16    14    16   ar
    17     2     5    1
    18    19    20    1
    19    21    20    2
    20    17    16   ar
    21    20    23   am
    22    78    77    1
    23     5     7    1
    24     5     6    1
    25    77    76    1
    26    23    24    1
    27    24    27    1
    28    24    25    1
    29    82    81    2
    30    76    75    1
    31    27    28    1
    32    29    28   ar
    33    29    31   ar
    34    75    74    1
    35    40    38   ar
    36    25    26    2
    37    25    33   am
    38    28    30   ar
    39    81    80    1
    40    31    32   ar
    41    85    83    1
    42    39    38   ar
    43    38    37    1
    44    33    34    1
    45    74    71    1
    46    79    80    1
    47    79    72   am
    48    30    32   ar
    49    80    83    1
    50    65    64    2
    51    71    72    1
    52    71    70    1
    53    83    84    1
    54    34    37    1
    55    34    35    1
    56    84    86    1
    57    72    73    2
    58    64    70   am
    59    64    63    1
    60    35    36    2
    61    35    41   am
    62    58    56   ar
    63    58    60   ar
    64    63    66    1
    65    63    62    1
    66    41    42    1
    67    61    60    1
    68    66    67    1
    69    56    55   ar
    70    60    59   ar
    71    49    47   am
    72    53    52    2
    73    62    52   am
    74    46    47    1
    75    46    45    1
    76    42    45    1
    77    42    43    1
    78    67    68   ar
    79    67    69   ar
    80    52    51    1
    81    55    54    1
    82    55    57   ar
    83    47    48    2
    84    59    57   ar
    85    43    44    2
    86    54    51    1
    87    51    50    1
