@<TRIPOS>MOLECULE
tmp/5aksA00.pdb
 92 82 0 0 0
SMALL
GASTEIGER

@<TRIPOS>ATOM
      1  N         17.6600   31.6230   31.3320 N.3     4  MET4       -0.1245
      2  CA        18.9300   32.3510   31.2190 C.3     4  MET4        0.1570
      3  C         19.5010   32.5010   32.6650 C.2     4  MET4        0.2261
      4  O         18.7630   32.5300   33.6660 O.2     4  MET4       -0.2867
      5  CB        18.7450   33.7140   30.5160 C.3     4  MET4        0.0387
      6  CG        20.0990   34.2310   29.9480 C.3     4  MET4        0.0595
      7  SD        20.9450   35.4170   30.9960 S.3     4  MET4       -0.1393
      8  CE        19.9210   36.7990   30.5770 C.3     4  MET4        0.0692
      9  N         22.4990   35.0170   34.6170 N.3     6  LYS6       -0.1245
     10  CA        23.4200   36.1910   34.5480 C.3     6  LYS6        0.1561
     11  C         24.1080   36.3120   35.8900 C.2     6  LYS6        0.2260
     12  O         23.4210   36.3710   36.9000 O.2     6  LYS6       -0.2867
     13  CB        22.6190   37.4420   34.2410 C.3     6  LYS6        0.0271
     14  CG        23.3490   38.7530   34.3320 C.3     6  LYS6        0.0035
     15  CD        24.1580   39.0520   33.0930 C.3     6  LYS6        0.0206
     16  CE        24.7250   40.4740   33.1390 C.3     6  LYS6        0.1093
     17  NZ        25.4910   40.7890   31.9270 N.3     6  LYS6       -0.1314
     18  N         27.1580   38.4370   38.1600 N.3     8  LEU8       -0.1245
     19  CA        28.0080   39.6210   38.3030 C.3     8  LEU8        0.1561
     20  C         28.9210   39.4040   39.5130 C.2     8  LEU8        0.2260
     21  O         28.5210   38.7470   40.5080 O.2     8  LEU8       -0.2867
     22  CB        27.1780   40.8520   38.4720 C.3     8  LEU8        0.0270
     23  CG        26.3330   41.2520   37.2920 C.3     8  LEU8        0.0019
     24  CD1       25.4910   42.4660   37.6460 C.3     8  LEU8        0.0001
     25  CD2       27.1590   41.5100   36.0640 C.3     8  LEU8        0.0001
     26  N         31.2460   41.3280   34.9230 N.3    15  PRO15      -0.2116
     27  CA        30.6020   40.0230   34.7990 C.3    15  PRO15       0.1372
     28  C         31.4290   39.0010   35.4860 C.2    15  PRO15       0.2244
     29  O         32.6580   39.0930   35.6110 O.2    15  PRO15      -0.2868
     30  CB        30.5710   39.7600   33.3060 C.3    15  PRO15       0.0268
     31  CG        31.6090   40.6750   32.7090 C.3    15  PRO15       0.0207
     32  CD        31.6170   41.8800   33.5970 C.3    15  PRO15       0.0892
     33  N         30.5120   37.6900   29.0770 N.3    43  SER43      -0.1217
     34  CA        29.5380   38.6520   29.5360 C.3    43  SER43       0.1889
     35  C         28.7830   38.3080   30.8380 C.2    43  SER43       0.2288
     36  O         27.8920   38.9880   31.2590 O.2    43  SER43      -0.2866
     37  CB        28.5040   39.0050   28.4620 C.3    43  SER43       0.2089
     38  OG        27.7800   37.8860   28.1550 O.3    43  SER43      -0.2183
     39  N         26.9000   35.7310   31.1480 N.3    45  GLU45      -0.1245
     40  CA        25.6280   35.1410   30.8040 C.3    45  GLU45       0.1567
     41  C         25.7690   33.7240   30.3530 C.2    45  GLU45       0.2260
     42  O         26.7750   33.3020   29.7970 O.2    45  GLU45      -0.2867
     43  CB        24.9440   35.9530   29.7120 C.3    45  GLU45       0.0388
     44  CG        24.5810   37.3170   30.1980 C.3    45  GLU45       0.1160
     45  CD        23.9750   38.2020   29.1350 C.2    45  GLU45       0.3649
     46  OE1       23.8330   37.7470   27.9710 O.co2  45  GLU45      -0.2457
     47  OE2       23.6470   39.3680   29.4730 O.co2  45  GLU45      -0.2457
     48  N         14.9290   34.6570   33.7280 N.3    97  THR97      -0.1218
     49  CA        16.3350   35.0510   33.9130 C.3    97  THR97       0.1862
     50  C         16.6280   35.0090   35.3840 C.2    97  THR97       0.2287
     51  O         15.9530   35.6680   36.1800 O.2    97  THR97      -0.2866
     52  CB        16.6190   36.4420   33.3710 C.3    97  THR97       0.1770
     53  OG1       16.3570   36.4600   31.9590 O.3    97  THR97      -0.2211
     54  CG2       18.0730   36.7970   33.5810 C.3    97  THR97       0.0375
     55  N         19.3570   35.9920   37.9540 N.3    99  ALA99      -0.1231
     56  CA        20.5280   36.8190   38.1230 C.3    99  ALA99       0.1694
     57  C         21.1050   36.6730   39.5030 C.2    99  ALA99       0.2592
     58  O         20.3680   36.4620   40.4810 O.2    99  ALA99      -0.2718
     59  CB        20.1650   38.2350   37.8670 C.3    99  ALA99       0.0304
     60  N         22.4160   36.7210   39.6080 N.am  100  ALA100     -0.1966
     61  CA        23.1110   36.6290   40.8930 C.3   100  ALA100      0.1728
     62  C         24.2630   37.6210   40.9080 C.2   100  ALA100      0.2616
     63  O         24.9800   37.7670   39.9180 O.2   100  ALA100     -0.2715
     64  CB        23.5870   35.2850   41.0930 C.3   100  ALA100      0.0334
     65  N         24.4220   38.2390   42.0630 N.am  101  LEU101     -0.1977
     66  CA        25.5000   39.2210   42.3630 C.3   101  LEU101      0.1596
     67  C         26.3600   38.6020   43.4500 C.2   101  LEU101      0.2287
     68  O         25.8150   38.3620   44.5700 O.2   101  LEU101     -0.2864
     69  CB        24.8680   40.5290   42.7450 C.3   101  LEU101      0.0297
     70  CG        25.9110   41.5870   43.1860 C.3   101  LEU101      0.0022
     71  CD1       26.7940   42.0330   42.0420 C.3   101  LEU101      0.0001
     72  CD2       25.2180   42.7670   43.7500 C.3   101  LEU101      0.0001
     73  N         23.3350   37.9150   46.2630 N.3   108  SER108     -0.1217
     74  CA        21.9460   38.3310   46.0730 C.3   108  SER108      0.1889
     75  C         21.4540   37.8830   44.7070 C.2   108  SER108      0.2288
     76  O         22.1310   38.0490   43.7020 O.2   108  SER108     -0.2866
     77  CB        21.8230   39.8010   46.1110 C.3   108  SER108      0.2089
     78  OG        22.3500   40.2900   44.9190 O.3   108  SER108     -0.2183
     79  N         18.0350   37.2040   41.9940 N.3   110  THR110     -0.1218
     80  CA        16.8470   37.8560   41.5390 C.3   110  THR110      0.1862
     81  C         16.2800   36.9680   40.4580 C.2   110  THR110      0.2287
     82  O         16.9900   36.2040   39.9290 O.2   110  THR110     -0.2866
     83  CB        17.2590   39.2110   40.9930 C.3   110  THR110      0.1770
     84  OG1       17.9470   39.9190   42.0350 O.3   110  THR110     -0.2211
     85  CG2       16.0940   40.0070   40.5990 C.3   110  THR110      0.0375
     86  N         13.7920   37.4740   36.9070 N.3   112  VAL112     -0.1245
     87  CA        12.9870   38.2630   35.9850 C.3   112  VAL112      0.1561
     88  C         12.2080   37.2800   35.1360 C.2   112  VAL112      0.2260
     89  O         12.8270   36.4160   34.4530 O.2   112  VAL112     -0.2867
     90  CB        13.8000   39.1470   35.0920 C.3   112  VAL112      0.0252
     91  CG1       12.9020   39.8910   34.1290 C.3   112  VAL112      0.0019
     92  CG2       14.5700   40.1650   35.8970 C.3   112  VAL112      0.0019
@<TRIPOS>BOND
     1    46    45   ar
     2    38    37    1
     3    37    34    1
     4    33    34    1
     5    45    47   ar
     6    45    44    1
     7    34    35    1
     8    43    44    1
     9    43    40    1
    10    42    41    2
    11     6     5    1
    12     6     7    1
    13    41    40    1
    14     5     2    1
    15     8     7    1
    16    40    39    1
    17    35    36    2
    18     2     1    1
    19     2     3    1
    20    17    16    1
    21    53    52    1
    22     3     4    2
    23    31    30    1
    24    31    32    1
    25    15    16    1
    26    15    14    1
    27    30    27    1
    28    52    54    1
    29    52    49    1
    30    32    26    1
    31    48    49    1
    32    49    50    1
    33    91    90    1
    34    13    14    1
    35    13    10    1
    36    89    88    2
    37    10     9    1
    38    10    11    1
    39    27    26    1
    40    27    28    1
    41    90    92    1
    42    90    87    1
    43    88    87    1
    44    50    51    2
    45    28    29    2
    46    11    12    2
    47    87    86    1
    48    25    23    1
    49    23    24    1
    50    23    22    1
    51    59    56    1
    52    55    56    1
    53    56    57    1
    54    18    19    1
    55    19    22    1
    56    19    20    1
    57    57    60   am
    58    57    58    2
    59    20    21    2
    60    60    61    1
    61    63    62    2
    62    82    81    2
    63    81    80    1
    64    85    83    1
    65    61    62    1
    66    61    64    1
    67    62    65   am
    68    83    80    1
    69    83    84    1
    70    80    79    1
    71    71    70    1
    72    65    66    1
    73    66    69    1
    74    66    67    1
    75    69    70    1
    76    70    72    1
    77    67    68    2
    78    76    75    2
    79    75    74    1
    80    78    77    1
    81    74    77    1
    82    74    73    1
