@<TRIPOS>MOLECULE
tmp/5aktA00.pdb
 79 72 0 0 0
SMALL
GASTEIGER

@<TRIPOS>ATOM
      1  N         17.6390   31.6030   31.2770 N.3     4  MET4       -0.1245
      2  CA        18.9300   32.2800   31.1810 C.3     4  MET4        0.1570
      3  C         19.4740   32.4820   32.5950 C.2     4  MET4        0.2261
      4  O         18.7170   32.5390   33.5640 O.2     4  MET4       -0.2867
      5  CB        18.7790   33.6350   30.4600 C.3     4  MET4        0.0387
      6  CG        20.0830   34.2050   29.8810 C.3     4  MET4        0.0595
      7  SD        20.9260   35.3800   30.9620 S.3     4  MET4       -0.1393
      8  CE        20.0780   36.8900   30.5880 C.3     4  MET4        0.0692
      9  N         22.4560   35.0050   34.5360 N.3     6  LYS6       -0.1245
     10  CA        23.3700   36.1660   34.4250 C.3     6  LYS6        0.1561
     11  C         24.0460   36.3820   35.7730 C.2     6  LYS6        0.2260
     12  O         23.3340   36.4630   36.7630 O.2     6  LYS6       -0.2867
     13  CB        22.5960   37.4100   34.0240 C.3     6  LYS6        0.0271
     14  CG        23.5160   38.5280   33.6840 C.3     6  LYS6        0.0035
     15  CD        23.1680   39.7920   34.3790 C.3     6  LYS6        0.0206
     16  CE        24.3810   40.6640   34.3160 C.3     6  LYS6        0.1093
     17  NZ        24.7940   40.8550   32.8780 N.3     6  LYS6       -0.1314
     18  N         27.0520   38.6060   38.0480 N.3     8  LEU8       -0.1245
     19  CA        27.9250   39.7690   38.2050 C.3     8  LEU8        0.1561
     20  C         28.8300   39.5570   39.4190 C.2     8  LEU8        0.2260
     21  O         28.4430   38.9280   40.4000 O.2     8  LEU8       -0.2867
     22  CB        27.0940   41.0330   38.3910 C.3     8  LEU8        0.0270
     23  CG        26.2380   41.4160   37.1870 C.3     8  LEU8        0.0019
     24  CD1       25.4530   42.6650   37.5450 C.3     8  LEU8        0.0001
     25  CD2       27.1080   41.6810   35.9770 C.3     8  LEU8        0.0001
     26  N         26.8840   35.8180   31.0390 N.3    45  GLU45      -0.1245
     27  CA        25.5970   35.2140   30.7050 C.3    45  GLU45       0.1567
     28  C         25.7380   33.7780   30.2860 C.2    45  GLU45       0.2260
     29  O         26.7480   33.3600   29.7100 O.2    45  GLU45      -0.2867
     30  CB        24.9050   36.0010   29.5900 C.3    45  GLU45       0.0388
     31  CG        24.6350   37.4370   29.9700 C.3    45  GLU45       0.1160
     32  CD        23.6550   38.1420   29.0410 C.2    45  GLU45       0.3649
     33  OE1       23.4340   37.6730   27.9060 O.co2  45  GLU45      -0.2457
     34  OE2       23.0930   39.1720   29.4610 O.co2  45  GLU45      -0.2457
     35  N         14.8900   34.7060   33.6490 N.3    97  THR97      -0.1218
     36  CA        16.2820   35.0870   33.8240 C.3    97  THR97       0.1862
     37  C         16.5860   35.0400   35.3090 C.2    97  THR97       0.2287
     38  O         15.9100   35.6720   36.1040 O.2    97  THR97      -0.2866
     39  CB        16.6000   36.4460   33.2700 C.3    97  THR97       0.1770
     40  OG1       16.3210   36.4680   31.8740 O.3    97  THR97      -0.2211
     41  CG2       18.0650   36.6740   33.4450 C.3    97  THR97       0.0375
     42  N         19.2970   36.0410   37.8740 N.3    99  ALA99      -0.1231
     43  CA        20.4380   36.9290   37.9950 C.3    99  ALA99       0.1694
     44  C         21.0430   36.7480   39.3760 C.2    99  ALA99       0.2592
     45  O         20.3290   36.4480   40.3460 O.2    99  ALA99      -0.2718
     46  CB        20.0130   38.3060   37.8330 C.3    99  ALA99       0.0304
     47  N         22.3570   36.9050   39.4830 N.am  100  ALA100     -0.1966
     48  CA        23.0370   36.7910   40.7650 C.3   100  ALA100      0.1728
     49  C         24.1760   37.7840   40.8010 C.2   100  ALA100      0.2616
     50  O         24.8430   38.0130   39.7980 O.2   100  ALA100     -0.2715
     51  CB        23.5610   35.4290   40.9770 C.3   100  ALA100      0.0334
     52  N         24.3850   38.3560   41.9750 N.am  101  LEU101     -0.1977
     53  CA        25.4460   39.3350   42.2180 C.3   101  LEU101      0.1596
     54  C         26.3070   38.7710   43.3390 C.2   101  LEU101      0.2287
     55  O         25.7880   38.5440   44.4490 O.2   101  LEU101     -0.2864
     56  CB        24.8350   40.6610   42.6260 C.3   101  LEU101      0.0297
     57  CG        25.8150   41.7460   43.0730 C.3   101  LEU101      0.0022
     58  CD1       26.7370   42.1460   41.9340 C.3   101  LEU101      0.0001
     59  CD2       24.9830   42.9180   43.5690 C.3   101  LEU101      0.0001
     60  N         23.3000   37.9970   46.1750 N.3   108  SER108     -0.1202
     61  CA        21.8830   38.2240   45.9950 C.3   108  SER108      0.2020
     62  C         21.4840   37.6910   44.6400 C.2   108  SER108      0.2619
     63  O         22.2040   37.8920   43.6560 O.2   108  SER108     -0.2717
     64  CB        21.5630   39.7070   46.1170 C.3   108  SER108      0.2103
     65  OG        22.1430   40.4730   45.0760 O.3   108  SER108     -0.2182
     66  N         20.3690   36.9690   44.6080 N.am  109  THR109     -0.1938
     67  CA        19.7930   36.5040   43.3540 C.3   109  THR109      0.2028
     68  C         18.4480   37.1530   43.1220 C.2   109  THR109      0.2642
     69  O         17.7370   37.5010   44.0630 O.2   109  THR109     -0.2714
     70  CB        19.6070   34.9660   43.2910 C.3   109  THR109      0.1808
     71  OG1       18.6880   34.5230   44.3050 O.3   109  THR109     -0.2208
     72  CG2       20.9350   34.2600   43.4480 C.3   109  THR109      0.0379
     73  N         18.0810   37.3010   41.8590 N.am  110  THR110     -0.1950
     74  CA        16.7870   37.8530   41.4910 C.3   110  THR110      0.1897
     75  C         16.2440   37.0100   40.3460 C.2   110  THR110      0.2313
     76  O         16.9850   36.2330   39.7490 O.2   110  THR110     -0.2863
     77  CB        16.8800   39.3680   41.1190 C.3   110  THR110      0.1794
     78  OG1       15.5880   39.8880   40.7830 O.3   110  THR110     -0.2208
     79  CG2       17.8020   39.5830   39.9780 C.3   110  THR110      0.0378
@<TRIPOS>BOND
     1    33    32   ar
     2    32    34   ar
     3    32    31    1
     4    30    31    1
     5    30    27    1
     6    29    28    2
     7     6     5    1
     8     6     7    1
     9    28    27    1
    10     5     2    1
    11     8     7    1
    12    27    26    1
    13     2     1    1
    14     2     3    1
    15    40    39    1
    16     3     4    2
    17    17    16    1
    18    39    41    1
    19    39    36    1
    20    35    36    1
    21    14    13    1
    22    14    15    1
    23    36    37    1
    24    13    10    1
    25    16    15    1
    26    10     9    1
    27    10    11    1
    28    37    38    2
    29    11    12    2
    30    25    23    1
    31    23    24    1
    32    23    22    1
    33    46    43    1
    34    42    43    1
    35    43    44    1
    36    18    19    1
    37    19    22    1
    38    19    20    1
    39    44    47   am
    40    44    45    2
    41    20    21    2
    42    47    48    1
    43    76    75    2
    44    50    49    2
    45    79    77    1
    46    75    74    1
    47    48    49    1
    48    48    51    1
    49    78    77    1
    50    49    52   am
    51    77    74    1
    52    74    73    1
    53    73    68   am
    54    58    57    1
    55    52    53    1
    56    53    56    1
    57    53    54    1
    58    56    57    1
    59    57    59    1
    60    68    67    1
    61    68    69    2
    62    70    67    1
    63    70    72    1
    64    70    71    1
    65    54    55    2
    66    67    66    1
    67    63    62    2
    68    66    62   am
    69    62    61    1
    70    65    64    1
    71    61    64    1
    72    61    60    1
