@<TRIPOS>MOLECULE
tmp/5akuA00.pdb
 169 170 0 0 0
SMALL
GASTEIGER

@<TRIPOS>ATOM
      1  N        -50.0910  -39.6440   11.8450 N.3    80  HIS80      -0.1226
      2  CA       -50.3230  -40.0170   13.2320 C.3    80  HIS80       0.1752
      3  C        -50.6300  -38.7750   14.0640 C.2    80  HIS80       0.2597
      4  O        -49.8340  -37.8200   14.0710 O.2    80  HIS80      -0.2718
      5  CB       -49.1100  -40.7290   13.8180 C.3    80  HIS80       0.0759
      6  CG       -49.3200  -41.2260   15.2100 C.ar   80  HIS80       0.0818
      7  ND1      -49.9070  -42.4460   15.4840 N.ar   80  HIS80      -0.2268
      8  CD2      -49.0330  -40.6680   16.4110 C.ar   80  HIS80       0.1154
      9  CE1      -49.9630  -42.6200   16.7920 C.ar   80  HIS80       0.1986
     10  NE2      -49.4440  -41.5560   17.3780 N.ar   80  HIS80      -0.2212
     11  N        -51.7840  -38.7910   14.7280 N.am   81  GLY81      -0.1942
     12  CA       -52.1860  -37.7360   15.6590 C.3    81  GLY81       0.2014
     13  C        -52.2040  -38.2660   17.0780 C.2    81  GLY81       0.2640
     14  O        -52.6800  -39.3690   17.3300 O.2    81  GLY81      -0.2714
     15  N        -51.6960  -37.4850   18.0230 N.am   82  SER82      -0.1936
     16  CA       -51.6130  -37.9480   19.3890 C.3    82  SER82       0.2040
     17  C        -51.3120  -36.7800   20.3050 C.2    82  SER82       0.2485
     18  O        -50.5580  -35.8780   19.9200 O.2    82  SER82      -0.2729
     19  CB       -50.4750  -38.9530   19.5280 C.3    82  SER82       0.2129
     20  OG       -50.2570  -39.2870   20.8820 O.3    82  SER82      -0.2179
     21  N        -51.8540  -36.8200   21.5310 N.am   83  PRO83      -0.2715
     22  CA       -51.3980  -35.8500   22.5280 C.3    83  PRO83       0.1536
     23  C        -49.9170  -36.0110   22.8890 C.2    83  PRO83       0.2598
     24  O        -49.3640  -35.1210   23.5170 O.2    83  PRO83      -0.2715
     25  CB       -52.2840  -36.1190   23.7580 C.3    83  PRO83       0.0310
     26  CG       -53.2460  -37.1710   23.3830 C.3    83  PRO83       0.0237
     27  CD       -52.8550  -37.7610   22.0620 C.3    83  PRO83       0.0939
     28  N        -49.2640  -37.0990   22.4810 N.am   84  PHE84      -0.1974
     29  CA       -47.8760  -37.3190   22.8730 C.3    84  PHE84       0.1639
     30  C        -46.8840  -37.0080   21.7610 C.2    84  PHE84       0.2290
     31  O        -45.7380  -37.4330   21.8060 O.2    84  PHE84      -0.2864
     32  CB       -47.7150  -38.7360   23.4080 C.3    84  PHE84       0.0560
     33  CG       -48.7060  -39.0750   24.4860 C.ar   84  PHE84      -0.0200
     34  CD1      -48.8640  -38.2380   25.5890 C.ar   84  PHE84      -0.0042
     35  CD2      -49.4920  -40.2080   24.3980 C.ar   84  PHE84      -0.0042
     36  CE1      -49.7870  -38.5350   26.5830 C.ar   84  PHE84      -0.0003
     37  CE2      -50.4090  -40.5160   25.3890 C.ar   84  PHE84      -0.0003
     38  CZ       -50.5600  -39.6790   26.4800 C.ar   84  PHE84      -0.0000
     39  N        -46.1390  -46.7950   25.1250 N.3    96  ARG96      -0.1231
     40  CA       -46.9700  -45.7240   25.6930 C.3    96  ARG96       0.1694
     41  C        -47.8320  -45.0170   24.6400 C.2    96  ARG96       0.2592
     42  O        -48.8170  -44.3640   24.9830 O.2    96  ARG96      -0.2718
     43  CB       -46.1030  -44.6760   26.3780 C.3    96  ARG96       0.0321
     44  CG       -45.0720  -45.2470   27.3400 C.3    96  ARG96       0.0489
     45  CD       -44.2590  -44.1490   28.0120 C.3    96  ARG96       0.2205
     46  NE       -43.1370  -43.6530   27.2030 N.pl3  96  ARG96      -0.0865
     47  CZ       -43.1170  -42.5060   26.5150 C.cat  96  ARG96       0.5346
     48  NH1      -44.1720  -41.6890   26.4860 N.pl3  96  ARG96       0.1354
     49  NH2      -42.0200  -42.1680   25.8380 N.pl3  96  ARG96       0.1354
     50  N        -47.4410  -45.1250   23.3670 N.am   97  HIS97      -0.1962
     51  CA       -48.1800  -44.4830   22.2600 C.3    97  HIS97       0.1787
     52  C        -49.1790  -45.4050   21.5680 C.2    97  HIS97       0.2620
     53  O        -49.7790  -45.0140   20.5640 O.2    97  HIS97      -0.2715
     54  CB       -47.1820  -43.8770   21.2780 C.3    97  HIS97       0.0785
     55  CG       -46.1730  -43.0300   21.9720 C.ar   97  HIS97       0.0821
     56  ND1      -44.8180  -43.2310   21.8550 N.ar   97  HIS97      -0.2267
     57  CD2      -46.3290  -42.0610   22.9020 C.ar   97  HIS97       0.1154
     58  CE1      -44.1780  -42.3820   22.6380 C.ar   97  HIS97       0.1986
     59  NE2      -45.0730  -41.6630   23.2880 N.ar   97  HIS97      -0.2212
     60  N        -49.3800  -46.6000   22.1380 N.am   98  ALA98      -0.1963
     61  CA       -50.3070  -47.5930   21.5900 C.3    98  ALA98       0.1728
     62  C        -51.7340  -47.3050   21.9930 C.2    98  ALA98       0.2616
     63  O        -51.9930  -46.7670   23.0650 O.2    98  ALA98      -0.2715
     64  CB       -49.9370  -48.9980   22.0450 C.3    98  ALA98       0.0334
     65  N        -52.6450  -47.7190   21.1210 N.am   99  TYR99      -0.1960
     66  CA       -54.0730  -47.5530   21.2880 C.3    99  TYR99       0.1771
     67  C        -54.5800  -48.9050   21.7520 C.2    99  TYR99       0.2619
     68  O        -54.8360  -49.8150   20.9390 O.2    99  TYR99      -0.2715
     69  CB       -54.6940  -47.1290   19.9550 C.3    99  TYR99       0.0574
     70  CG       -56.1720  -46.8240   19.9730 C.ar   99  TYR99      -0.0198
     71  CD1      -56.8720  -46.6860   21.1710 C.ar   99  TYR99      -0.0009
     72  CD2      -56.8700  -46.6370   18.7850 C.ar   99  TYR99      -0.0009
     73  CE1      -58.2120  -46.3940   21.1830 C.ar   99  TYR99       0.0417
     74  CE2      -58.2200  -46.3300   18.7920 C.ar   99  TYR99       0.0417
     75  CZ       -58.8750  -46.2130   20.0040 C.ar   99  TYR99       0.1957
     76  OH       -60.2080  -45.9430   20.0650 O.3    99  TYR99      -0.2866
     77  N        -54.6800  -49.0390   23.0720 N.am  100  ILE100     -0.1977
     78  CA       -54.8980  -50.3460   23.6900 C.3   100  ILE100      0.1596
     79  C        -56.2730  -50.8560   23.2900 C.2   100  ILE100      0.2287
     80  O        -56.4330  -52.0360   23.0300 O.2   100  ILE100     -0.2864
     81  CB       -54.7380  -50.3380   25.2400 C.3   100  ILE100      0.0276
     82  CG1      -53.3580  -49.8020   25.6720 C.3   100  ILE100      0.0022
     83  CG2      -54.9390  -51.7440   25.8140 C.3   100  ILE100      0.0022
     84  CD1      -52.1600  -50.5860   25.1560 C.3   100  ILE100      0.0020
     85  N        -51.3300  -46.8880   15.8360 N.3   109  TYR109     -0.1227
     86  CA       -52.2120  -46.7360   14.7020 C.3   109  TYR109      0.1736
     87  C        -51.8150  -45.5520   13.8410 C.2   109  TYR109      0.2595
     88  O        -51.4880  -44.4980   14.3680 O.2   109  TYR109     -0.2718
     89  CB       -53.6260  -46.4770   15.1850 C.3   109  TYR109      0.0548
     90  CG       -54.3440  -47.7090   15.6200 C.ar  109  TYR109     -0.0200
     91  CD1      -53.8300  -48.5160   16.6190 C.ar  109  TYR109     -0.0009
     92  CD2      -55.5380  -48.0880   15.0150 C.ar  109  TYR109     -0.0009
     93  CE1      -54.4950  -49.6570   17.0350 C.ar  109  TYR109      0.0417
     94  CE2      -56.2060  -49.2340   15.4230 C.ar  109  TYR109      0.0417
     95  CZ       -55.6630  -50.0210   16.4310 C.ar  109  TYR109      0.1957
     96  OH       -56.2940  -51.1760   16.8620 O.3   109  TYR109     -0.2866
     97  N        -51.9230  -45.7180   12.5300 N.am  110  PHE110     -0.1962
     98  CA       -51.5850  -44.6830   11.5660 C.3   110  PHE110      0.1771
     99  C        -52.6920  -44.6270   10.5340 C.2   110  PHE110      0.2619
    100  O        -53.3720  -45.6320   10.2960 O.2   110  PHE110     -0.2715
    101  CB       -50.2520  -45.0100   10.8920 C.3   110  PHE110      0.0574
    102  CG       -49.0830  -44.9910   11.8270 C.ar  110  PHE110     -0.0200
    103  CD1      -48.7650  -46.1040   12.5930 C.ar  110  PHE110     -0.0042
    104  CD2      -48.2880  -43.8490   11.9510 C.ar  110  PHE110     -0.0042
    105  CE1      -47.6870  -46.0830   13.4580 C.ar  110  PHE110     -0.0003
    106  CE2      -47.2230  -43.8180   12.8270 C.ar  110  PHE110     -0.0003
    107  CZ       -46.9160  -44.9340   13.5810 C.ar  110  PHE110     -0.0000
    108  N        -52.8670  -43.4680    9.9040 N.am  111  ALA111     -0.1977
    109  CA       -53.9630  -43.2590    8.9520 C.3   111  ALA111      0.1597
    110  C        -53.4910  -42.7560    7.5910 C.2   111  ALA111      0.2287
    111  O        -52.5890  -41.9170    7.5040 O.2   111  ALA111     -0.2864
    112  CB       -54.9680  -42.2570    9.5180 C.3   111  ALA111      0.0319
    113  N        -58.5370  -38.4740    9.7940 N.3   116  LYS116     -0.1231
    114  CA       -58.6400  -39.5560   10.7930 C.3   116  LYS116      0.1693
    115  C        -57.6660  -39.3080   11.9400 C.2   116  LYS116      0.2592
    116  O        -58.0560  -39.3380   13.1040 O.2   116  LYS116     -0.2718
    117  CB       -58.4090  -40.9250   10.1450 C.3   116  LYS116      0.0285
    118  CG       -58.2340  -42.0960   11.1030 C.3   116  LYS116      0.0035
    119  CD       -59.3750  -42.2640   12.0990 C.3   116  LYS116      0.0206
    120  CE       -60.7160  -42.4940   11.4610 C.3   116  LYS116      0.1093
    121  NZ       -61.6890  -42.8120   12.5390 N.3   116  LYS116     -0.1314
    122  N        -56.4100  -39.0000   11.6130 N.am  117  SER117     -0.1952
    123  CA       -55.4020  -38.7140   12.6400 C.3   117  SER117      0.1924
    124  C        -55.7450  -37.4510   13.4180 C.2   117  SER117      0.2314
    125  O        -55.4990  -37.3900   14.6370 O.2   117  SER117     -0.2863
    126  CB       -54.0000  -38.6130   12.0410 C.3   117  SER117      0.2116
    127  OG       -53.5860  -39.8740   11.5670 O.3   117  SER117     -0.2180
    128  N        -57.4980  -37.6720   16.7890 N.3   120  TYR120     -0.1241
    129  CA       -56.7480  -38.1240   17.9560 C.3   120  TYR120      0.1605
    130  C        -55.7550  -37.1050   18.5230 C.2   120  TYR120      0.2264
    131  O        -55.1290  -37.3830   19.5130 O.2   120  TYR120     -0.2867
    132  CB       -56.0160  -39.4330   17.6430 C.3   120  TYR120      0.0534
    133  CG       -56.9800  -40.5620   17.4260 C.ar  120  TYR120     -0.0201
    134  CD1      -57.5360  -40.7910   16.1720 C.ar  120  TYR120     -0.0009
    135  CD2      -57.3970  -41.3640   18.4880 C.ar  120  TYR120     -0.0009
    136  CE1      -58.4470  -41.8150   15.9730 C.ar  120  TYR120      0.0417
    137  CE2      -58.3100  -42.3910   18.2890 C.ar  120  TYR120      0.0417
    138  CZ       -58.8240  -42.6050   17.0350 C.ar  120  TYR120      0.1957
    139  OH       -59.7180  -43.6110   16.8290 O.3   120  TYR120     -0.2866
    140  N        -56.6320  -36.5230   21.9160 N.3   123  GLY123     -0.1210
    141  CA       -56.8520  -37.7800   22.6480 C.3   123  GLY123      0.1956
    142  C        -57.9290  -38.6210   21.9780 C.2   123  GLY123      0.2611
    143  O        -58.5010  -38.2020   20.9800 O.2   123  GLY123     -0.2717
    144  N        -58.2130  -39.7950   22.5360 N.am  124  ILE124     -0.1979
    145  CA       -59.2540  -40.6830   21.9930 C.3   124  ILE124      0.1595
    146  C        -60.6020  -39.9510   21.9460 C.2   124  ILE124      0.2287
    147  O        -60.9960  -39.3050   22.9130 O.2   124  ILE124     -0.2864
    148  CB       -59.3670  -41.9760   22.8300 C.3   124  ILE124      0.0276
    149  CG1      -58.1150  -42.8450   22.6420 C.3   124  ILE124      0.0022
    150  CG2      -60.6100  -42.7700   22.4550 C.3   124  ILE124      0.0022
    151  CD1      -57.9080  -43.8440   23.7660 C.3   124  ILE124      0.0001
    152  N        -52.2640  -52.1690   21.6870 N.3   163  LYS163     -0.1245
    153  CA       -51.4240  -51.1690   22.3110 C.3   163  LYS163      0.1561
    154  C        -50.0910  -51.7330   22.7710 C.2   163  LYS163      0.2260
    155  O        -49.0570  -51.0650   22.8090 O.2   163  LYS163     -0.2867
    156  CB       -52.1220  -50.5270   23.5260 C.3   163  LYS163      0.0253
    157  CG       -51.9360  -49.0190   23.6490 C.3   163  LYS163      0.0034
    158  CD       -50.6120  -48.6300   24.3150 C.3   163  LYS163      0.0206
    159  CE       -50.6430  -47.1790   24.7650 C.3   163  LYS163      0.1093
    160  NZ       -51.8850  -46.8950   25.5680 N.3   163  LYS163     -0.1314
    161  N        -56.3880  -47.7080    7.6330 N.3   187  GLU187     -0.1245
    162  CA       -55.7120  -47.4570    8.8860 C.3   187  GLU187      0.1567
    163  C        -54.7710  -48.6370    9.0750 C.2   187  GLU187      0.2260
    164  O        -55.0490  -49.7420    8.6010 O.2   187  GLU187     -0.2867
    165  CB       -56.7490  -47.3180   10.0100 C.3   187  GLU187      0.0388
    166  CG       -57.6790  -46.1350    9.7330 C.3   187  GLU187      0.1160
    167  CD       -59.0030  -46.1440   10.4780 C.2   187  GLU187      0.3649
    168  OE1      -59.0930  -46.7300   11.5760 O.co2 187  GLU187     -0.2457
    169  OE2      -59.9620  -45.5310    9.9500 O.co2 187  GLU187     -0.2457
@<TRIPOS>BOND
     1   111   110    2
     2   110   109    1
     3   161   162    1
     4   164   163    2
     5   162   163    1
     6   162   165    1
     7   109   112    1
     8   109   108    1
     9   166   165    1
    10   166   167    1
    11   113   114    1
    12   108    99   am
    13   169   167   ar
    14   117   114    1
    15   117   118    1
    16   100    99    2
    17   167   168   ar
    18    99    98    1
    19   114   115    1
    20   101    98    1
    21   101   102    1
    22   118   119    1
    23   120   119    1
    24   120   121    1
    25    98    97    1
    26   127   126    1
    27   122   115   am
    28   122   123    1
    29   102   104   ar
    30   102   103   ar
    31     1     2    1
    32   115   116    2
    33   104   106   ar
    34   126   123    1
    35    97    87   am
    36   103   105   ar
    37   123   124    1
    38   106   107   ar
    39     2     5    1
    40     2     3    1
    41   124   125    2
    42   105   107   ar
    43     5     6    1
    44    87    88    2
    45    87    86    1
    46     3     4    2
    47     3    11   am
    48    86    89    1
    49    86    85    1
    50    11    12    1
    51    92    94   ar
    52    92    90   ar
    53    89    90    1
    54     6     7   ar
    55     6     8   ar
    56    94    95   ar
    57     7     9   ar
    58    90    91   ar
    59    12    13    1
    60   136   134   ar
    61   136   138   ar
    62   134   133   ar
    63     8    10   ar
    64    95    96    1
    65    95    93   ar
    66    91    93   ar
    67   128   129    1
    68     9    10   ar
    69   139   138    1
    70   138   137   ar
    71    13    14    2
    72    13    15   am
    73   133   132    1
    74   133   135   ar
    75   132   129    1
    76   129   130    1
    77    15    16    1
    78   137   135   ar
    79   130   131    2
    80    72    74   ar
    81    72    70   ar
    82    74    75   ar
    83    16    19    1
    84    16    17    1
    85    19    20    1
    86    18    17    2
    87    69    70    1
    88    69    66    1
    89    70    71   ar
    90    75    76    1
    91    75    73   ar
    92    17    21   am
    93    53    52    2
    94    68    67    2
    95   143   142    2
    96    65    66    1
    97    65    62   am
    98    71    73   ar
    99    54    55    1
   100    54    51    1
   101    66    67    1
   102    21    27    1
   103    21    22    1
   104    52    60   am
   105    52    51    1
   106    61    62    1
   107    61    64    1
   108    61    60    1
   109   152   153    1
   110    67    77   am
   111    30    31    2
   112    30    29    1
   113    56    55   ar
   114    56    58   ar
   115   140   141    1
   116   146   145    1
   117   146   147    2
   118    55    57   ar
   119   142   144   am
   120   142   141    1
   121   145   144    1
   122   145   148    1
   123    62    63    2
   124    27    26    1
   125    51    50    1
   126   153   154    1
   127   153   156    1
   128   150   148    1
   129    28    29    1
   130    28    23   am
   131    22    23    1
   132    22    25    1
   133    58    59   ar
   134   149   148    1
   135   149   151    1
   136   154   155    2
   137    29    32    1
   138    23    24    2
   139    57    59   ar
   140    80    79    2
   141    77    78    1
   142    79    78    1
   143    50    41   am
   144    26    25    1
   145    32    33    1
   146   156   157    1
   147   156    84    1
   148   157   158    1
   149    78    81    1
   150   158   159    1
   151    35    33   ar
   152    35    37   ar
   153    33    34   ar
   154    41    42    2
   155    41    40    1
   156   159   160    1
   157    39    40    1
   158    84    82    1
   159    81    82    1
   160    81    83    1
   161    37    38   ar
   162    34    36   ar
   163    40    43    1
   164    49    47    1
   165    43    44    1
   166    38    36   ar
   167    48    47    1
   168    47    46    2
   169    46    45    1
   170    44    45    1
