@<TRIPOS>MOLECULE
tmp/5akxA00.pdb
 151 149 0 0 0
SMALL
GASTEIGER

@<TRIPOS>ATOM
      1  N         20.4040   15.7020   16.1310 N.3   266  PHE266     -0.1228
      2  CA        21.4720   14.7180   15.9930 C.3   266  PHE266      0.1721
      3  C         21.6620   14.1990   14.5680 C.2   266  PHE266      0.2437
      4  O         20.6930   13.7110   13.9960 O.2   266  PHE266     -0.2733
      5  CB        21.2440   13.5090   16.9520 C.3   266  PHE266      0.0547
      6  CG        22.2730   12.4000   16.8110 C.ar  266  PHE266     -0.0202
      7  CD1       22.1360   11.4170   15.8270 C.ar  266  PHE266     -0.0042
      8  CD2       23.3920   12.3550   17.6400 C.ar  266  PHE266     -0.0042
      9  CE1       23.1110   10.4320   15.6560 C.ar  266  PHE266     -0.0003
     10  CE2       24.3580   11.3570   17.4830 C.ar  266  PHE266     -0.0003
     11  CZ        24.2160   10.4110   16.4840 C.ar  266  PHE266     -0.0000
     12  N         22.9100   14.0810   14.0650 N.am  267  PRO267     -0.2729
     13  CA        24.1950   14.5600   14.5960 C.3   267  PRO267      0.1401
     14  C         24.5180   15.8260   13.7960 C.2   267  PRO267      0.2269
     15  O         25.0520   15.7830   12.6830 O.2   267  PRO267     -0.2865
     16  CB        25.1340   13.3920   14.2640 C.3   267  PRO267      0.0296
     17  CG        24.4710   12.6760   13.0400 C.3   267  PRO267      0.0237
     18  CD        23.1440   13.3960   12.7830 C.3   267  PRO267      0.0939
     19  N         14.5740   17.8090   15.8610 N.3   334  ASP334     -0.1239
     20  CA        15.0120   16.4810   16.3190 C.3   334  ASP334      0.1674
     21  C         15.2770   16.5180   17.8330 C.2   334  ASP334      0.2266
     22  O         14.3420   16.8420   18.5690 O.2   334  ASP334     -0.2867
     23  CB        16.1860   15.9380   15.4440 C.3   334  ASP334      0.1410
     24  CG        16.7670   14.6000   15.8650 C.2   334  ASP334      0.3668
     25  OD1       16.1510   13.5700   15.5580 O.co2 334  ASP334     -0.2456
     26  OD2       17.8070   14.5980   16.5580 O.co2 334  ASP334     -0.2456
     27  N         17.0790    2.1190   15.9310 N.3   382  TYR382     -0.1241
     28  CA        18.3660    2.8170   15.8580 C.3   382  TYR382      0.1605
     29  C         18.7480    3.4220   17.2400 C.2   382  TYR382      0.2264
     30  O         19.9280    3.4590   17.5710 O.2   382  TYR382     -0.2867
     31  CB        18.3550    3.8820   14.7350 C.3   382  TYR382      0.0534
     32  CG        17.6410    5.1710   15.0990 C.ar  382  TYR382     -0.0201
     33  CD1       16.2570    5.2850   14.9690 C.ar  382  TYR382     -0.0009
     34  CD2       18.3490    6.2830   15.5460 C.ar  382  TYR382     -0.0009
     35  CE1       15.5990    6.4640   15.3100 C.ar  382  TYR382      0.0417
     36  CE2       17.6990    7.4570   15.9100 C.ar  382  TYR382      0.0417
     37  CZ        16.3250    7.5460   15.7800 C.ar  382  TYR382      0.1957
     38  OH        15.6860    8.7110   16.1100 O.3   382  TYR382     -0.2866
     39  N         22.1780    2.7830   19.5490 N.3   386  PHE386     -0.1241
     40  CA        22.9230    3.9140   20.1180 C.3   386  PHE386      0.1605
     41  C         23.2160    3.7930   21.6120 C.2   386  PHE386      0.2264
     42  O         24.0180    4.5770   22.1250 O.2   386  PHE386     -0.2867
     43  CB        22.1600    5.2250   19.8620 C.3   386  PHE386      0.0534
     44  CG        22.1750    5.7380   18.4480 C.ar  386  PHE386     -0.0203
     45  CD1       22.8810    5.0640   17.4550 C.ar  386  PHE386     -0.0042
     46  CD2       21.5120    6.9140   18.1140 C.ar  386  PHE386     -0.0042
     47  CE1       22.9230    5.5510   16.1600 C.ar  386  PHE386     -0.0003
     48  CE2       21.5390    7.3980   16.8130 C.ar  386  PHE386     -0.0003
     49  CZ        22.2530    6.7190   15.8440 C.ar  386  PHE386     -0.0000
     50  N         23.6850    9.8710    5.8630 N.3   407  LEU407     -0.1245
     51  CA        22.6260   10.4380    6.6980 C.3   407  LEU407      0.1561
     52  C         21.8230   11.5300    6.0280 C.2   407  LEU407      0.2260
     53  O         20.5990   11.4610    6.0150 O.2   407  LEU407     -0.2867
     54  CB        23.1980   10.9750    8.0230 C.3   407  LEU407      0.0270
     55  CG        23.6180    9.9630    9.0670 C.3   407  LEU407      0.0019
     56  CD1       24.3700   10.6440   10.1930 C.3   407  LEU407      0.0001
     57  CD2       22.4340    9.1460    9.5930 C.3   407  LEU407      0.0001
     58  N         19.6290    4.2040    3.7590 N.3   416  LEU416     -0.1245
     59  CA        19.4980    3.6900    5.1160 C.3   416  LEU416      0.1561
     60  C         18.1060    3.1970    5.4010 C.2   416  LEU416      0.2260
     61  O         17.1320    3.9320    5.2190 O.2   416  LEU416     -0.2867
     62  CB        19.8760    4.7940    6.1150 C.3   416  LEU416      0.0270
     63  CG        21.2800    4.7660    6.7160 C.3   416  LEU416      0.0019
     64  CD1       22.3660    4.4870    5.6680 C.3   416  LEU416      0.0001
     65  CD2       21.5600    6.0500    7.4310 C.3   416  LEU416      0.0001
     66  N         16.9850    2.0720    8.5520 N.3   418  MET418     -0.1245
     67  CA        16.6160    2.5640    9.8930 C.3   418  MET418      0.1570
     68  C         15.8100    1.3910   10.4970 C.2   418  MET418      0.2261
     69  O         15.1770    1.5030   11.5470 O.2   418  MET418     -0.2867
     70  CB        15.7350    3.8410    9.7970 C.3   418  MET418      0.0387
     71  CG        16.1290    4.9570   10.7220 C.3   418  MET418      0.0595
     72  SD        17.7420    5.6420   10.3080 S.3   418  MET418     -0.1393
     73  CE        18.1630    6.3050   11.8300 C.3   418  MET418      0.0692
     74  N         24.1920    1.0250   11.1130 N.3   427  LEU427     -0.1245
     75  CA        23.3710    1.9830   10.3790 C.3   427  LEU427      0.1561
     76  C         23.6780    1.9150    8.9060 C.2   427  LEU427      0.2260
     77  O         22.7840    2.1130    8.0880 O.2   427  LEU427     -0.2867
     78  CB        23.6800    3.4200   10.8560 C.3   427  LEU427      0.0270
     79  CG        22.7560    4.1180   11.8700 C.3   427  LEU427      0.0019
     80  CD1       23.1120    5.5970   11.9530 C.3   427  LEU427      0.0001
     81  CD2       21.2790    3.9960   11.4880 C.3   427  LEU427      0.0001
     82  N         21.0160   10.3740   23.6380 N.3   465  TYR465     -0.1241
     83  CA        20.1140    9.1980   23.6000 C.3   465  TYR465      0.1605
     84  C         20.3120    8.2660   24.7860 C.2   465  TYR465      0.2264
     85  O         19.5690    7.2950   24.9360 O.2   465  TYR465     -0.2867
     86  CB        20.4040    8.3490   22.3510 C.3   465  TYR465      0.0534
     87  CG        20.0490    8.9930   21.0380 C.ar  465  TYR465     -0.0201
     88  CD1       18.7880    8.8170   20.4770 C.ar  465  TYR465     -0.0009
     89  CD2       20.9890    9.7160   20.3190 C.ar  465  TYR465     -0.0009
     90  CE1       18.4870    9.3330   19.2220 C.ar  465  TYR465      0.0417
     91  CE2       20.6920   10.2500   19.0780 C.ar  465  TYR465      0.0417
     92  CZ        19.4420   10.0540   18.5360 C.ar  465  TYR465      0.1957
     93  OH        19.1740   10.6050   17.3320 O.3   465  TYR465     -0.2866
     94  N          9.0110   12.2400    7.0420 N.3   495  ASP495     -0.1225
     95  CA         9.9590   11.8580    8.0820 C.3   495  ASP495      0.1805
     96  C          9.4250   10.5070    8.5480 C.2   495  ASP495      0.2598
     97  O          8.3690   10.4440    9.1680 O.2   495  ASP495     -0.2718
     98  CB        10.0650   12.8650    9.2550 C.3   495  ASP495      0.1424
     99  CG        11.1790   12.5250   10.2440 C.2   495  ASP495      0.3668
    100  OD1       11.5130   11.3320   10.3810 O.co2 495  ASP495     -0.2456
    101  OD2       11.6390   13.4360   10.9450 O.co2 495  ASP495     -0.2456
    102  N         10.1400    9.4270    8.2000 N.am  496  PHE496     -0.1962
    103  CA         9.6890    8.0740    8.5100 C.3   496  PHE496      0.1771
    104  C          9.9530    7.5800    9.9100 C.2   496  PHE496      0.2619
    105  O          9.5330    6.4770   10.2520 O.2   496  PHE496     -0.2715
    106  CB        10.0290    7.0620    7.3950 C.3   496  PHE496      0.0574
    107  CG         9.3880    7.4420    6.0820 C.ar  496  PHE496     -0.0200
    108  CD1        8.0090    7.6220    5.9890 C.ar  496  PHE496     -0.0042
    109  CD2       10.1660    7.6670    4.9520 C.ar  496  PHE496     -0.0042
    110  CE1        7.4220    8.0130    4.7900 C.ar  496  PHE496     -0.0003
    111  CE2        9.5800    8.0460    3.7470 C.ar  496  PHE496     -0.0003
    112  CZ         8.2100    8.2120    3.6720 C.ar  496  PHE496     -0.0000
    113  N         10.5710    8.4290   10.7570 N.am  497  VAL497     -0.1963
    114  CA        10.8270    8.1280   12.1670 C.3   497  VAL497      0.1727
    115  C          9.9100    9.0450   13.0090 C.2   497  VAL497      0.2616
    116  O          9.0600    8.5580   13.7600 O.2   497  VAL497     -0.2715
    117  CB        12.3420    8.2770   12.5200 C.3   497  VAL497      0.0290
    118  CG1       12.5900    8.1330   14.0190 C.3   497  VAL497      0.0023
    119  CG2       13.1890    7.2680   11.7470 C.3   497  VAL497      0.0023
    120  N         10.0530   10.3780   12.8250 N.am  498  LEU498     -0.1977
    121  CA         9.2450   11.3850   13.5170 C.3   498  LEU498      0.1596
    122  C          8.0890   11.7180   12.6040 C.2   498  LEU498      0.2287
    123  O          8.0240   12.7910   11.9980 O.2   498  LEU498     -0.2864
    124  CB        10.0970   12.6180   13.8760 C.3   498  LEU498      0.0297
    125  CG        11.4070   12.3550   14.6600 C.3   498  LEU498      0.0022
    126  CD1       12.1650   13.6510   14.8880 C.3   498  LEU498      0.0001
    127  CD2       11.1630   11.6190   15.9840 C.3   498  LEU498      0.0001
    128  N         13.4440   13.9390    7.0270 N.3   523  HIS523     -0.1226
    129  CA        13.9220   14.2250    8.3790 C.3   523  HIS523      0.1752
    130  C         14.7480   15.5060    8.5400 C.2   523  HIS523      0.2596
    131  O         14.6360   16.1610    9.5740 O.2   523  HIS523     -0.2718
    132  CB        14.6910   13.0330    8.9630 C.3   523  HIS523      0.0759
    133  CG        15.1550   13.2760   10.3720 C.ar  523  HIS523      0.0818
    134  ND1       16.4590   13.6760   10.6410 N.ar  523  HIS523     -0.2268
    135  CD2       14.4430   13.3060   11.5260 C.ar  523  HIS523      0.1154
    136  CE1       16.5060   13.8790   11.9450 C.ar  523  HIS523      0.1986
    137  NE2       15.3200   13.6820   12.5190 N.ar  523  HIS523     -0.2212
    138  N         15.6000   15.8280    7.5490 N.am  524  TRP524     -0.1976
    139  CA        16.5120   16.9800    7.5520 C.3   524  TRP524      0.1640
    140  C         15.7920   18.2070    7.0380 C.2   524  TRP524      0.2290
    141  O         16.2210   18.8300    6.0710 O.2   524  TRP524     -0.2864
    142  CB        17.7920   16.6470    6.7610 C.3   524  TRP524      0.0576
    143  CG        18.2600   15.2560    7.0660 C.ar  524  TRP524      0.0006
    144  CD1       17.9970   14.1280    6.3390 C.ar  524  TRP524      0.0946
    145  CD2       18.8830   14.8170    8.2800 C.ar  524  TRP524      0.0152
    146  NE1       18.4530   13.0170    7.0060 N.ar  524  TRP524     -0.2442
    147  CE2       19.0360   13.4110    8.1830 C.ar  524  TRP524      0.0810
    148  CE3       19.3650   15.4760    9.4270 C.ar  524  TRP524      0.0012
    149  CZ2       19.6410   12.6530    9.1840 C.ar  524  TRP524      0.0191
    150  CZ3       19.9870   14.7220   10.4100 C.ar  524  TRP524      0.0001
    151  CH2       20.1200   13.3270   10.2820 C.ar  524  TRP524      0.0015
@<TRIPOS>BOND
     1   112   111   ar
     2   112   110   ar
     3   111   109   ar
     4    58    59    1
     5   110   108   ar
     6   109   107   ar
     7    59    60    1
     8    59    62    1
     9    61    60    2
    10    64    63    1
    11    50    51    1
    12   108   107   ar
    13    53    52    2
    14    52    51    1
    15   141   140    2
    16   107   106    1
    17    62    63    1
    18   144   146   ar
    19   144   143   ar
    20    51    54    1
    21    63    65    1
    22   142   143    1
    23   142   139    1
    24   146   147   ar
    25   128   129    1
    26   140   139    1
    27    94    95    1
    28   143   145   ar
    29   106   103    1
    30   138   139    1
    31   138   130   am
    32    54    55    1
    33    95    96    1
    34    95    98    1
    35    77    76    2
    36   147   145   ar
    37   147   149   ar
    38   102   103    1
    39   102    96   am
    40   145   148   ar
    41   129   130    1
    42   129   132    1
    43   103   104    1
    44   130   131    2
    45    96    97    2
    46    66    67    1
    47    76    75    1
    48   132   133    1
    49    55    57    1
    50    55    56    1
    51   149   151   ar
    52    98    99    1
    53   148   150   ar
    54    70    67    1
    55    70    71    1
    56    67    68    1
    57   104   105    2
    58   104   113   am
    59    99   100   ar
    60    99   101   ar
    61   151   150   ar
    62    72    71    1
    63    72    73    1
    64   133   134   ar
    65   133   135   ar
    66    75    78    1
    67    75    74    1
    68    68    69    2
    69   134   136   ar
    70   113   114    1
    71    78    79    1
    72    81    79    1
    73   135   137   ar
    74   119   117    1
    75    79    80    1
    76   136   137   ar
    77   123   122    2
    78   114   117    1
    79   114   115    1
    80   117   118    1
    81   122   121    1
    82    15    14    2
    83    18    17    1
    84    18    12    1
    85   120   115   am
    86   120   121    1
    87   115   116    2
    88    17    16    1
    89   121   124    1
    90    14    13    1
    91   124   125    1
    92     4     3    2
    93    12     3   am
    94    12    13    1
    95    16    13    1
    96     3     2    1
    97   125   126    1
    98   125   127    1
    99    31    32    1
   100    31    28    1
   101    33    32   ar
   102    33    35   ar
   103    32    34   ar
   104    35    37   ar
   105    23    24    1
   106    23    20    1
   107    34    36   ar
   108    25    24   ar
   109     9     7   ar
   110     9    11   ar
   111    37    36   ar
   112    37    38    1
   113     7     6   ar
   114    49    47   ar
   115    49    48   ar
   116    28    27    1
   117    28    29    1
   118    19    20    1
   119    24    26   ar
   120     2     1    1
   121     2     5    1
   122    47    45   ar
   123    20    21    1
   124    11    10   ar
   125     6     5    1
   126     6     8   ar
   127    48    46   ar
   128    29    30    2
   129    93    92    1
   130    45    44   ar
   131    10     8   ar
   132    21    22    2
   133    46    44   ar
   134    44    43    1
   135    92    91   ar
   136    92    90   ar
   137    91    89   ar
   138    90    88   ar
   139    39    40    1
   140    43    40    1
   141    40    41    1
   142    89    87   ar
   143    88    87   ar
   144    87    86    1
   145    41    42    2
   146    86    83    1
   147    83    82    1
   148    83    84    1
   149    84    85    2
