@<TRIPOS>MOLECULE
tmp/5akyA00.pdb
 166 163 0 0 0
SMALL
GASTEIGER

@<TRIPOS>ATOM
      1  N        -20.2650  -15.5800   15.9730 N.3   266  PHE266     -0.1228
      2  CA       -21.3580  -14.6270   15.8880 C.3   266  PHE266      0.1721
      3  C        -21.5500  -14.0720   14.4660 C.2   266  PHE266      0.2437
      4  O        -20.5740  -13.5800   13.8890 O.2   266  PHE266     -0.2733
      5  CB       -21.0980  -13.4610   16.8590 C.3   266  PHE266      0.0547
      6  CG       -22.0750  -12.3190   16.7150 C.ar  266  PHE266     -0.0202
      7  CD1      -21.8590  -11.3070   15.7790 C.ar  266  PHE266     -0.0042
      8  CD2      -23.2070  -12.2450   17.5250 C.ar  266  PHE266     -0.0042
      9  CE1      -22.7800  -10.2610   15.6300 C.ar  266  PHE266     -0.0003
     10  CE2      -24.1210  -11.1910   17.3850 C.ar  266  PHE266     -0.0003
     11  CZ       -23.9020  -10.2060   16.4360 C.ar  266  PHE266     -0.0000
     12  N        -22.7960  -13.9800   13.9360 N.am  267  PRO267     -0.2729
     13  CA       -24.1010  -14.4470   14.4560 C.3   267  PRO267      0.1401
     14  C        -24.4220  -15.7230   13.6890 C.2   267  PRO267      0.2269
     15  O        -24.9840  -15.6800   12.5870 O.2   267  PRO267     -0.2865
     16  CB       -25.0480  -13.2990   14.0500 C.3   267  PRO267      0.0296
     17  CG       -24.3180  -12.5490   12.8870 C.3   267  PRO267      0.0237
     18  CD       -23.0020  -13.2920   12.6520 C.3   267  PRO267      0.0939
     19  N        -14.4480  -17.7150   15.7080 N.3   334  ASP334     -0.1239
     20  CA       -14.9160  -16.3990   16.1560 C.3   334  ASP334      0.1674
     21  C        -15.1960  -16.4220   17.6800 C.2   334  ASP334      0.2266
     22  O        -14.2690  -16.7370   18.4250 O.2   334  ASP334     -0.2867
     23  CB       -16.0800  -15.8880   15.2650 C.3   334  ASP334      0.1410
     24  CG       -16.5860  -14.5070   15.6350 C.2   334  ASP334      0.3668
     25  OD1      -15.9390  -13.5130   15.2450 O.co2 334  ASP334     -0.2456
     26  OD2      -17.5940  -14.4250   16.3710 O.co2 334  ASP334     -0.2456
     27  N        -16.9330   -1.8330   15.9990 N.3   382  TYR382     -0.1241
     28  CA       -18.2210   -2.5190   15.9330 C.3   382  TYR382      0.1605
     29  C        -18.6680   -3.0940   17.3010 C.2   382  TYR382      0.2264
     30  O        -19.8710   -3.2220   17.5290 O.2   382  TYR382     -0.2867
     31  CB       -18.1680   -3.6190   14.8570 C.3   382  TYR382      0.0534
     32  CG       -17.4120   -4.8630   15.2810 C.ar  382  TYR382     -0.0201
     33  CD1      -16.0240   -4.8970   15.2680 C.ar  382  TYR382     -0.0009
     34  CD2      -18.0890   -6.0030   15.7060 C.ar  382  TYR382     -0.0009
     35  CE1      -15.3240   -6.0280   15.6820 C.ar  382  TYR382      0.0417
     36  CE2      -17.4000   -7.1390   16.1260 C.ar  382  TYR382      0.0417
     37  CZ       -16.0160   -7.1540   16.0960 C.ar  382  TYR382      0.1957
     38  OH       -15.3240   -8.2740   16.4970 O.3   382  TYR382     -0.2866
     39  N        -22.1420   -2.6050   19.5390 N.3   386  PHE386     -0.1241
     40  CA       -22.8730   -3.7610   20.0720 C.3   386  PHE386      0.1605
     41  C        -23.1950   -3.6370   21.5550 C.2   386  PHE386      0.2264
     42  O        -23.9780   -4.4420   22.0670 O.2   386  PHE386     -0.2867
     43  CB       -22.0870   -5.0600   19.8140 C.3   386  PHE386      0.0534
     44  CG       -22.0490   -5.5760   18.3920 C.ar  386  PHE386     -0.0203
     45  CD1      -22.7760   -4.9520   17.3850 C.ar  386  PHE386     -0.0042
     46  CD2      -21.3210   -6.7170   18.0710 C.ar  386  PHE386     -0.0042
     47  CE1      -22.7710   -5.4560   16.0860 C.ar  386  PHE386     -0.0003
     48  CE2      -21.3010   -7.2090   16.7660 C.ar  386  PHE386     -0.0003
     49  CZ       -22.0310   -6.5780   15.7820 C.ar  386  PHE386     -0.0000
     50  N        -30.1160   -5.4960   13.1740 N.3   396  LEU396     -0.1245
     51  CA       -29.8730   -6.8580   12.7100 C.3   396  LEU396      0.1561
     52  C        -31.1570   -7.6510   12.4940 C.2   396  LEU396      0.2260
     53  O        -31.1840   -8.5140   11.6230 O.2   396  LEU396     -0.2867
     54  CB       -28.8690   -7.5960   13.6240 C.3   396  LEU396      0.0270
     55  CG       -27.4520   -7.0540   13.6070 C.3   396  LEU396      0.0019
     56  CD1      -26.7260   -7.4190   14.8590 C.3   396  LEU396      0.0001
     57  CD2      -26.6800   -7.5400   12.3770 C.3   396  LEU396      0.0001
     58  N        -23.6560   -9.8580    5.6700 N.3   407  LEU407     -0.1245
     59  CA       -22.5970  -10.3990    6.5160 C.3   407  LEU407      0.1561
     60  C        -21.7720  -11.4740    5.8350 C.2   407  LEU407      0.2260
     61  O        -20.5470  -11.3910    5.8130 O.2   407  LEU407     -0.2867
     62  CB       -23.1910  -10.9740    7.8100 C.3   407  LEU407      0.0270
     63  CG       -23.7750   -9.9970    8.7910 C.3   407  LEU407      0.0019
     64  CD1      -24.5080  -10.7280    9.8650 C.3   407  LEU407      0.0001
     65  CD2      -22.7140   -9.1080    9.3800 C.3   407  LEU407      0.0001
     66  N        -17.1310   -6.9570    1.4370 N.3   415  VAL415     -0.1231
     67  CA       -17.2660   -7.3490    2.8440 C.3   415  VAL415      0.1692
     68  C        -17.4210   -6.0710    3.6590 C.2   415  VAL415      0.2591
     69  O        -16.7230   -5.0860    3.3840 O.2   415  VAL415     -0.2718
     70  CB       -16.0320   -8.1520    3.3520 C.3   415  VAL415      0.0266
     71  CG1      -16.3730   -8.9980    4.5760 C.3   415  VAL415      0.0020
     72  CG2      -15.4520   -9.0200    2.2620 C.3   415  VAL415      0.0020
     73  N        -18.3310   -6.0830    4.6520 N.am  416  LEU416     -0.1980
     74  CA       -18.5850   -4.9340    5.5220 C.3   416  LEU416      0.1596
     75  C        -17.3190   -4.4360    6.1960 C.2   416  LEU416      0.2287
     76  O        -16.5500   -5.2470    6.7300 O.2   416  LEU416     -0.2864
     77  CB       -19.5780   -5.3060    6.6280 C.3   416  LEU416      0.0297
     78  CG       -21.0530   -5.3620    6.3210 C.3   416  LEU416      0.0022
     79  CD1      -21.8050   -5.7970    7.5480 C.3   416  LEU416      0.0001
     80  CD2      -21.5770   -4.0130    5.8590 C.3   416  LEU416      0.0001
     81  N        -15.5550   -2.7460    9.2460 N.3   418  MET418     -0.1245
     82  CA       -15.7980   -2.6960   10.6920 C.3   418  MET418      0.1570
     83  C        -15.2990   -1.4200   11.3880 C.2   418  MET418      0.2261
     84  O        -15.5320   -1.2320   12.5930 O.2   418  MET418     -0.2867
     85  CB       -15.2990   -3.9870   11.3710 C.3   418  MET418      0.0387
     86  CG       -15.8590   -5.2600   10.7390 C.3   418  MET418      0.0595
     87  SD       -17.5480   -5.6380   11.2360 S.3   418  MET418     -0.1393
     88  CE       -18.4170   -4.9000    9.9530 C.3   418  MET418      0.0692
     89  N        -24.1170   -1.0770   11.1490 N.3   427  LEU427     -0.1245
     90  CA       -23.3480   -1.9830   10.2950 C.3   427  LEU427      0.1561
     91  C        -23.7330   -1.8610    8.8300 C.2   427  LEU427      0.2260
     92  O        -22.8620   -1.9940    7.9750 O.2   427  LEU427     -0.2867
     93  CB       -23.5840   -3.4550   10.7010 C.3   427  LEU427      0.0270
     94  CG       -22.7090   -4.1220   11.7670 C.3   427  LEU427      0.0019
     95  CD1      -21.2600   -3.7530   11.6480 C.3   427  LEU427      0.0001
     96  CD2      -23.2040   -3.8270   13.1240 C.3   427  LEU427      0.0001
     97  N        -20.9570  -10.2550   23.5370 N.3   465  TYR465     -0.1241
     98  CA       -20.1140   -9.0500   23.4510 C.3   465  TYR465      0.1605
     99  C        -20.2920   -8.0670   24.6140 C.2   465  TYR465      0.2264
    100  O        -19.5700   -7.0690   24.6890 O.2   465  TYR465     -0.2867
    101  CB       -20.4840   -8.2950   22.1700 C.3   465  TYR465      0.0534
    102  CG       -19.8540   -8.8380   20.9100 C.ar  465  TYR465     -0.0201
    103  CD1      -18.5380   -8.5270   20.5770 C.ar  465  TYR465     -0.0009
    104  CD2      -20.5920   -9.6070   20.0140 C.ar  465  TYR465     -0.0009
    105  CE1      -17.9660   -8.9810   19.3910 C.ar  465  TYR465      0.0417
    106  CE2      -20.0300  -10.0610   18.8160 C.ar  465  TYR465      0.0417
    107  CZ       -18.7180   -9.7440   18.5130 C.ar  465  TYR465      0.1957
    108  OH       -18.1270  -10.2130   17.3690 O.3   465  TYR465     -0.2866
    109  N         -8.9690  -12.1700    6.7970 N.3   495  ASP495     -0.1225
    110  CA        -9.9190  -11.7910    7.8430 C.3   495  ASP495      0.1805
    111  C         -9.3280  -10.4590    8.3130 C.2   495  ASP495      0.2598
    112  O         -8.2500  -10.4470    8.9020 O.2   495  ASP495     -0.2718
    113  CB        -9.9870  -12.8090    9.0170 C.3   495  ASP495      0.1424
    114  CG       -11.0740  -12.4990   10.0540 C.2   495  ASP495      0.3668
    115  OD1      -11.3710  -11.3050   10.2710 O.co2 495  ASP495     -0.2456
    116  OD2      -11.5980  -13.4530   10.6780 O.co2 495  ASP495     -0.2456
    117  N        -10.0030   -9.3400    8.0030 N.am  496  PHE496     -0.1962
    118  CA        -9.5000   -8.0070    8.3160 C.3   496  PHE496      0.1771
    119  C         -9.8000   -7.4960    9.7090 C.2   496  PHE496      0.2619
    120  O         -9.4420   -6.3630   10.0370 O.2   496  PHE496     -0.2715
    121  CB        -9.7970   -6.9990    7.1830 C.3   496  PHE496      0.0574
    122  CG        -9.3660   -7.4650    5.8060 C.ar  496  PHE496     -0.0200
    123  CD1       -8.0200   -7.6730    5.5090 C.ar  496  PHE496     -0.0042
    124  CD2      -10.3030   -7.6920    4.8060 C.ar  496  PHE496     -0.0042
    125  CE1       -7.6230   -8.1010    4.2350 C.ar  496  PHE496     -0.0003
    126  CE2       -9.9030   -8.1100    3.5270 C.ar  496  PHE496     -0.0003
    127  CZ        -8.5690   -8.3130    3.2520 C.ar  496  PHE496     -0.0000
    128  N        -10.3880   -8.3510   10.5620 N.am  497  VAL497     -0.1963
    129  CA       -10.6310   -8.0180   11.9690 C.3   497  VAL497      0.1727
    130  C         -9.7500   -8.9570   12.7960 C.2   497  VAL497      0.2616
    131  O         -8.9090   -8.4880   13.5660 O.2   497  VAL497     -0.2715
    132  CB       -12.1240   -8.0740   12.3760 C.3   497  VAL497      0.0290
    133  CG1      -12.3170   -7.8110   13.8750 C.3   497  VAL497      0.0023
    134  CG2      -12.9540   -7.1100   11.5440 C.3   497  VAL497      0.0023
    135  N         -9.9200  -10.2830   12.5990 N.am  498  LEU498     -0.1977
    136  CA        -9.1160  -11.3060   13.2810 C.3   498  LEU498      0.1596
    137  C         -7.9470  -11.6220   12.3540 C.2   498  LEU498      0.2287
    138  O         -7.9000  -12.6860   11.7220 O.2   498  LEU498     -0.2864
    139  CB        -9.9550  -12.5680   13.6200 C.3   498  LEU498      0.0297
    140  CG       -11.1580  -12.3610   14.5530 C.3   498  LEU498      0.0022
    141  CD1      -11.9950  -13.6210   14.6410 C.3   498  LEU498      0.0001
    142  CD2      -10.7060  -11.9120   15.9580 C.3   498  LEU498      0.0001
    143  N        -13.3500  -13.9370    6.8990 N.3   523  HIS523     -0.1226
    144  CA       -13.8510  -14.2570    8.2330 C.3   523  HIS523      0.1752
    145  C        -14.6650  -15.5560    8.3230 C.2   523  HIS523      0.2596
    146  O        -14.6250  -16.2140    9.3620 O.2   523  HIS523     -0.2718
    147  CB       -14.6930  -13.0940    8.7960 C.3   523  HIS523      0.0759
    148  CG       -15.2200  -13.3760   10.1700 C.ar  523  HIS523      0.0818
    149  ND1      -14.3720  -13.4410   11.2630 N.ar  523  HIS523     -0.2268
    150  CD2      -16.4750  -13.6780   10.5730 C.ar  523  HIS523      0.1154
    151  CE1      -15.1410  -13.7520   12.2950 C.ar  523  HIS523      0.1986
    152  NE2      -16.4130  -13.9090   11.9280 N.ar  523  HIS523     -0.2212
    153  N        -15.4300  -15.8950    7.2740 N.am  524  TRP524     -0.1976
    154  CA       -16.3220  -17.0610    7.2600 C.3   524  TRP524      0.1640
    155  C        -15.5870  -18.3010    6.7680 C.2   524  TRP524      0.2290
    156  O        -16.0130  -18.9620    5.8200 O.2   524  TRP524     -0.2864
    157  CB       -17.5900  -16.7480    6.4530 C.3   524  TRP524      0.0576
    158  CG       -18.1280  -15.3820    6.7570 C.ar  524  TRP524      0.0006
    159  CD1      -17.9040  -14.2400    6.0450 C.ar  524  TRP524      0.0946
    160  CD2      -18.8050  -14.9780    7.9550 C.ar  524  TRP524      0.0152
    161  NE1      -18.4920  -13.1700    6.6700 N.ar  524  TRP524     -0.2442
    162  CE2      -19.0530  -13.5910    7.8460 C.ar  524  TRP524      0.0810
    163  CE3      -19.2810  -15.6650    9.0890 C.ar  524  TRP524      0.0012
    164  CZ2      -19.7280  -12.8720    8.8350 C.ar  524  TRP524      0.0191
    165  CZ3      -19.9640  -14.9550   10.0600 C.ar  524  TRP524      0.0001
    166  CH2      -20.1950  -13.5790    9.9240 C.ar  524  TRP524      0.0015
@<TRIPOS>BOND
     1    66    67    1
     2    72    70    1
     3    67    70    1
     4    67    68    1
     5   127   126   ar
     6   127   125   ar
     7    70    71    1
     8    69    68    2
     9   126   124   ar
    10    68    73   am
    11   125   123   ar
    12    73    74    1
    13   124   122   ar
    14   123   122   ar
    15    74    75    1
    16    74    77    1
    17    58    59    1
    18   122   121    1
    19    61    60    2
    20   156   155    2
    21    60    59    1
    22    80    78    1
    23   159   161   ar
    24   159   158   ar
    25    75    76    2
    26    78    77    1
    27    78    79    1
    28   157   158    1
    29   157   154    1
    30    59    62    1
    31   161   162   ar
    32   158   160   ar
    33   155   154    1
    34   109   110    1
    35   143   144    1
    36   121   118    1
    37   154   153    1
    38   153   145   am
    39    62    63    1
    40   110   111    1
    41   110   113    1
    42   162   160   ar
    43   162   164   ar
    44   160   163   ar
    45    92    91    2
    46   117   111   am
    47   117   118    1
    48   144   145    1
    49   144   147    1
    50   111   112    2
    51   118   119    1
    52   145   146    2
    53    63    65    1
    54    63    64    1
    55   147   148    1
    56    91    90    1
    57   164   166   ar
    58   113   114    1
    59   163   165   ar
    60    81    82    1
    61   119   120    2
    62   119   128   am
    63   166   165   ar
    64    88    87    1
    65   114   115   ar
    66   114   116   ar
    67   148   150   ar
    68   148   149   ar
    69    90    93    1
    70    90    89    1
    71   128   129    1
    72   150   152   ar
    73    82    85    1
    74    82    83    1
    75    93    94    1
    76    86    87    1
    77    86    85    1
    78   149   151   ar
    79    83    84    2
    80   134   132    1
    81    53    52    2
    82    95    94    1
    83   138   137    2
    84    94    96    1
    85   152   151   ar
    86   129   132    1
    87   129   130    1
    88   137   136    1
    89   132   133    1
    90    57    55    1
    91    52    51    1
    92    15    14    2
    93   135   130   am
    94   135   136    1
    95    18    17    1
    96    18    12    1
    97    51    50    1
    98    51    54    1
    99   130   131    2
   100    17    16    1
   101   136   139    1
   102    55    54    1
   103    55    56    1
   104   139   140    1
   105    14    13    1
   106     4     3    2
   107    12    13    1
   108    12     3   am
   109    16    13    1
   110     3     2    1
   111   140   141    1
   112   140   142    1
   113    31    32    1
   114    31    28    1
   115    25    24   ar
   116    23    24    1
   117    23    20    1
   118    33    32   ar
   119    33    35   ar
   120    32    34   ar
   121     9     7   ar
   122     9    11   ar
   123    24    26   ar
   124    35    37   ar
   125    34    36   ar
   126    19    20    1
   127     7     6   ar
   128    49    47   ar
   129    49    48   ar
   130     2     1    1
   131     2     5    1
   132    28    27    1
   133    28    29    1
   134    47    45   ar
   135    37    36   ar
   136    37    38    1
   137    20    21    1
   138    11    10   ar
   139     6     5    1
   140     6     8   ar
   141    48    46   ar
   142    29    30    2
   143   108   107    1
   144    10     8   ar
   145    45    44   ar
   146    21    22    2
   147    46    44   ar
   148    44    43    1
   149   107   106   ar
   150   107   105   ar
   151   106   104   ar
   152   105   103   ar
   153    39    40    1
   154    43    40    1
   155   104   102   ar
   156    40    41    1
   157   103   102   ar
   158   102   101    1
   159    41    42    2
   160   101    98    1
   161    98    97    1
   162    98    99    1
   163    99   100    2
