@<TRIPOS>MOLECULE
tmp/5akyA01.pdb
 161 156 0 0 0
SMALL
GASTEIGER

@<TRIPOS>ATOM
      1  N        -14.4480  -17.7150   15.7080 N.3   334  ASP334     -0.1225
      2  CA       -14.9160  -16.3990   16.1560 C.3   334  ASP334      0.1805
      3  C        -15.1960  -16.4220   17.6800 C.2   334  ASP334      0.2597
      4  O        -14.2690  -16.7370   18.4250 O.2   334  ASP334     -0.2718
      5  CB       -16.0800  -15.8880   15.2650 C.3   334  ASP334      0.1424
      6  CG       -16.5860  -14.5070   15.6350 C.2   334  ASP334      0.3668
      7  OD1      -15.9390  -13.5130   15.2450 O.co2 334  ASP334     -0.2456
      8  OD2      -17.5940  -14.4250   16.3710 O.co2 334  ASP334     -0.2456
      9  N        -16.4380  -16.1510   18.1570 N.am  335  TRP335     -0.1976
     10  CA       -16.7380  -16.2170   19.5890 C.3   335  TRP335      0.1640
     11  C        -16.5320  -17.6200   20.1770 C.2   335  TRP335      0.2290
     12  O        -16.0670  -17.7320   21.3070 O.2   335  TRP335     -0.2864
     13  CB       -18.1300  -15.6620   19.9210 C.3   335  TRP335      0.0576
     14  CG       -18.0670  -14.2850   20.5130 C.ar  335  TRP335      0.0006
     15  CD1      -18.5510  -13.1360   19.9620 C.ar  335  TRP335      0.0946
     16  CD2      -17.3950  -13.9000   21.7230 C.ar  335  TRP335      0.0152
     17  NE1      -18.2770  -12.0680   20.7820 N.ar  335  TRP335     -0.2442
     18  CE2      -17.5450  -12.5030   21.8580 C.ar  335  TRP335      0.0810
     19  CE3      -16.7030  -14.6060   22.7240 C.ar  335  TRP335      0.0012
     20  CZ2      -17.0120  -11.7910   22.9410 C.ar  335  TRP335      0.0191
     21  CZ3      -16.1770  -13.9030   23.7980 C.ar  335  TRP335      0.0001
     22  CH2      -16.3570  -12.5140   23.9140 C.ar  335  TRP335      0.0015
     23  N        -12.8930  -18.1160   21.0140 N.3   338  MET338     -0.1245
     24  CA       -12.6100  -17.5280   22.3110 C.3   338  MET338      0.1570
     25  C        -13.0070  -18.4720   23.4510 C.2   338  MET338      0.2261
     26  O        -12.2260  -18.6370   24.3860 O.2   338  MET338     -0.2867
     27  CB       -13.3110  -16.1680   22.4530 C.3   338  MET338      0.0387
     28  CG       -12.7570  -15.3140   23.5760 C.3   338  MET338      0.0595
     29  SD       -11.3670  -14.2440   23.1100 S.3   338  MET338     -0.1393
     30  CE        -9.9580  -15.4020   23.3200 C.3   338  MET338      0.0692
     31  N         -9.7360  -16.8900   15.5570 N.3   359  THR359     -0.1218
     32  CA        -9.6230  -16.3080   16.8970 C.3   359  THR359      0.1862
     33  C         -8.3080  -16.6690   17.5850 C.2   359  THR359      0.2287
     34  O         -8.1040  -17.8300   17.9310 O.2   359  THR359     -0.2866
     35  CB       -10.8620  -16.5850   17.7590 C.3   359  THR359      0.1770
     36  OG1      -12.0040  -16.3120   16.9740 O.3   359  THR359     -0.2211
     37  CG2      -10.9060  -15.7240   19.0460 C.3   359  THR359      0.0375
     38  N         -5.7730  -11.5780   29.0930 N.3   364  ALA364     -0.1231
     39  CA        -6.2860  -10.3330   29.6430 C.3   364  ALA364      0.1694
     40  C         -5.1000   -9.4320   29.9920 C.2   364  ALA364      0.2592
     41  O         -4.0260   -9.9280   30.3600 O.2   364  ALA364     -0.2718
     42  CB        -7.0980  -10.6100   30.8950 C.3   364  ALA364      0.0304
     43  N         -5.2730   -8.1200   29.8310 N.am  365  ASN365     -0.1974
     44  CA        -4.2420   -7.1780   30.2490 C.3   365  ASN365      0.1688
     45  C         -4.6840   -6.7260   31.6520 C.2   365  ASN365      0.2292
     46  O         -5.6990   -6.0440   31.7640 O.2   365  ASN365     -0.2864
     47  CB        -4.1380   -5.9880   29.2870 C.3   365  ASN365      0.1181
     48  CG        -3.0470   -4.9930   29.6250 C.2   365  ASN365      0.2629
     49  OD1       -2.4860   -4.9690   30.7270 O.2   365  ASN365     -0.2716
     50  ND2       -2.7310   -4.1410   28.6680 N.am  365  ASN365     -0.0877
     51  N        -10.8500   -3.6200   29.7690 N.3   370  PRO370     -0.2116
     52  CA       -11.1260   -4.1800   28.4310 C.3   370  PRO370      0.1372
     53  C        -11.6200   -3.1270   27.4280 C.2   370  PRO370      0.2244
     54  O        -11.2270   -3.1930   26.2650 O.2   370  PRO370     -0.2868
     55  CB       -12.1630   -5.2750   28.7030 C.3   370  PRO370      0.0268
     56  CG       -12.7700   -4.9050   30.0240 C.3   370  PRO370      0.0207
     57  CD       -11.6500   -4.2980   30.8090 C.3   370  PRO370      0.0892
     58  N         -8.6340   -1.2480   25.9830 N.3   373  SER373     -0.1202
     59  CA        -8.0000   -2.1930   25.0560 C.3   373  SER373      0.2020
     60  C         -8.7550   -2.2790   23.7210 C.2   373  SER373      0.2618
     61  O         -8.1230   -2.1660   22.6660 O.2   373  SER373     -0.2717
     62  CB        -7.8810   -3.5760   25.6970 C.3   373  SER373      0.2103
     63  OG        -7.2340   -3.5370   26.9590 O.3   373  SER373     -0.2182
     64  N        -10.0990   -2.4590   23.7730 N.am  374  ILE374     -0.1979
     65  CA       -10.9770   -2.5490   22.5960 C.3   374  ILE374      0.1595
     66  C        -10.9660   -1.2500   21.8060 C.2   374  ILE374      0.2287
     67  O        -10.9240   -1.2900   20.5710 O.2   374  ILE374     -0.2864
     68  CB       -12.4010   -3.0450   22.9770 C.3   374  ILE374      0.0276
     69  CG1      -12.4210   -4.5680   23.0240 C.3   374  ILE374      0.0022
     70  CG2      -13.5140   -2.5180   22.0500 C.3   374  ILE374      0.0022
     71  CD1      -12.9400   -5.0520   24.2290 C.3   374  ILE374      0.0001
     72  N        -12.0340   -3.0940   16.0500 N.3   380  PHE380     -0.1241
     73  CA       -12.9390   -3.5170   17.1290 C.3   380  PHE380      0.1605
     74  C        -14.0000   -2.4560   17.4800 C.2   380  PHE380      0.2264
     75  O        -14.6590   -2.5770   18.5210 O.2   380  PHE380     -0.2867
     76  CB       -12.1660   -3.9760   18.3890 C.3   380  PHE380      0.0534
     77  CG       -11.3300   -5.2330   18.2560 C.ar  380  PHE380     -0.0203
     78  CD1      -11.7750   -6.3120   17.4960 C.ar  380  PHE380     -0.0042
     79  CD2      -10.1300   -5.3650   18.9450 C.ar  380  PHE380     -0.0042
     80  CE1      -11.0010   -7.4720   17.3770 C.ar  380  PHE380     -0.0003
     81  CE2       -9.3590   -6.5280   18.8290 C.ar  380  PHE380     -0.0003
     82  CZ        -9.8010   -7.5740   18.0480 C.ar  380  PHE380     -0.0000
     83  N        -16.9330   -1.8330   15.9990 N.3   382  TYR382     -0.1227
     84  CA       -18.2210   -2.5190   15.9330 C.3   382  TYR382      0.1736
     85  C        -18.6680   -3.0940   17.3010 C.2   382  TYR382      0.2595
     86  O        -19.8710   -3.2220   17.5290 O.2   382  TYR382     -0.2718
     87  CB       -18.1680   -3.6190   14.8570 C.3   382  TYR382      0.0548
     88  CG       -17.4120   -4.8630   15.2810 C.ar  382  TYR382     -0.0200
     89  CD1      -16.0240   -4.8970   15.2680 C.ar  382  TYR382     -0.0009
     90  CD2      -18.0890   -6.0030   15.7060 C.ar  382  TYR382     -0.0009
     91  CE1      -15.3240   -6.0280   15.6820 C.ar  382  TYR382      0.0417
     92  CE2      -17.4000   -7.1390   16.1260 C.ar  382  TYR382      0.0417
     93  CZ       -16.0160   -7.1540   16.0960 C.ar  382  TYR382      0.1957
     94  OH       -15.3240   -8.2740   16.4970 O.3   382  TYR382     -0.2866
     95  N        -17.7020   -3.4450   18.1920 N.am  383  GLN383     -0.1979
     96  CA       -18.0010   -3.9980   19.5120 C.3   383  GLN383      0.1601
     97  C        -18.6440   -2.9620   20.4150 C.2   383  GLN383      0.2287
     98  O        -19.5480   -3.3160   21.1660 O.2   383  GLN383     -0.2864
     99  CB       -16.7610   -4.6090   20.1710 C.3   383  GLN383      0.0394
    100  CG       -16.1690   -5.7770   19.3920 C.3   383  GLN383      0.0908
    101  CD       -15.0520   -6.4850   20.1280 C.2   383  GLN383      0.2608
    102  OE1      -14.8060   -6.2890   21.3300 O.2   383  GLN383     -0.2717
    103  NE2      -14.3670   -7.3590   19.4190 N.am  383  GLN383     -0.0878
    104  N        -20.9570  -10.2550   23.5370 N.3   465  TYR465     -0.1241
    105  CA       -20.1140   -9.0500   23.4510 C.3   465  TYR465      0.1605
    106  C        -20.2920   -8.0670   24.6140 C.2   465  TYR465      0.2264
    107  O        -19.5700   -7.0690   24.6890 O.2   465  TYR465     -0.2867
    108  CB       -20.4840   -8.2950   22.1700 C.3   465  TYR465      0.0534
    109  CG       -19.8540   -8.8380   20.9100 C.ar  465  TYR465     -0.0201
    110  CD1      -18.5380   -8.5270   20.5770 C.ar  465  TYR465     -0.0009
    111  CD2      -20.5920   -9.6070   20.0140 C.ar  465  TYR465     -0.0009
    112  CE1      -17.9660   -8.9810   19.3910 C.ar  465  TYR465      0.0417
    113  CE2      -20.0300  -10.0610   18.8160 C.ar  465  TYR465      0.0417
    114  CZ       -18.7180   -9.7440   18.5130 C.ar  465  TYR465      0.1957
    115  OH       -18.1270  -10.2130   17.3690 O.3   465  TYR465     -0.2866
    116  N        -17.5400   -7.8390   28.6910 N.3   468  MET468     -0.1245
    117  CA       -16.1150   -7.4840   28.6450 C.3   468  MET468      0.1570
    118  C        -15.4140   -7.3690   30.0120 C.2   468  MET468      0.2261
    119  O        -14.3460   -7.9480   30.1770 O.2   468  MET468     -0.2867
    120  CB       -15.8200   -6.2900   27.7110 C.3   468  MET468      0.0387
    121  CG       -16.2710   -6.4910   26.2380 C.3   468  MET468      0.0595
    122  SD       -15.8220   -8.0590   25.3970 S.3   468  MET468     -0.1393
    123  CE       -16.5090   -7.7720   23.7920 C.3   468  MET468      0.0692
    124  N        -15.6550  -10.9260   31.8320 N.3   471  ASN471     -0.1225
    125  CA       -14.6970  -11.8320   31.1980 C.3   471  ASN471      0.1785
    126  C        -13.2680  -11.4650   31.5440 C.2   471  ASN471      0.2597
    127  O        -12.4660  -12.3610   31.7870 O.2   471  ASN471     -0.2718
    128  CB       -14.9000  -11.9000   29.6710 C.3   471  ASN471      0.1169
    129  CG       -16.2130  -12.5180   29.2570 C.2   471  ASN471      0.2627
    130  OD1      -16.8750  -13.1970   30.0340 O.2   471  ASN471     -0.2716
    131  ND2      -16.6120  -12.3090   28.0190 N.am  471  ASN471     -0.0877
    132  N        -12.9530  -10.1580   31.5780 N.am  472  TRP472     -0.1976
    133  CA       -11.6220   -9.6610   31.9260 C.3   472  TRP472      0.1640
    134  C        -11.2290  -10.0870   33.3540 C.2   472  TRP472      0.2290
    135  O        -10.1660  -10.6840   33.5290 O.2   472  TRP472     -0.2864
    136  CB       -11.5290   -8.1450   31.7140 C.3   472  TRP472      0.0576
    137  CG       -10.2580   -7.5270   32.2060 C.ar  472  TRP472      0.0006
    138  CD1       -9.0400   -7.5380   31.5880 C.ar  472  TRP472      0.0946
    139  CD2      -10.0900   -6.7830   33.4130 C.ar  472  TRP472      0.0152
    140  NE1       -8.1200   -6.8490   32.3420 N.ar  472  TRP472     -0.2442
    141  CE2       -8.7360   -6.3720   33.4680 C.ar  472  TRP472      0.0810
    142  CE3      -10.9630   -6.3860   34.4430 C.ar  472  TRP472      0.0012
    143  CZ2       -8.2250   -5.6230   34.5300 C.ar  472  TRP472      0.0191
    144  CZ3      -10.4490   -5.6720   35.5120 C.ar  472  TRP472      0.0001
    145  CH2       -9.0960   -5.2900   35.5470 C.ar  472  TRP472      0.0015
    146  N         -9.9200  -10.2830   12.5990 N.3   498  LEU498     -0.1245
    147  CA        -9.1160  -11.3060   13.2810 C.3   498  LEU498      0.1561
    148  C         -7.9470  -11.6220   12.3540 C.2   498  LEU498      0.2260
    149  O         -7.9000  -12.6860   11.7220 O.2   498  LEU498     -0.2867
    150  CB        -9.9550  -12.5680   13.6200 C.3   498  LEU498      0.0270
    151  CG       -11.1580  -12.3610   14.5530 C.3   498  LEU498      0.0019
    152  CD1      -11.9950  -13.6210   14.6410 C.3   498  LEU498      0.0001
    153  CD2      -10.7060  -11.9120   15.9580 C.3   498  LEU498      0.0001
    154  N         -2.3310  -10.9090   14.7430 N.3   502  MET502     -0.1245
    155  CA        -2.8720  -10.8570   16.1060 C.3   502  MET502      0.1570
    156  C         -2.4880  -12.1110   16.9030 C.2   502  MET502      0.2261
    157  O         -2.4440  -12.0570   18.1320 O.2   502  MET502     -0.2867
    158  CB        -4.3930  -10.7520   16.0630 C.3   502  MET502      0.0387
    159  CG        -4.9040   -9.3330   15.9820 C.3   502  MET502      0.0595
    160  SD        -6.7210   -9.2070   16.0720 S.3   502  MET502     -0.1393
    161  CE        -7.0510   -9.9780   17.6690 C.3   502  MET502      0.0692
@<TRIPOS>BOND
     1   149   148    2
     2   148   147    1
     3   146   147    1
     4   147   150    1
     5   150   151    1
     6   151   152    1
     7   151   153    1
     8   154   155    1
     9    87    88    1
    10    87    84    1
    11     7     6   ar
    12     5     6    1
    13     5     2    1
    14    89    88   ar
    15    89    91   ar
    16    88    90   ar
    17    31    32    1
    18     6     8   ar
    19    91    93   ar
    20    90    92   ar
    21     1     2    1
    22    84    83    1
    23    84    85    1
    24   159   158    1
    25   159   160    1
    26    72    73    1
    27   158   155    1
    28   160   161    1
    29    93    92   ar
    30    93    94    1
    31   155   156    1
    32     2     3    1
    33    32    33    1
    34    32    35    1
    35   156   157    2
    36    36    35    1
    37    73    74    1
    38    73    76    1
    39    85    86    2
    40    85    95   am
    41   115   114    1
    42    80    78   ar
    43    80    82   ar
    44    74    75    2
    45    78    77   ar
    46    33    34    2
    47     3     9   am
    48     3     4    2
    49    35    37    1
    50    82    81   ar
    51     9    10    1
    52    95    96    1
    53    77    76    1
    54    77    79   ar
    55   114   113   ar
    56   114   112   ar
    57   113   111   ar
    58    81    79   ar
    59   112   110   ar
    60   100   101    1
    61   100    99    1
    62   103   101   am
    63    96    99    1
    64    96    97    1
    65    10    13    1
    66    10    11    1
    67    13    14    1
    68    15    14   ar
    69    15    17   ar
    70   111   109   ar
    71   101   102    2
    72    11    12    2
    73    97    98    2
    74    14    16   ar
    75    67    66    2
    76   110   109   ar
    77    17    18   ar
    78   109   108    1
    79    23    24    1
    80    16    18   ar
    81    16    19   ar
    82    66    65    1
    83    18    20   ar
    84    70    68    1
    85   108   105    1
    86    24    27    1
    87    24    25    1
    88    27    28    1
    89    65    68    1
    90    65    64    1
    91    61    60    2
    92    19    21   ar
    93    20    22   ar
    94    68    69    1
    95    69    71    1
    96    29    30    1
    97    29    28    1
    98    25    26    2
    99   105   104    1
   100   105   106    1
   101    60    64   am
   102    60    59    1
   103   123   122    1
   104    21    22   ar
   105   106   107    2
   106    59    62    1
   107    59    58    1
   108   122   121    1
   109    62    63    1
   110   121   120    1
   111    54    53    2
   112    53    52    1
   113   120   117    1
   114   131   129   am
   115    52    55    1
   116    52    51    1
   117   117   116    1
   118   117   118    1
   119    50    48   am
   120    55    56    1
   121    38    39    1
   122   129   128    1
   123   129   130    2
   124    47    48    1
   125    47    44    1
   126    48    49    2
   127    39    40    1
   128    39    42    1
   129   128   125    1
   130    51    57    1
   131    43    40   am
   132    43    44    1
   133    40    41    2
   134   118   119    2
   135    56    57    1
   136    44    45    1
   137   125   126    1
   138   125   124    1
   139   126   132   am
   140   126   127    2
   141   132   133    1
   142   138   137   ar
   143   138   140   ar
   144    45    46    2
   145   136   133    1
   146   136   137    1
   147   133   134    1
   148   137   139   ar
   149   140   141   ar
   150   134   135    2
   151   139   141   ar
   152   139   142   ar
   153   141   143   ar
   154   142   144   ar
   155   143   145   ar
   156   144   145   ar
