@<TRIPOS>MOLECULE
tmp/5akzA00.pdb
 165 164 0 0 0
SMALL
GASTEIGER

@<TRIPOS>ATOM
      1  N        -20.2640   15.5940  -15.8850 N.3   266  PHE266     -0.1241
      2  CA       -21.3450   14.6390  -15.7850 C.3   266  PHE266      0.1605
      3  C        -21.5420   14.1490  -14.3400 C.2   266  PHE266      0.2264
      4  O        -20.5630   13.7170  -13.7130 O.2   266  PHE266     -0.2867
      5  CB       -21.0580   13.4210  -16.7030 C.3   266  PHE266      0.0534
      6  CG       -22.0800   12.3070  -16.5990 C.ar  266  PHE266     -0.0203
      7  CD1      -21.9660   11.3210  -15.6210 C.ar  266  PHE266     -0.0042
      8  CD2      -23.1670   12.2500  -17.4690 C.ar  266  PHE266     -0.0042
      9  CE1      -22.9410   10.3050  -15.5010 C.ar  266  PHE266     -0.0003
     10  CE2      -24.1380   11.2380  -17.3490 C.ar  266  PHE266     -0.0003
     11  CZ       -24.0190   10.2750  -16.3660 C.ar  266  PHE266     -0.0000
     12  N        -14.3460   17.9100  -15.6470 N.3   334  ASP334     -0.1225
     13  CA       -14.8090   16.5920  -16.0870 C.3   334  ASP334      0.1805
     14  C        -15.1080   16.5770  -17.6050 C.2   334  ASP334      0.2597
     15  O        -14.2040   16.8900  -18.3670 O.2   334  ASP334     -0.2718
     16  CB       -15.9820   16.1400  -15.1670 C.3   334  ASP334      0.1424
     17  CG       -16.5240   14.7800  -15.4710 C.2   334  ASP334      0.3668
     18  OD1      -15.8640   13.8040  -15.1170 O.co2 334  ASP334     -0.2456
     19  OD2      -17.5710   14.7000  -16.1600 O.co2 334  ASP334     -0.2456
     20  N        -16.3400   16.2530  -18.0610 N.am  335  TRP335     -0.1976
     21  CA       -16.6650   16.2900  -19.4910 C.3   335  TRP335      0.1640
     22  C        -16.5220   17.7040  -20.0750 C.2   335  TRP335      0.2290
     23  O        -16.1510   17.8300  -21.2420 O.2   335  TRP335     -0.2864
     24  CB       -18.0610   15.7310  -19.7820 C.3   335  TRP335      0.0576
     25  CG       -18.0370   14.2990  -20.1910 C.ar  335  TRP335      0.0006
     26  CD1      -18.4630   13.2330  -19.4540 C.ar  335  TRP335      0.0946
     27  CD2      -17.4670   13.7530  -21.3970 C.ar  335  TRP335      0.0152
     28  NE1      -18.2450   12.0620  -20.1460 N.ar  335  TRP335     -0.2442
     29  CE2      -17.5970   12.3480  -21.3220 C.ar  335  TRP335      0.0810
     30  CE3      -16.8160   14.3140  -22.5140 C.ar  335  TRP335      0.0012
     31  CZ2      -17.1500   11.4980  -22.3430 C.ar  335  TRP335      0.0191
     32  CZ3      -16.3870   13.4740  -23.5280 C.ar  335  TRP335      0.0001
     33  CH2      -16.5550   12.0810  -23.4390 C.ar  335  TRP335      0.0015
     34  N        -12.8740   18.2460  -20.9230 N.3   338  MET338     -0.1245
     35  CA       -12.5650   17.6400  -22.2180 C.3   338  MET338      0.1570
     36  C        -12.9820   18.5730  -23.3560 C.2   338  MET338      0.2261
     37  O        -12.2370   18.7240  -24.3150 O.2   338  MET338     -0.2867
     38  CB       -13.2690   16.2840  -22.3800 C.3   338  MET338      0.0387
     39  CG       -12.8610   15.5430  -23.6410 C.3   338  MET338      0.0595
     40  SD       -11.4280   14.4640  -23.4020 S.3   338  MET338     -0.1393
     41  CE       -10.0710   15.6530  -23.4270 C.3   338  MET338      0.0692
     42  N         -9.7220   16.9160  -15.5830 N.3   359  THR359     -0.1204
     43  CA        -9.6080   16.3130  -16.9180 C.3   359  THR359      0.1979
     44  C         -8.3010   16.6710  -17.5950 C.2   359  THR359      0.2459
     45  O         -8.0890   17.8420  -17.8920 O.2   359  THR359     -0.2732
     46  CB       -10.8200   16.6470  -17.8000 C.3   359  THR359      0.1783
     47  OG1      -11.9720   16.4120  -17.0290 O.3   359  THR359     -0.2211
     48  CG2      -10.8840   15.8090  -19.0920 C.3   359  THR359      0.0376
     49  N         -7.4290   15.6780  -17.8750 N.am  360  PRO360     -0.2728
     50  CA        -6.1910   15.9980  -18.5830 C.3   360  PRO360      0.1401
     51  C         -6.4510   16.0980  -20.0820 C.2   360  PRO360      0.2269
     52  O         -7.5070   15.6890  -20.5570 O.2   360  PRO360     -0.2865
     53  CB        -5.3060   14.7700  -18.3050 C.3   360  PRO360      0.0296
     54  CG        -6.2470   13.6450  -18.1160 C.3   360  PRO360      0.0237
     55  CD        -7.5520   14.2160  -17.6320 C.3   360  PRO360      0.0939
     56  N        -12.2440    2.8370  -15.7540 N.3   380  PHE380     -0.1241
     57  CA       -13.1120    3.2920  -16.8490 C.3   380  PHE380      0.1605
     58  C        -14.1930    2.2860  -17.2370 C.2   380  PHE380      0.2264
     59  O        -14.8560    2.4870  -18.2620 O.2   380  PHE380     -0.2867
     60  CB       -12.3040    3.7380  -18.0950 C.3   380  PHE380      0.0534
     61  CG       -11.5020    5.0260  -17.9910 C.ar  380  PHE380     -0.0203
     62  CD1      -11.6480    5.8770  -16.8950 C.ar  380  PHE380     -0.0042
     63  CD2      -10.6100    5.3910  -18.9910 C.ar  380  PHE380     -0.0042
     64  CE1      -10.9060    7.0610  -16.7990 C.ar  380  PHE380     -0.0003
     65  CE2       -9.8760    6.5830  -18.9000 C.ar  380  PHE380     -0.0003
     66  CZ       -10.0290    7.4090  -17.8020 C.ar  380  PHE380     -0.0000
     67  N        -17.1530    1.6210  -15.8660 N.3   382  TYR382     -0.1227
     68  CA       -18.4540    2.2890  -15.8280 C.3   382  TYR382      0.1736
     69  C        -18.8010    2.9370  -17.1930 C.2   382  TYR382      0.2595
     70  O        -19.9770    3.0280  -17.5180 O.2   382  TYR382     -0.2718
     71  CB       -18.4840    3.3220  -14.6920 C.3   382  TYR382      0.0548
     72  CG       -17.6450    4.5500  -14.9760 C.ar  382  TYR382     -0.0200
     73  CD1      -16.2760    4.5490  -14.7420 C.ar  382  TYR382     -0.0009
     74  CD2      -18.2110    5.6920  -15.5430 C.ar  382  TYR382     -0.0009
     75  CE1      -15.4970    5.6650  -15.0230 C.ar  382  TYR382      0.0417
     76  CE2      -17.4380    6.8050  -15.8500 C.ar  382  TYR382      0.0417
     77  CZ       -16.0800    6.7910  -15.5800 C.ar  382  TYR382      0.1957
     78  OH       -15.2880    7.8720  -15.8760 O.3   382  TYR382     -0.2866
     79  N        -17.7820    3.3520  -17.9940 N.am  383  GLN383     -0.1979
     80  CA       -18.0250    3.9450  -19.3130 C.3   383  GLN383      0.1601
     81  C        -18.5840    2.9220  -20.2980 C.2   383  GLN383      0.2287
     82  O        -19.3540    3.3000  -21.1800 O.2   383  GLN383     -0.2864
     83  CB       -16.7720    4.5970  -19.8830 C.3   383  GLN383      0.0394
     84  CG       -16.1100    5.5890  -18.9460 C.3   383  GLN383      0.0908
     85  CD       -15.0250    6.3880  -19.6140 C.2   383  GLN383      0.2608
     86  OE1      -14.7900    6.2830  -20.8200 O.2   383  GLN383     -0.2717
     87  NE2      -14.3440    7.2150  -18.8400 N.am  383  GLN383     -0.0878
     88  N        -22.1700    2.5530  -19.4740 N.3   386  PHE386     -0.1241
     89  CA       -22.8780    3.7120  -20.0310 C.3   386  PHE386      0.1605
     90  C        -23.2160    3.5860  -21.5190 C.2   386  PHE386      0.2264
     91  O        -24.0400    4.3560  -22.0120 O.2   386  PHE386     -0.2867
     92  CB       -22.0950    5.0180  -19.7530 C.3   386  PHE386      0.0534
     93  CG       -22.0890    5.4950  -18.3140 C.ar  386  PHE386     -0.0203
     94  CD1      -22.8500    4.8510  -17.3430 C.ar  386  PHE386     -0.0042
     95  CD2      -21.3410    6.6020  -17.9360 C.ar  386  PHE386     -0.0042
     96  CE1      -22.8710    5.3110  -16.0240 C.ar  386  PHE386     -0.0003
     97  CE2      -21.3510    7.0580  -16.6110 C.ar  386  PHE386     -0.0003
     98  CZ       -22.1190    6.4130  -15.6630 C.ar  386  PHE386     -0.0000
     99  N        -15.9070    2.2780   -9.0260 N.3   418  MET418     -0.1245
    100  CA       -16.0260    2.3350  -10.4900 C.3   418  MET418      0.1570
    101  C        -15.5250    1.1120  -11.2720 C.2   418  MET418      0.2261
    102  O        -15.6830    1.0530  -12.5010 O.2   418  MET418     -0.2867
    103  CB       -15.4640    3.6540  -11.0380 C.3   418  MET418      0.0387
    104  CG       -16.5490    4.6110  -11.5180 C.3   418  MET418      0.0595
    105  SD       -17.6590    5.3000  -10.2740 S.3   418  MET418     -0.1393
    106  CE       -16.5200    6.3010   -9.3860 C.3   418  MET418      0.0692
    107  N        -20.9690   10.1510  -23.5600 N.3   465  TYR465     -0.1241
    108  CA       -20.1250    8.9340  -23.5390 C.3   465  TYR465      0.1605
    109  C        -20.3160    8.0190  -24.7370 C.2   465  TYR465      0.2264
    110  O        -19.5770    7.0360  -24.8930 O.2   465  TYR465     -0.2867
    111  CB       -20.4770    8.0850  -22.3050 C.3   465  TYR465      0.0534
    112  CG       -20.1330    8.6960  -20.9720 C.ar  465  TYR465     -0.0201
    113  CD1      -18.8930    8.4710  -20.3820 C.ar  465  TYR465     -0.0009
    114  CD2      -21.0800    9.4140  -20.2500 C.ar  465  TYR465     -0.0009
    115  CE1      -18.6030    8.9490  -19.1060 C.ar  465  TYR465      0.0417
    116  CE2      -20.7970    9.9130  -18.9840 C.ar  465  TYR465      0.0417
    117  CZ       -19.5490    9.6960  -18.4230 C.ar  465  TYR465      0.1957
    118  OH       -19.2760   10.2100  -17.1800 O.3   465  TYR465     -0.2866
    119  N        -10.5950    8.4460  -10.5190 N.3   497  VAL497     -0.1231
    120  CA       -10.9380    8.1540  -11.9170 C.3   497  VAL497      0.1692
    121  C        -10.0120    8.9950  -12.8120 C.2   497  VAL497      0.2591
    122  O         -9.2800    8.4480  -13.6470 O.2   497  VAL497     -0.2718
    123  CB       -12.4400    8.3630  -12.2470 C.3   497  VAL497      0.0266
    124  CG1      -12.7000    8.2330  -13.7510 C.3   497  VAL497      0.0020
    125  CG2      -13.3140    7.3900  -11.4590 C.3   497  VAL497      0.0020
    126  N        -10.0540   10.3290  -12.6210 N.am  498  LEU498     -0.1980
    127  CA        -9.2230   11.2920  -13.3460 C.3   498  LEU498      0.1596
    128  C         -8.0650   11.6110  -12.4300 C.2   498  LEU498      0.2287
    129  O         -8.0450   12.6440  -11.7670 O.2   498  LEU498     -0.2864
    130  CB       -10.0270   12.5510  -13.7600 C.3   498  LEU498      0.0297
    131  CG       -11.2280   12.2990  -14.6870 C.3   498  LEU498      0.0022
    132  CD1      -12.0880   13.5420  -14.8160 C.3   498  LEU498      0.0001
    133  CD2      -10.7740   11.7850  -16.0790 C.3   498  LEU498      0.0001
    134  N         -2.4950   10.8930  -14.8410 N.3   502  MET502     -0.1245
    135  CA        -3.0530   10.8190  -16.2020 C.3   502  MET502      0.1570
    136  C         -2.6940   12.0910  -17.0010 C.2   502  MET502      0.2261
    137  O         -2.7680   12.0750  -18.2270 O.2   502  MET502     -0.2867
    138  CB        -4.5830   10.6980  -16.1320 C.3   502  MET502      0.0387
    139  CG        -5.1090    9.2990  -16.3590 C.3   502  MET502      0.0595
    140  SD        -6.9320    9.2000  -16.3190 S.3   502  MET502     -0.1393
    141  CE        -7.3630   10.1290  -17.7430 C.3   502  MET502      0.0692
    142  N        -13.2440   13.8660   -6.8560 N.3   523  HIS523     -0.1226
    143  CA       -13.7590   14.1720   -8.1900 C.3   523  HIS523      0.1752
    144  C        -14.5980   15.4650   -8.2990 C.2   523  HIS523      0.2596
    145  O        -14.5280   16.1320   -9.3210 O.2   523  HIS523     -0.2718
    146  CB       -14.5280   12.9600   -8.7780 C.3   523  HIS523      0.0759
    147  CG       -15.0990   13.2500  -10.1420 C.ar  523  HIS523      0.0818
    148  ND1      -14.2840   13.3250  -11.2600 N.ar  523  HIS523     -0.2268
    149  CD2      -16.3600   13.5860  -10.5000 C.ar  523  HIS523      0.1154
    150  CE1      -15.0790   13.6750  -12.2560 C.ar  523  HIS523      0.1986
    151  NE2      -16.3340   13.8490  -11.8450 N.ar  523  HIS523     -0.2212
    152  N        -15.3900   15.8090   -7.2660 N.am  524  TRP524     -0.1976
    153  CA       -16.3020   16.9630   -7.2720 C.3   524  TRP524      0.1640
    154  C        -15.5980   18.2310   -6.7940 C.2   524  TRP524      0.2290
    155  O        -16.0450   18.9190   -5.8800 O.2   524  TRP524     -0.2864
    156  CB       -17.5890   16.6260   -6.4990 C.3   524  TRP524      0.0576
    157  CG       -18.0870   15.2460   -6.8100 C.ar  524  TRP524      0.0006
    158  CD1      -17.8480   14.1150   -6.0870 C.ar  524  TRP524      0.0946
    159  CD2      -18.7300   14.8150   -8.0230 C.ar  524  TRP524      0.0152
    160  NE1      -18.3400   13.0170   -6.7470 N.ar  524  TRP524     -0.2442
    161  CE2      -18.9170   13.4180   -7.9220 C.ar  524  TRP524      0.0810
    162  CE3      -19.2020   15.4790   -9.1680 C.ar  524  TRP524      0.0012
    163  CZ2      -19.5330   12.6680   -8.9300 C.ar  524  TRP524      0.0191
    164  CZ3      -19.8200   14.7400  -10.1560 C.ar  524  TRP524      0.0001
    165  CH2      -19.9940   13.3520  -10.0290 C.ar  524  TRP524      0.0015
@<TRIPOS>BOND
     1   110   109    2
     2   109   108    1
     3    37    36    2
     4    39    40    1
     5    39    38    1
     6   107   108    1
     7   108   111    1
     8    32    33   ar
     9    32    30   ar
    10    33    31   ar
    11    41    40    1
    12    36    35    1
    13    30    27   ar
    14    38    35    1
    15    31    29   ar
    16   111   112    1
    17    35    34    1
    18    91    90    2
    19    90    89    1
    20    27    29   ar
    21    27    25   ar
    22    29    28   ar
    23    23    22    2
    24    82    81    2
    25   112   113   ar
    26   112   114   ar
    27    86    85    2
    28    52    51    2
    29   113   115   ar
    30    81    80    1
    31   114   116   ar
    32    25    24    1
    33    25    26   ar
    34    28    26   ar
    35    51    50    1
    36    22    21    1
    37    89    92    1
    38    89    88    1
    39    83    80    1
    40    83    84    1
    41    24    21    1
    42    92    93    1
    43    85    84    1
    44    85    87   am
    45    21    20    1
    46    80    79    1
    47   115   117   ar
    48    48    46    1
    49    63    65   ar
    50    63    61   ar
    51   116   117   ar
    52    65    66   ar
    53    50    53    1
    54    50    49    1
    55   117   118    1
    56    15    14    2
    57    93    95   ar
    58    93    94   ar
    59    53    54    1
    60    59    58    2
    61   137   136    2
    62    54    55    1
    63    60    61    1
    64    60    57    1
    65    20    14   am
    66    79    69   am
    67    61    62   ar
    68    95    97   ar
    69    45    44    2
    70    49    55    1
    71    49    44   am
    72    66    64   ar
    73    46    47    1
    74    46    43    1
    75   141   140    1
    76    14    13    1
    77    44    43    1
    78    70    69    2
    79     8    10   ar
    80     8     6   ar
    81    10    11   ar
    82    94    96   ar
    83    58    57    1
    84    69    68    1
    85   136   135    1
    86    43    42    1
    87    62    64   ar
    88    57    56    1
    89     5     6    1
    90     5     2    1
    91    97    98   ar
    92     6     7   ar
    93    11     9   ar
    94   139   140    1
    95   139   138    1
    96   135   138    1
    97   135   134    1
    98    19    17   ar
    99    13    12    1
   100    13    16    1
   101   133   131    1
   102    96    98   ar
   103     1     2    1
   104    78    77    1
   105    67    68    1
   106    76    77   ar
   107    76    74   ar
   108    68    71    1
   109     2     3    1
   110     7     9   ar
   111    77    75   ar
   112    74    72   ar
   113    17    16    1
   114    17    18   ar
   115    75    73   ar
   116    72    73   ar
   117    72    71    1
   118   132   131    1
   119   131   130    1
   120     3     4    2
   121   130   127    1
   122   124   123    1
   123   122   121    2
   124   127   126    1
   125   127   128    1
   126   121   126   am
   127   121   120    1
   128   102   101    2
   129   128   129    2
   130   150   151   ar
   131   150   148   ar
   132   123   120    1
   133   123   125    1
   134   120   119    1
   135   151   149   ar
   136   104   103    1
   137   104   105    1
   138   101   100    1
   139   148   147   ar
   140   103   100    1
   141   149   147   ar
   142   100    99    1
   143   105   106    1
   144   164   165   ar
   145   164   162   ar
   146   147   146    1
   147   165   163   ar
   148   145   144    2
   149   162   159   ar
   150   163   161   ar
   151   146   143    1
   152   144   143    1
   153   144   152   am
   154   143   142    1
   155   159   161   ar
   156   159   157   ar
   157   161   160   ar
   158   153   152    1
   159   153   154    1
   160   153   156    1
   161   157   156    1
   162   157   158   ar
   163   154   155    2
   164   160   158   ar
