@<TRIPOS>MOLECULE
tmp/5al0A00.pdb
 86 78 0 0 0
SMALL
GASTEIGER

@<TRIPOS>ATOM
      1  N         17.7280   31.6990   31.5370 N.3     4  MET4       -0.1245
      2  CA        19.0170   32.3930   31.3890 C.3     4  MET4        0.1570
      3  C         19.5560   32.7600   32.7640 C.2     4  MET4        0.2261
      4  O         18.7980   33.1320   33.6540 O.2     4  MET4       -0.2867
      5  CB        18.8810   33.6740   30.5530 C.3     4  MET4        0.0387
      6  CG        20.2320   34.2950   30.1460 C.3     4  MET4        0.0595
      7  SD        20.9530   35.5030   31.2910 S.3     4  MET4       -0.1393
      8  CE        20.1500   37.0040   30.7320 C.3     4  MET4        0.0692
      9  N         22.5320   35.0760   34.8460 N.3     6  LYS6       -0.1245
     10  CA        23.4410   36.2340   34.7580 C.3     6  LYS6        0.1561
     11  C         24.1280   36.3790   36.0950 C.2     6  LYS6        0.2260
     12  O         23.4580   36.4080   37.1060 O.2     6  LYS6       -0.2867
     13  CB        22.6220   37.4990   34.4580 C.3     6  LYS6        0.0271
     14  CG        23.3560   38.8230   34.5340 C.3     6  LYS6        0.0035
     15  CD        24.1420   39.0900   33.2920 C.3     6  LYS6        0.0206
     16  CE        24.5510   40.5490   33.2290 C.3     6  LYS6        0.1093
     17  NZ        25.5080   40.7960   32.1310 N.3     6  LYS6       -0.1314
     18  N         27.1800   38.5200   38.3500 N.3     8  LEU8       -0.1245
     19  CA        28.0190   39.7160   38.5150 C.3     8  LEU8        0.1561
     20  C         28.9290   39.5420   39.7290 C.2     8  LEU8        0.2260
     21  O         28.5510   38.8970   40.7210 O.2     8  LEU8       -0.2867
     22  CB        27.1410   40.9570   38.7080 C.3     8  LEU8        0.0270
     23  CG        26.3080   41.3800   37.4960 C.3     8  LEU8        0.0019
     24  CD1       25.4660   42.6070   37.8220 C.3     8  LEU8        0.0001
     25  CD2       27.1440   41.6740   36.2610 C.3     8  LEU8        0.0001
     26  N         26.9760   35.8230   31.3320 N.3    45  GLU45      -0.1245
     27  CA        25.6890   35.2320   30.9890 C.3    45  GLU45       0.1567
     28  C         25.8210   33.7930   30.5590 C.2    45  GLU45       0.2260
     29  O         26.8420   33.3740   29.9950 O.2    45  GLU45      -0.2867
     30  CB        24.9970   36.0370   29.8840 C.3    45  GLU45       0.0388
     31  CG        24.8990   37.5140   30.2230 C.3    45  GLU45       0.1160
     32  CD        23.8980   38.2880   29.3800 C.2    45  GLU45       0.3649
     33  OE1       23.4330   37.7730   28.3410 O.co2  45  GLU45      -0.2457
     34  OE2       23.5840   39.4340   29.7670 O.co2  45  GLU45      -0.2457
     35  N         14.9700   34.7960   33.9010 N.3    97  THR97      -0.1218
     36  CA        16.3630   35.1650   34.0810 C.3    97  THR97       0.1862
     37  C         16.6630   35.1290   35.5660 C.2    97  THR97       0.2287
     38  O         15.9890   35.7900   36.3540 O.2    97  THR97      -0.2866
     39  CB        16.6620   36.5470   33.5290 C.3    97  THR97       0.1770
     40  OG1       16.4160   36.5490   32.1160 O.3    97  THR97      -0.2211
     41  CG2       18.1090   36.9190   33.7780 C.3    97  THR97       0.0375
     42  N         19.3940   36.0970   38.1840 N.3    99  ALA99      -0.1231
     43  CA        20.5580   36.9520   38.2880 C.3    99  ALA99       0.1694
     44  C         21.1450   36.7820   39.6720 C.2    99  ALA99       0.2592
     45  O         20.3980   36.6100   40.6460 O.2    99  ALA99      -0.2718
     46  CB        20.1830   38.3770   38.0680 C.3    99  ALA99       0.0304
     47  N         22.4660   36.8530   39.7800 N.am  100  ALA100     -0.1966
     48  CA        23.1450   36.7280   41.0650 C.3   100  ALA100      0.1728
     49  C         24.3060   37.6940   41.1220 C.2   100  ALA100      0.2616
     50  O         25.0580   37.8140   40.1610 O.2   100  ALA100     -0.2715
     51  CB        23.6260   35.3330   41.2800 C.3   100  ALA100      0.0334
     52  N         24.4390   38.3600   42.2640 N.am  101  LEU101     -0.1977
     53  CA        25.5260   39.2930   42.5270 C.3   101  LEU101      0.1596
     54  C         26.3770   38.7240   43.6510 C.2   101  LEU101      0.2287
     55  O         25.8610   38.5050   44.7520 O.2   101  LEU101     -0.2864
     56  CB        24.9310   40.6320   42.9220 C.3   101  LEU101      0.0297
     57  CG        25.9180   41.7050   43.3710 C.3   101  LEU101      0.0022
     58  CD1       26.7780   42.2010   42.2140 C.3   101  LEU101      0.0001
     59  CD2       25.1270   42.8150   44.0140 C.3   101  LEU101      0.0001
     60  N         23.3580   38.0080   46.4270 N.3   108  SER108     -0.1202
     61  CA        21.9860   38.4530   46.2770 C.3   108  SER108      0.2020
     62  C         21.4700   38.0270   44.9250 C.2   108  SER108      0.2619
     63  O         22.0930   38.2960   43.8910 O.2   108  SER108     -0.2717
     64  CB        21.8900   39.9640   46.4080 C.3   108  SER108      0.2103
     65  OG        22.5690   40.6070   45.3480 O.3   108  SER108     -0.2182
     66  N         20.3260   37.3530   44.9470 N.am  109  THR109     -0.1938
     67  CA        19.7570   36.7820   43.7410 C.3   109  THR109      0.2028
     68  C         18.3470   37.2940   43.5240 C.2   109  THR109      0.2642
     69  O         17.5990   37.5590   44.4600 O.2   109  THR109     -0.2714
     70  CB        19.8080   35.2350   43.7630 C.3   109  THR109      0.1808
     71  OG1       19.3250   34.7180   42.5320 O.3   109  THR109     -0.2208
     72  CG2       18.9630   34.6420   44.8790 C.3   109  THR109      0.0379
     73  N         17.9850   37.4880   42.2700 N.am  110  THR110     -0.1950
     74  CA        16.6250   37.8700   41.9570 C.3   110  THR110      0.1897
     75  C         16.2190   37.0590   40.7450 C.2   110  THR110      0.2313
     76  O         16.9990   36.2730   40.2000 O.2   110  THR110     -0.2863
     77  CB        16.4850   39.4170   41.7330 C.3   110  THR110      0.1794
     78  OG1       15.1000   39.8050   41.6260 O.3   110  THR110     -0.2208
     79  CG2       17.2710   39.8640   40.5070 C.3   110  THR110      0.0378
     80  N         13.8250   37.6170   37.0790 N.3   112  VAL112     -0.1245
     81  CA        13.0320   38.4150   36.1700 C.3   112  VAL112      0.1561
     82  C         12.2630   37.4250   35.3190 C.2   112  VAL112      0.2260
     83  O         12.8570   36.6000   34.6080 O.2   112  VAL112     -0.2867
     84  CB        13.9050   39.2930   35.2790 C.3   112  VAL112      0.0252
     85  CG1       13.0470   40.0780   34.3080 C.3   112  VAL112      0.0019
     86  CG2       14.7480   40.2390   36.1280 C.3   112  VAL112      0.0019
@<TRIPOS>BOND
     1    33    32   ar
     2    32    34   ar
     3    32    31    1
     4    30    31    1
     5    30    27    1
     6    29    28    2
     7     6     5    1
     8     6     7    1
     9     5     2    1
    10    28    27    1
    11     8     7    1
    12    27    26    1
    13     2     1    1
    14     2     3    1
    15    40    39    1
    16    17    16    1
    17     3     4    2
    18    16    15    1
    19    15    14    1
    20    39    41    1
    21    39    36    1
    22    35    36    1
    23    36    37    1
    24    85    84    1
    25    13    14    1
    26    13    10    1
    27    83    82    2
    28    10     9    1
    29    10    11    1
    30    84    86    1
    31    84    81    1
    32    82    81    1
    33    37    38    2
    34    11    12    2
    35    81    80    1
    36    25    23    1
    37    23    24    1
    38    23    22    1
    39    46    43    1
    40    42    43    1
    41    43    44    1
    42    18    19    1
    43    19    22    1
    44    19    20    1
    45    44    47   am
    46    44    45    2
    47    20    21    2
    48    47    48    1
    49    50    49    2
    50    76    75    2
    51    79    77    1
    52    75    74    1
    53    48    49    1
    54    48    51    1
    55    49    52   am
    56    78    77    1
    57    77    74    1
    58    74    73    1
    59    58    57    1
    60    52    53    1
    61    73    68   am
    62    53    56    1
    63    53    54    1
    64    71    70    1
    65    56    57    1
    66    57    59    1
    67    68    67    1
    68    68    69    2
    69    54    55    2
    70    67    70    1
    71    67    66    1
    72    70    72    1
    73    63    62    2
    74    62    66   am
    75    62    61    1
    76    65    64    1
    77    61    64    1
    78    61    60    1
