@<TRIPOS>MOLECULE
tmp/5al2B00.pdb
 152 153 0 0 0
SMALL
GASTEIGER

@<TRIPOS>ATOM
      1  N         -5.4170    9.5160   11.8570 N.3    80  HIS80      -0.1226
      2  CA        -5.6530    9.1550   13.2240 C.3    80  HIS80       0.1752
      3  C         -5.9590   10.4120   14.0210 C.2    80  HIS80       0.2597
      4  O         -5.1530   11.3620   14.0050 O.2    80  HIS80      -0.2718
      5  CB        -4.4300    8.4670   13.8010 C.3    80  HIS80       0.0759
      6  CG        -4.6340    7.9690   15.1880 C.ar   80  HIS80       0.0818
      7  ND1       -5.3250    6.8040   15.4610 N.ar   80  HIS80      -0.2268
      8  CD2       -4.2680    8.4820   16.3890 C.ar   80  HIS80       0.1154
      9  CE1       -5.3880    6.6340   16.7660 C.ar   80  HIS80       0.1986
     10  NE2       -4.7490    7.6300   17.3500 N.ar   80  HIS80      -0.2212
     11  N         -7.1110   10.4110   14.6930 N.am   81  GLY81      -0.1942
     12  CA        -7.4800   11.4650   15.6330 C.3    81  GLY81       0.2014
     13  C         -7.5640   10.9040   17.0410 C.2    81  GLY81       0.2640
     14  O         -8.0530    9.7800   17.2570 O.2    81  GLY81      -0.2714
     15  N         -7.0780   11.6770   18.0080 N.am   82  SER82      -0.1936
     16  CA        -6.9670   11.2100   19.3760 C.3    82  SER82       0.2040
     17  C         -6.6990   12.3660   20.3470 C.2    82  SER82       0.2485
     18  O         -5.9220   13.2700   20.0130 O.2    82  SER82      -0.2729
     19  CB        -5.8190   10.1960   19.4770 C.3    82  SER82       0.2129
     20  OG        -5.6250    9.7770   20.8200 O.3    82  SER82      -0.2179
     21  N         -7.2800   12.3120   21.5590 N.am   83  PRO83      -0.2715
     22  CA        -6.7980   13.2150   22.6230 C.3    83  PRO83       0.1536
     23  C         -5.3020   13.1000   22.9490 C.2    83  PRO83       0.2598
     24  O         -4.7530   14.0180   23.5190 O.2    83  PRO83      -0.2715
     25  CB        -7.5910   12.7820   23.8690 C.3    83  PRO83       0.0310
     26  CG        -8.6240   11.8310   23.4160 C.3    83  PRO83       0.0237
     27  CD        -8.1770   11.2710   22.1000 C.3    83  PRO83       0.0939
     28  N         -4.6410   11.9960   22.5970 N.am   84  PHE84      -0.1974
     29  CA        -3.2290   11.7840   22.9790 C.3    84  PHE84       0.1639
     30  C         -2.2240   12.1100   21.8660 C.2    84  PHE84       0.2290
     31  O         -1.0840   11.6450   21.8910 O.2    84  PHE84      -0.2864
     32  CB        -3.0550   10.3330   23.4650 C.3    84  PHE84       0.0560
     33  CG        -4.1100    9.9150   24.4560 C.ar   84  PHE84      -0.0200
     34  CD1       -4.3970   10.7260   25.5490 C.ar   84  PHE84      -0.0042
     35  CD2       -4.8470    8.7590   24.2700 C.ar   84  PHE84      -0.0042
     36  CE1       -5.3910   10.3670   26.4560 C.ar   84  PHE84      -0.0003
     37  CE2       -5.8310    8.3930   25.1750 C.ar   84  PHE84      -0.0003
     38  CZ        -6.1050    9.1950   26.2650 C.ar   84  PHE84      -0.0000
     39  N         -1.5690    2.3880   25.1360 N.3    96  ARG96      -0.1231
     40  CA        -2.3770    3.4390   25.7610 C.3    96  ARG96       0.1694
     41  C         -3.2230    4.1460   24.7000 C.2    96  ARG96       0.2592
     42  O         -4.1980    4.8120   25.0370 O.2    96  ARG96      -0.2718
     43  CB        -1.5090    4.4820   26.4850 C.3    96  ARG96       0.0321
     44  CG        -0.3270    3.9330   27.2850 C.3    96  ARG96       0.0489
     45  CD         0.6840    5.0240   27.6480 C.3    96  ARG96       0.2205
     46  NE         1.2890    5.6830   26.4830 N.pl3  96  ARG96      -0.0865
     47  CZ         2.1800    6.6760   26.5460 C.cat  96  ARG96       0.5346
     48  NH1        2.5940    7.1390   27.7220 N.pl3  96  ARG96       0.1354
     49  NH2        2.6640    7.2110   25.4260 N.pl3  96  ARG96       0.1354
     50  N         -2.8380    4.0110   23.4210 N.am   97  HIS97      -0.1962
     51  CA        -3.5470    4.6640   22.2990 C.3    97  HIS97       0.1787
     52  C         -4.5710    3.7590   21.6040 C.2    97  HIS97       0.2620
     53  O         -5.2360    4.1990   20.6520 O.2    97  HIS97      -0.2715
     54  CB        -2.5290    5.2110   21.3000 C.3    97  HIS97       0.0785
     55  CG        -1.4580    6.0370   21.9470 C.ar   97  HIS97       0.0821
     56  ND1       -0.1240    5.7750   21.7800 N.ar   97  HIS97      -0.2267
     57  CD2       -1.5250    7.0700   22.8210 C.ar   97  HIS97       0.1154
     58  CE1        0.5950    6.6340   22.4850 C.ar   97  HIS97       0.1986
     59  NE2       -0.2330    7.4370   23.1210 N.ar   97  HIS97      -0.2212
     60  N         -4.6830    2.5210   22.1010 N.am   98  ALA98      -0.1963
     61  CA        -5.6490    1.5270   21.6170 C.3    98  ALA98       0.1728
     62  C         -7.0500    1.8320   22.1140 C.2    98  ALA98       0.2616
     63  O         -7.2270    2.3180   23.2220 O.2    98  ALA98      -0.2715
     64  CB        -5.2510    0.1190   22.0630 C.3    98  ALA98       0.0334
     65  N         -8.0350    1.5360   21.2690 N.am   99  TYR99      -0.1974
     66  CA        -9.4230    1.7320   21.5740 C.3    99  TYR99       0.1639
     67  C         -9.9060    0.3770   22.0550 C.2    99  TYR99       0.2290
     68  O        -10.2420   -0.5050   21.2510 O.2    99  TYR99      -0.2864
     69  CB       -10.1590    2.1990   20.3100 C.3    99  TYR99       0.0560
     70  CG       -11.6260    2.4960   20.4390 C.ar   99  TYR99      -0.0198
     71  CD1      -12.2460    2.5890   21.6760 C.ar   99  TYR99      -0.0009
     72  CD2      -12.4000    2.7010   19.2990 C.ar   99  TYR99      -0.0009
     73  CE1      -13.5940    2.8710   21.7790 C.ar   99  TYR99       0.0417
     74  CE2      -13.7510    2.9820   19.3910 C.ar   99  TYR99       0.0417
     75  CZ       -14.3310    3.0750   20.6390 C.ar   99  TYR99       0.1957
     76  OH       -15.6460    3.3730   20.7470 O.3    99  TYR99      -0.2866
     77  N         -6.7180    2.3700   15.8770 N.3   109  TYR109     -0.1227
     78  CA        -7.6470    2.5210   14.7680 C.3   109  TYR109      0.1736
     79  C         -7.2470    3.7020   13.8760 C.2   109  TYR109      0.2595
     80  O         -6.8700    4.7520   14.3940 O.2   109  TYR109     -0.2718
     81  CB        -9.0330    2.7640   15.3310 C.3   109  TYR109      0.0548
     82  CG        -9.7340    1.5330   15.7990 C.ar  109  TYR109     -0.0200
     83  CD1       -9.2440    0.8050   16.8750 C.ar  109  TYR109     -0.0009
     84  CD2      -10.9150    1.0980   15.1820 C.ar  109  TYR109     -0.0009
     85  CE1       -9.8730   -0.3580   17.3190 C.ar  109  TYR109      0.0417
     86  CE2      -11.5650   -0.0610   15.6320 C.ar  109  TYR109      0.0417
     87  CZ       -11.0350   -0.7870   16.6890 C.ar  109  TYR109      0.1957
     88  OH       -11.6440   -1.9560   17.1310 O.3   109  TYR109     -0.2866
     89  N         -7.3480    3.5200   12.5590 N.am  110  PHE110     -0.1962
     90  CA        -7.0050    4.5490   11.5680 C.3   110  PHE110      0.1771
     91  C         -8.1120    4.6310   10.5400 C.2   110  PHE110      0.2619
     92  O         -8.8190    3.6570   10.3140 O.2   110  PHE110     -0.2715
     93  CB        -5.6870    4.1950   10.8820 C.3   110  PHE110      0.0574
     94  CG        -4.5160    4.1850   11.8050 C.ar  110  PHE110     -0.0200
     95  CD1       -4.1950    3.0500   12.5320 C.ar  110  PHE110     -0.0042
     96  CD2       -3.7170    5.3130   11.9300 C.ar  110  PHE110     -0.0042
     97  CE1       -3.1380    3.0560   13.4070 C.ar  110  PHE110     -0.0003
     98  CE2       -2.6420    5.3240   12.7900 C.ar  110  PHE110     -0.0003
     99  CZ        -2.3450    4.1710   13.5220 C.ar  110  PHE110     -0.0000
    100  N         -8.2640    5.7790    9.8970 N.am  111  ALA111     -0.1977
    101  CA        -9.3520    5.9720    8.9300 C.3   111  ALA111      0.1597
    102  C         -8.8760    6.5080    7.5790 C.2   111  ALA111      0.2287
    103  O         -7.8810    7.2710    7.4880 O.2   111  ALA111     -0.2864
    104  CB       -10.4060    6.9090    9.4870 C.3   111  ALA111      0.0319
    105  N        -13.9510   10.8780    9.7870 N.3   116  LYS116     -0.1231
    106  CA       -14.0140    9.8210   10.8190 C.3   116  LYS116      0.1693
    107  C        -13.0030   10.0450   11.9720 C.2   116  LYS116      0.2592
    108  O        -13.3650   10.0740   13.1620 O.2   116  LYS116     -0.2718
    109  CB       -13.8580    8.4410   10.1580 C.3   116  LYS116      0.0285
    110  CG       -13.7080    7.2530   11.0880 C.3   116  LYS116      0.0035
    111  CD       -14.7780    7.1420   12.1340 C.3   116  LYS116      0.0206
    112  CE       -16.1210    6.9340   11.4950 C.3   116  LYS116      0.1093
    113  NZ       -17.0960    6.6310   12.5740 N.3   116  LYS116     -0.1314
    114  N        -11.7550   10.3100   11.6270 N.am  117  SER117     -0.1952
    115  CA       -10.7190   10.5690   12.6570 C.3   117  SER117      0.1924
    116  C        -11.0370   11.8440   13.4510 C.2   117  SER117      0.2314
    117  O        -10.7890   11.8920   14.6440 O.2   117  SER117     -0.2863
    118  CB        -9.3250   10.6400   12.0460 C.3   117  SER117      0.2116
    119  OG        -8.9230    9.4030   11.5050 O.3   117  SER117     -0.2180
    120  N        -12.8270   11.6670   16.7970 N.3   120  TYR120     -0.1241
    121  CA       -12.0880   11.1950   17.9680 C.3   120  TYR120      0.1605
    122  C        -11.0920   12.2070   18.5440 C.2   120  TYR120      0.2264
    123  O        -10.4470   11.9360   19.5640 O.2   120  TYR120     -0.2867
    124  CB       -11.3650    9.8960   17.6520 C.3   120  TYR120      0.0534
    125  CG       -12.3190    8.7640   17.4550 C.ar  120  TYR120     -0.0201
    126  CD1      -12.9340    8.5390   16.2200 C.ar  120  TYR120     -0.0009
    127  CD2      -12.6740    7.9510   18.5270 C.ar  120  TYR120     -0.0009
    128  CE1      -13.8430    7.4960   16.0450 C.ar  120  TYR120      0.0417
    129  CE2      -13.5820    6.9020   18.3630 C.ar  120  TYR120      0.0417
    130  CZ       -14.1770    6.6920   17.1230 C.ar  120  TYR120      0.1957
    131  OH       -15.0680    5.6500   16.9960 O.3   120  TYR120     -0.2866
    132  N        -11.8300   12.8540   22.0150 N.3   123  GLY123     -0.1210
    133  CA       -12.1500   11.6210   22.7140 C.3   123  GLY123      0.1956
    134  C        -13.1980   10.7830   22.0000 C.2   123  GLY123      0.2611
    135  O        -13.7270   11.1780   20.9750 O.2   123  GLY123     -0.2717
    136  N        -13.5290    9.6490   22.5920 N.am  124  ILE124     -0.1979
    137  CA       -14.5610    8.7630   22.0580 C.3   124  ILE124      0.1595
    138  C        -15.9040    9.4850   22.0370 C.2   124  ILE124      0.2287
    139  O        -16.2820   10.1510   22.9980 O.2   124  ILE124     -0.2864
    140  CB       -14.6390    7.4720   22.9010 C.3   124  ILE124      0.0276
    141  CG1      -13.3230    6.7270   22.7960 C.3   124  ILE124      0.0022
    142  CG2      -15.7930    6.5920   22.4360 C.3   124  ILE124      0.0022
    143  CD1      -13.1090    5.6980   23.8850 C.3   124  ILE124      0.0001
    144  N        -11.8530    1.5290    7.5770 N.3   187  GLU187     -0.1245
    145  CA       -11.1340    1.8150    8.8140 C.3   187  GLU187      0.1567
    146  C        -10.2020    0.6270    9.0350 C.2   187  GLU187      0.2260
    147  O        -10.4770   -0.4890    8.5410 O.2   187  GLU187     -0.2867
    148  CB       -12.1570    2.0190    9.9580 C.3   187  GLU187      0.0388
    149  CG       -13.0810    3.1980    9.6290 C.3   187  GLU187      0.1160
    150  CD       -14.2970    3.3490   10.5270 C.2   187  GLU187      0.3649
    151  OE1      -14.2660    2.8550   11.6850 O.co2 187  GLU187     -0.2457
    152  OE2      -15.2800    3.9780   10.0530 O.co2 187  GLU187     -0.2457
@<TRIPOS>BOND
     1   103   102    2
     2   144   145    1
     3   102   101    1
     4   147   146    2
     5   145   146    1
     6   145   148    1
     7   101   104    1
     8   101   100    1
     9   149   148    1
    10   149   150    1
    11   105   106    1
    12   100    91   am
    13   152   150   ar
    14   109   106    1
    15   109   110    1
    16    92    91    2
    17   150   151   ar
    18    91    90    1
    19   106   107    1
    20    93    90    1
    21    93    94    1
    22   110   111    1
    23   112   111    1
    24   112   113    1
    25   119   118    1
    26    90    89    1
    27   114   107   am
    28   114   115    1
    29    94    96   ar
    30    94    95   ar
    31     1     2    1
    32    96    98   ar
    33   107   108    2
    34   118   115    1
    35    95    97   ar
    36    89    79   am
    37   115   116    1
    38    98    99   ar
    39     2     5    1
    40     2     3    1
    41    97    99   ar
    42   116   117    2
    43     5     6    1
    44    79    80    2
    45    79    78    1
    46     4     3    2
    47     3    11   am
    48    11    12    1
    49    78    81    1
    50    78    77    1
    51    84    86   ar
    52    84    82   ar
    53     6     7   ar
    54     6     8   ar
    55    81    82    1
    56     7     9   ar
    57    86    87   ar
    58    12    13    1
    59    82    83   ar
    60   128   126   ar
    61   128   130   ar
    62   126   125   ar
    63     8    10   ar
    64    87    88    1
    65    87    85   ar
    66     9    10   ar
    67   120   121    1
    68    83    85   ar
    69   131   130    1
    70    13    14    2
    71    13    15   am
    72   130   129   ar
    73   125   124    1
    74   125   127   ar
    75   124   121    1
    76   121   122    1
    77    15    16    1
    78   129   127   ar
    79   122   123    2
    80    72    74   ar
    81    72    70   ar
    82    16    19    1
    83    16    17    1
    84    74    75   ar
    85    19    20    1
    86    18    17    2
    87    69    70    1
    88    69    66    1
    89    17    21   am
    90    70    71   ar
    91    75    76    1
    92    75    73   ar
    93    53    52    2
    94   135   134    2
    95    68    67    2
    96    65    66    1
    97    65    62   am
    98    54    55    1
    99    54    51    1
   100    21    27    1
   101    21    22    1
   102    66    67    1
   103    52    60   am
   104    52    51    1
   105    61    64    1
   106    61    60    1
   107    61    62    1
   108    71    73   ar
   109    56    55   ar
   110    56    58   ar
   111    30    31    2
   112    30    29    1
   113    55    57   ar
   114   134   136   am
   115   134   133    1
   116   132   133    1
   117   138   137    1
   118   138   139    2
   119   137   136    1
   120   137   140    1
   121    27    26    1
   122    62    63    2
   123    51    50    1
   124   142   140    1
   125    58    59   ar
   126    28    23   am
   127    28    29    1
   128    22    23    1
   129    22    25    1
   130   141   140    1
   131   141   143    1
   132    57    59   ar
   133    23    24    2
   134    29    32    1
   135    26    25    1
   136    50    41   am
   137    32    33    1
   138    35    33   ar
   139    35    37   ar
   140    33    34   ar
   141    41    42    2
   142    41    40    1
   143    39    40    1
   144    37    38   ar
   145    49    47    1
   146    34    36   ar
   147    40    43    1
   148    38    36   ar
   149    46    47    2
   150    46    45    1
   151    43    44    1
   152    47    48    1
   153    44    45    1
