@<TRIPOS>MOLECULE
tmp/5al3A00.pdb
 153 154 0 0 0
SMALL
GASTEIGER

@<TRIPOS>ATOM
      1  N        -35.5910   -7.3370   17.4470 N.3    80  HIS80      -0.1226
      2  CA       -35.9650   -7.5660   16.0650 C.3    80  HIS80       0.1752
      3  C        -34.7180   -7.7670   15.2250 C.2    80  HIS80       0.2597
      4  O        -33.7740   -6.9210   15.2530 O.2    80  HIS80      -0.2718
      5  CB       -36.7740   -6.3870   15.5060 C.3    80  HIS80       0.0759
      6  CG       -37.3350   -6.6500   14.1430 C.ar   80  HIS80       0.0818
      7  ND1      -38.4400   -7.4490   13.9180 N.ar   80  HIS80      -0.2268
      8  CD2      -36.9040   -6.2590   12.9160 C.ar   80  HIS80       0.1154
      9  CE1      -38.6910   -7.4950   12.6240 C.ar   80  HIS80       0.1986
     10  NE2      -37.7690   -6.7810   11.9950 N.ar   80  HIS80      -0.2212
     11  N        -34.6650   -8.8910   14.5290 N.am   81  GLY81      -0.1942
     12  CA       -33.5700   -9.1700   13.5920 C.3    81  GLY81       0.2014
     13  C        -34.1460   -9.2740   12.1990 C.2    81  GLY81       0.2640
     14  O        -35.2160   -9.8590   12.0050 O.2    81  GLY81      -0.2714
     15  N        -33.4380   -8.7160   11.2140 N.am   82  SER82      -0.1936
     16  CA       -33.9850   -8.6940    9.8600 C.3    82  SER82       0.2040
     17  C        -32.9070   -8.2740    8.8970 C.2    82  SER82       0.2485
     18  O        -32.0810   -7.4400    9.2420 O.2    82  SER82      -0.2729
     19  CB       -35.0720   -7.6450    9.7910 C.3    82  SER82       0.2129
     20  OG       -35.5940   -7.4930    8.4750 O.3    82  SER82      -0.2179
     21  N        -32.9640   -8.7850    7.6640 N.am   83  PRO83      -0.2715
     22  CA       -32.0640   -8.1770    6.6460 C.3    83  PRO83       0.1536
     23  C        -32.4150   -6.7350    6.3320 C.2    83  PRO83       0.2598
     24  O        -31.6410   -6.0840    5.6530 O.2    83  PRO83      -0.2715
     25  CB       -32.2980   -9.0250    5.3830 C.3    83  PRO83       0.0310
     26  CG       -33.1840  -10.1380    5.7840 C.3    83  PRO83       0.0237
     27  CD       -33.8580   -9.7980    7.0860 C.3    83  PRO83       0.0939
     28  N        -33.5500   -6.2370    6.8260 N.am   84  PHE84      -0.1974
     29  CA       -34.0080   -4.8750    6.5550 C.3    84  PHE84       0.1639
     30  C        -33.6150   -3.8560    7.6330 C.2    84  PHE84       0.2290
     31  O        -34.0690   -2.7230    7.6020 O.2    84  PHE84      -0.2864
     32  CB       -35.5220   -4.8480    6.3610 C.3    84  PHE84       0.0560
     33  CG       -35.9870   -5.6930    5.2210 C.ar   84  PHE84      -0.0200
     34  CD1      -35.4710   -5.4990    3.9530 C.ar   84  PHE84      -0.0042
     35  CD2      -36.9090   -6.7070    5.4230 C.ar   84  PHE84      -0.0042
     36  CE1      -35.8780   -6.3060    2.8900 C.ar   84  PHE84      -0.0003
     37  CE2      -37.3150   -7.5200    4.3730 C.ar   84  PHE84      -0.0003
     38  CZ       -36.8010   -7.3150    3.1110 C.ar   84  PHE84      -0.0000
     39  N        -41.5600   -4.6650    5.6960 N.3    97  HIS97      -0.1226
     40  CA       -40.6850   -5.3700    6.6410 C.3    97  HIS97       0.1752
     41  C        -41.3840   -6.5270    7.3300 C.2    97  HIS97       0.2596
     42  O        -40.7730   -7.1810    8.1940 O.2    97  HIS97      -0.2718
     43  CB       -40.1450   -4.3710    7.6660 C.3    97  HIS97       0.0759
     44  CG       -39.4900   -3.1970    7.0180 C.ar   97  HIS97       0.0818
     45  ND1      -39.8210   -1.8960    7.3120 N.ar   97  HIS97      -0.2268
     46  CD2      -38.5700   -3.1350    6.0300 C.ar   97  HIS97       0.1154
     47  CE1      -39.1220   -1.0760    6.5430 C.ar   97  HIS97       0.1986
     48  NE2      -38.3660   -1.8050    5.7450 N.ar   97  HIS97      -0.2212
     49  N        -42.6360   -6.7920    6.9490 N.am   98  ALA98      -0.1966
     50  CA       -43.4300   -7.8590    7.5820 C.3    98  ALA98       0.1728
     51  C        -42.9890   -9.2290    7.0790 C.2    98  ALA98       0.2616
     52  O        -42.3990   -9.3410    6.0010 O.2    98  ALA98      -0.2715
     53  CB       -44.9220   -7.6560    7.3370 C.3    98  ALA98       0.0334
     54  N        -43.2460  -10.2560    7.8840 N.am   99  TYR99      -0.1974
     55  CA       -43.0030  -11.6390    7.5140 C.3    99  TYR99       0.1639
     56  C        -44.3310  -12.2090    7.0230 C.2    99  TYR99       0.2290
     57  O        -45.2520  -12.4760    7.7930 O.2    99  TYR99      -0.2864
     58  CB       -42.4790  -12.4070    8.7290 C.3    99  TYR99       0.0560
     59  CG       -42.2340  -13.8790    8.5320 C.ar   99  TYR99      -0.0198
     60  CD1      -41.9730  -14.4250    7.2770 C.ar   99  TYR99      -0.0009
     61  CD2      -42.2250  -14.7350    9.6330 C.ar   99  TYR99      -0.0009
     62  CE1      -41.7480  -15.7890    7.1430 C.ar   99  TYR99       0.0417
     63  CE2      -41.9670  -16.0670    9.5020 C.ar   99  TYR99       0.0417
     64  CZ       -41.7310  -16.5870    8.2610 C.ar   99  TYR99       0.1957
     65  OH       -41.4670  -17.9150    8.1760 O.3    99  TYR99      -0.2866
     66  N        -47.2370   -9.9030    9.5120 N.3   107  GLY107     -0.1210
     67  CA       -47.0650   -8.8440   10.4820 C.3   107  GLY107      0.1956
     68  C        -45.5950   -8.6450   10.8100 C.2   107  GLY107      0.2612
     69  O        -44.7130   -9.3160   10.2480 O.2   107  GLY107     -0.2717
     70  N        -45.3270   -7.7500   11.7500 N.am  108  ILE108     -0.1965
     71  CA       -43.9570   -7.4940   12.1560 C.3   108  ILE108      0.1727
     72  C        -43.7340   -8.1740   13.5010 C.2   108  ILE108      0.2616
     73  O        -44.4470   -7.8680   14.4560 O.2   108  ILE108     -0.2715
     74  CB       -43.6760   -5.9970   12.2220 C.3   108  ILE108      0.0290
     75  CG1      -44.0310   -5.3280   10.8880 C.3   108  ILE108      0.0022
     76  CG2      -42.2020   -5.7650   12.5830 C.3   108  ILE108      0.0023
     77  CD1      -44.1300   -3.8330   10.9840 C.3   108  ILE108      0.0001
     78  N        -42.7800   -9.1020   13.5370 N.am  109  TYR109     -0.1960
     79  CA       -42.5580   -9.9990   14.6810 C.3   109  TYR109      0.1771
     80  C        -41.4100   -9.5090   15.5310 C.2   109  TYR109      0.2620
     81  O        -40.3880   -9.0570   15.0080 O.2   109  TYR109     -0.2715
     82  CB       -42.2380  -11.4220   14.1750 C.3   109  TYR109      0.0574
     83  CG       -43.4450  -12.1410   13.5630 C.ar  109  TYR109     -0.0198
     84  CD1      -44.0870  -11.6580   12.4090 C.ar  109  TYR109     -0.0009
     85  CD2      -43.9520  -13.2900   14.1570 C.ar  109  TYR109     -0.0009
     86  CE1      -45.2140  -12.2990   11.8970 C.ar  109  TYR109      0.0417
     87  CE2      -45.0690  -13.9240   13.6390 C.ar  109  TYR109      0.0417
     88  CZ       -45.7070  -13.4300   12.5340 C.ar  109  TYR109      0.1957
     89  OH       -46.8460  -14.0960   12.0500 O.3   109  TYR109     -0.2866
     90  N        -41.5340   -9.6990   16.8460 N.am  110  PHE110     -0.1960
     91  CA       -40.5200   -9.3020   17.8150 C.3   110  PHE110      0.1771
     92  C        -40.3370  -10.4270   18.8110 C.2   110  PHE110      0.2619
     93  O        -41.2930  -11.2080   19.0370 O.2   110  PHE110     -0.2715
     94  CB       -40.9460   -8.0280   18.5540 C.3   110  PHE110      0.0574
     95  CG       -41.0380   -6.8210   17.6820 C.ar  110  PHE110     -0.0200
     96  CD1      -42.1900   -6.5580   16.9790 C.ar  110  PHE110     -0.0042
     97  CD2      -39.9480   -5.9930   17.5190 C.ar  110  PHE110     -0.0042
     98  CE1      -42.2770   -5.4520   16.1640 C.ar  110  PHE110     -0.0003
     99  CE2      -40.0230   -4.8760   16.6940 C.ar  110  PHE110     -0.0003
    100  CZ       -41.1860   -4.6150   16.0200 C.ar  110  PHE110     -0.0000
    101  N        -39.1560  -10.5000   19.4250 N.am  111  ALA111     -0.1977
    102  CA       -38.8530  -11.5450   20.3770 C.3   111  ALA111      0.1597
    103  C        -38.3090  -11.0230   21.7140 C.2   111  ALA111      0.2287
    104  O        -37.4980  -10.0760   21.7730 O.2   111  ALA111     -0.2864
    105  CB       -37.8270  -12.5240   19.7800 C.3   111  ALA111      0.0319
    106  N        -33.5850  -15.6930   19.4550 N.3   116  LYS116     -0.1231
    107  CA       -34.6340  -15.8730   18.4470 C.3   116  LYS116      0.1693
    108  C        -34.4960  -14.8430   17.3050 C.2   116  LYS116      0.2592
    109  O        -34.4790  -15.2240   16.1100 O.2   116  LYS116     -0.2718
    110  CB       -36.0110  -15.7860   19.1020 C.3   116  LYS116      0.0285
    111  CG       -37.1890  -15.7950   18.1510 C.3   116  LYS116      0.0035
    112  CD       -37.1350  -16.8650   17.0710 C.3   116  LYS116      0.0206
    113  CE       -37.4470  -18.2360   17.5370 C.3   116  LYS116      0.1093
    114  NZ       -37.7960  -19.1490   16.3820 N.3   116  LYS116     -0.1314
    115  N        -34.3660  -13.5560   17.6490 N.am  117  SER117     -0.1952
    116  CA       -34.1210  -12.5210   16.6070 C.3   117  SER117      0.1924
    117  C        -32.8310  -12.7640   15.8240 C.2   117  SER117      0.2314
    118  O        -32.7830  -12.4870   14.6290 O.2   117  SER117     -0.2863
    119  CB       -34.1650  -11.1100   17.1690 C.3   117  SER117      0.2116
    120  OG       -35.4570  -10.8140   17.6700 O.3   117  SER117     -0.2180
    121  N        -32.8310  -14.5250   12.3940 N.3   120  TYR120     -0.1241
    122  CA       -33.3700  -13.8450   11.2300 C.3   120  TYR120      0.1605
    123  C        -32.4910  -12.7520   10.6480 C.2   120  TYR120      0.2264
    124  O        -32.9060  -12.1040    9.6790 O.2   120  TYR120     -0.2867
    125  CB       -34.7110  -13.2170   11.5890 C.3   120  TYR120      0.0534
    126  CG       -35.7950  -14.2360   11.8390 C.ar  120  TYR120     -0.0201
    127  CD1      -36.5430  -14.7420   10.7830 C.ar  120  TYR120     -0.0009
    128  CD2      -36.0620  -14.7220   13.1320 C.ar  120  TYR120     -0.0009
    129  CE1      -37.5400  -15.6840   10.9980 C.ar  120  TYR120      0.0417
    130  CE2      -37.0430  -15.6650   13.3330 C.ar  120  TYR120      0.0417
    131  CZ       -37.7790  -16.1310   12.2700 C.ar  120  TYR120      0.1957
    132  OH       -38.7700  -17.0710   12.4140 O.3   120  TYR120     -0.2866
    133  N        -31.9280  -13.4580    7.1590 N.3   123  GLY123     -0.1210
    134  CA       -33.1450  -13.7850    6.4490 C.3   123  GLY123      0.1956
    135  C        -33.9800  -14.8300    7.1760 C.2   123  GLY123      0.2611
    136  O        -33.5550  -15.3600    8.1860 O.2   123  GLY123     -0.2717
    137  N        -35.1340  -15.1550    6.6060 N.am  124  ILE124     -0.1979
    138  CA       -35.9840  -16.2150    7.1230 C.3   124  ILE124      0.1595
    139  C        -35.1800  -17.5230    7.1300 C.2   124  ILE124      0.2287
    140  O        -34.5410  -17.8560    6.1540 O.2   124  ILE124     -0.2864
    141  CB       -37.2610  -16.4120    6.2610 C.3   124  ILE124      0.0276
    142  CG1      -38.0420  -15.0980    6.0710 C.3   124  ILE124      0.0022
    143  CG2      -38.1110  -17.5390    6.8540 C.3   124  ILE124      0.0022
    144  CD1      -38.4240  -14.3440    7.3360 C.3   124  ILE124      0.0001
    145  N        -43.0530  -14.3460   21.9460 N.3   185  GLU185     -0.1245
    146  CA       -42.8370  -13.6020   20.6950 C.3   185  GLU185      0.1567
    147  C        -44.1100  -12.7930   20.4410 C.2   185  GLU185      0.2260
    148  O        -45.2020  -13.1450   20.9340 O.2   185  GLU185     -0.2867
    149  CB       -42.4940  -14.5670   19.5590 C.3   185  GLU185      0.0388
    150  CG       -41.2430  -15.3990   19.8450 C.3   185  GLU185      0.1160
    151  CD       -41.0230  -16.5300   18.8720 C.2   185  GLU185      0.3649
    152  OE1      -41.5740  -16.4560   17.7390 O.co2 185  GLU185     -0.2457
    153  OE2      -40.3140  -17.4990   19.2360 O.co2 185  GLU185     -0.2457
@<TRIPOS>BOND
     1    36    38   ar
     2    36    34   ar
     3    38    37   ar
     4    34    33   ar
     5    37    35   ar
     6    33    35   ar
     7    33    32    1
     8    25    26    1
     9    25    22    1
    10    24    23    2
    11    39    40    1
    12    48    46   ar
    13    48    47   ar
    14    26    27    1
    15    52    51    2
    16    46    44   ar
    17   142   141    1
    18   142   144    1
    19   140   139    2
    20   141   143    1
    21   141   138    1
    22    23    22    1
    23    23    28   am
    24    32    29    1
    25   134   133    1
    26   134   135    1
    27    47    45   ar
    28    29    28    1
    29    29    30    1
    30   137   138    1
    31   137   135   am
    32    40    41    1
    33    40    43    1
    34    22    21    1
    35    49    41   am
    36    49    50    1
    37    44    45   ar
    38    44    43    1
    39    56    55    1
    40    56    57    2
    41    51    50    1
    42    51    54   am
    43    27    21    1
    44   138   139    1
    45    62    60   ar
    46    62    64   ar
    47   135   136    2
    48    60    59   ar
    49    41    42    2
    50    53    50    1
    51    55    54    1
    52    55    58    1
    53    31    30    2
    54    21    17   am
    55    65    64    1
    56    64    63   ar
    57    20    19    1
    58    59    58    1
    59    59    61   ar
    60    17    18    2
    61    17    16    1
    62    63    61   ar
    63    66    67    1
    64   124   123    2
    65    19    16    1
    66    16    15    1
    67    69    68    2
    68    67    68    1
    69   123   122    1
    70   127   129   ar
    71   127   126   ar
    72    68    70   am
    73    75    77    1
    74    75    74    1
    75   129   131   ar
    76    15    13   am
    77   122   125    1
    78   122   121    1
    79   125   126    1
    80    70    71    1
    81   126   128   ar
    82    86    84   ar
    83    86    88   ar
    84    10     9   ar
    85    10     8   ar
    86    14    13    2
    87    89    88    1
    88    71    74    1
    89    71    72    1
    90    13    12    1
    91    74    76    1
    92   131   132    1
    93   131   130   ar
    94    84    83   ar
    95    88    87   ar
    96     9     7   ar
    97     8     6   ar
    98   128   130   ar
    99    72    78   am
   100    72    73    2
   101    78    79    1
   102    83    85   ar
   103    83    82    1
   104    12    11    1
   105    87    85   ar
   106     7     6   ar
   107     6     5    1
   108    82    79    1
   109    11     3   am
   110   118   117    2
   111    79    80    1
   112    81    80    2
   113     3     4    2
   114     3     2    1
   115     5     2    1
   116    80    90   am
   117   117   116    1
   118   100    98   ar
   119   100    99   ar
   120     2     1    1
   121   109   108    2
   122    98    96   ar
   123   114   113    1
   124   116   119    1
   125   116   115    1
   126    99    97   ar
   127    90    91    1
   128    96    95   ar
   129   112   113    1
   130   112   111    1
   131   119   120    1
   132   108   115   am
   133   108   107    1
   134    97    95   ar
   135    95    94    1
   136   152   151   ar
   137    91    94    1
   138    91    92    1
   139   111   110    1
   140   107   110    1
   141   107   106    1
   142    92    93    2
   143    92   101   am
   144   151   153   ar
   145   151   150    1
   146   101   102    1
   147   149   150    1
   148   149   146    1
   149   105   102    1
   150   102   103    1
   151   147   146    1
   152   147   148    2
   153   146   145    1
   154   103   104    2
