@<TRIPOS>MOLECULE
tmp/5al4A00.pdb
 141 142 0 0 0
SMALL
GASTEIGER

@<TRIPOS>ATOM
      1  N        -36.1140   -7.2310   17.2800 N.3    80  HIS80      -0.1226
      2  CA       -36.4920   -7.4740   15.9100 C.3    80  HIS80       0.1752
      3  C        -35.2430   -7.6970   15.0530 C.2    80  HIS80       0.2597
      4  O        -34.3170   -6.8730   15.0790 O.2    80  HIS80      -0.2718
      5  CB       -37.3210   -6.3070   15.3480 C.3    80  HIS80       0.0759
      6  CG       -37.8590   -6.5640   13.9840 C.ar   80  HIS80       0.0818
      7  ND1      -39.0080   -7.3030   13.7500 N.ar   80  HIS80      -0.2268
      8  CD2      -37.3920   -6.1880   12.7540 C.ar   80  HIS80       0.1154
      9  CE1      -39.2210   -7.3580   12.4420 C.ar   80  HIS80       0.1986
     10  NE2      -38.2650   -6.6800   11.8230 N.ar   80  HIS80      -0.2212
     11  N        -35.2130   -8.8420   14.3770 N.am   81  GLY81      -0.1942
     12  CA       -34.1650   -9.2120   13.4240 C.3    81  GLY81       0.2014
     13  C        -34.6970   -9.1990   12.0110 C.2    81  GLY81       0.2640
     14  O        -35.7360   -9.8120   11.7280 O.2    81  GLY81      -0.2714
     15  N        -33.9600   -8.5600   11.0970 N.am   82  SER82      -0.1936
     16  CA       -34.3960   -8.4540    9.7290 C.3    82  SER82       0.2040
     17  C        -33.2730   -8.0860    8.7690 C.2    82  SER82       0.2485
     18  O        -32.3760   -7.2800    9.1170 O.2    82  SER82      -0.2729
     19  CB       -35.4520   -7.3570    9.6240 C.3    82  SER82       0.2129
     20  OG       -35.8160   -7.1880    8.2670 O.3    82  SER82      -0.2179
     21  N        -33.3070   -8.6570    7.5670 N.am   83  PRO83      -0.2715
     22  CA       -32.4100   -8.1200    6.5310 C.3    83  PRO83       0.1536
     23  C        -32.6720   -6.6540    6.1740 C.2    83  PRO83       0.2598
     24  O        -31.8050   -6.0190    5.5480 O.2    83  PRO83      -0.2715
     25  CB       -32.7090   -8.9960    5.2950 C.3    83  PRO83       0.0310
     26  CG       -33.6720  -10.0290    5.7200 C.3    83  PRO83       0.0237
     27  CD       -34.2580   -9.6570    7.0460 C.3    83  PRO83       0.0939
     28  N        -33.8350   -6.1110    6.5480 N.am   84  PHE84      -0.1974
     29  CA       -34.2170   -4.7380    6.1920 C.3    84  PHE84       0.1639
     30  C        -33.9630   -3.7040    7.3020 C.2    84  PHE84       0.2290
     31  O        -34.5930   -2.6310    7.3460 O.2    84  PHE84      -0.2864
     32  CB       -35.6840   -4.7010    5.8040 C.3    84  PHE84       0.0560
     33  CG       -36.0950   -5.8350    4.9200 C.ar   84  PHE84      -0.0200
     34  CD1      -35.3250   -6.1750    3.8170 C.ar   84  PHE84      -0.0042
     35  CD2      -37.2430   -6.5690    5.2030 C.ar   84  PHE84      -0.0042
     36  CE1      -35.6870   -7.2410    3.0020 C.ar   84  PHE84      -0.0003
     37  CE2      -37.6210   -7.6230    4.3810 C.ar   84  PHE84      -0.0003
     38  CZ       -36.8380   -7.9600    3.2850 C.ar   84  PHE84      -0.0000
     39  N        -42.3890   -4.7220    5.8690 N.3    97  HIS97      -0.1226
     40  CA       -41.5920   -5.4510    6.8670 C.3    97  HIS97       0.1752
     41  C        -42.3810   -6.5920    7.5360 C.2    97  HIS97       0.2596
     42  O        -41.9470   -7.1310    8.5740 O.2    97  HIS97      -0.2718
     43  CB       -41.0210   -4.4560    7.8720 C.3    97  HIS97       0.0759
     44  CG       -40.1480   -3.4350    7.2210 C.ar   97  HIS97       0.0818
     45  ND1      -40.5190   -2.1200    7.0740 N.ar   97  HIS97      -0.2268
     46  CD2      -38.9620   -3.5590    6.5900 C.ar   97  HIS97       0.1154
     47  CE1      -39.5810   -1.4650    6.4160 C.ar   97  HIS97       0.1986
     48  NE2      -38.6220   -2.3160    6.1120 N.ar   97  HIS97      -0.2212
     49  N        -43.4800   -6.9830    6.8830 N.am   98  ALA98      -0.1966
     50  CA       -44.4690   -7.9060    7.4320 C.3    98  ALA98       0.1728
     51  C        -44.1570   -9.3330    7.0410 C.2    98  ALA98       0.2616
     52  O        -43.9330   -9.6170    5.8720 O.2    98  ALA98      -0.2715
     53  CB       -45.8500   -7.5400    6.9360 C.3    98  ALA98       0.0334
     54  N        -44.1660  -10.2270    8.0200 N.am   99  TYR99      -0.1974
     55  CA       -43.9170  -11.6220    7.7810 C.3    99  TYR99       0.1639
     56  C        -45.2250  -12.2550    7.2730 C.2    99  TYR99       0.2290
     57  O        -46.0990  -12.6400    8.0630 O.2    99  TYR99      -0.2864
     58  CB       -43.3930  -12.2440    9.0690 C.3    99  TYR99       0.0560
     59  CG       -42.9060  -13.6630    8.9930 C.ar   99  TYR99      -0.0198
     60  CD1      -42.7230  -14.3190    7.7720 C.ar   99  TYR99      -0.0009
     61  CD2      -42.6540  -14.3570   10.1460 C.ar   99  TYR99      -0.0009
     62  CE1      -42.2850  -15.6150    7.7350 C.ar   99  TYR99       0.0417
     63  CE2      -42.1920  -15.6460   10.1210 C.ar   99  TYR99       0.0417
     64  CZ       -42.0200  -16.2730    8.9160 C.ar   99  TYR99       0.1957
     65  OH       -41.5570  -17.5680    8.9160 O.3    99  TYR99      -0.2866
     66  N        -43.3210   -8.8750   13.4470 N.3   109  TYR109     -0.1227
     67  CA       -43.0870   -9.7830   14.5760 C.3   109  TYR109      0.1736
     68  C        -41.9070   -9.3120   15.3990 C.2   109  TYR109      0.2595
     69  O        -40.8870   -8.8700   14.8450 O.2   109  TYR109     -0.2718
     70  CB       -42.7670  -11.1660   14.0600 C.3   109  TYR109      0.0548
     71  CG       -43.9840  -11.9100   13.5490 C.ar  109  TYR109     -0.0200
     72  CD1      -44.6840  -11.4530   12.4440 C.ar  109  TYR109     -0.0009
     73  CD2      -44.4470  -13.0640   14.2260 C.ar  109  TYR109     -0.0009
     74  CE1      -45.8190  -12.1420   11.9930 C.ar  109  TYR109      0.0417
     75  CE2      -45.5630  -13.7450   13.7830 C.ar  109  TYR109      0.0417
     76  CZ       -46.2570  -13.2580   12.6750 C.ar  109  TYR109      0.1957
     77  OH       -47.4150  -13.9000   12.2460 O.3   109  TYR109     -0.2866
     78  N        -42.0200   -9.5130   16.7040 N.am  110  PHE110     -0.1962
     79  CA       -40.9990   -9.1730   17.6920 C.3   110  PHE110      0.1771
     80  C        -40.8180  -10.3240   18.6930 C.2   110  PHE110      0.2619
     81  O        -41.7500  -11.1270   18.9400 O.2   110  PHE110     -0.2715
     82  CB       -41.4120   -7.9260   18.4480 C.3   110  PHE110      0.0574
     83  CG       -41.5180   -6.7320   17.5870 C.ar  110  PHE110     -0.0200
     84  CD1      -42.6620   -6.4780   16.8980 C.ar  110  PHE110     -0.0042
     85  CD2      -40.4350   -5.8860   17.4240 C.ar  110  PHE110     -0.0042
     86  CE1      -42.7350   -5.4020   16.0310 C.ar  110  PHE110     -0.0003
     87  CE2      -40.5160   -4.7910   16.5760 C.ar  110  PHE110     -0.0003
     88  CZ       -41.6630   -4.5370   15.8980 C.ar  110  PHE110     -0.0000
     89  N        -39.6500  -10.4030   19.2930 N.am  111  ALA111     -0.1977
     90  CA       -39.3670  -11.4600   20.2680 C.3   111  ALA111      0.1597
     91  C        -38.8140  -10.9600   21.5670 C.2   111  ALA111      0.2287
     92  O        -37.9970  -10.0210   21.5780 O.2   111  ALA111     -0.2864
     93  CB       -38.3820  -12.4460   19.6770 C.3   111  ALA111      0.0319
     94  N        -34.1370  -15.5740   19.3310 N.3   116  LYS116     -0.1231
     95  CA       -35.2450  -15.8280   18.3570 C.3   116  LYS116      0.1693
     96  C        -35.1170  -14.8400   17.1670 C.2   116  LYS116      0.2592
     97  O        -35.1560  -15.2660   16.0050 O.2   116  LYS116     -0.2718
     98  CB       -36.6320  -15.7360   19.0000 C.3   116  LYS116      0.0285
     99  CG       -37.7980  -16.0750   18.0580 C.3   116  LYS116      0.0035
    100  CD       -37.8060  -17.5620   17.7390 C.3   116  LYS116      0.0206
    101  CE       -38.6230  -17.9320   16.5470 C.3   116  LYS116      0.1093
    102  NZ       -38.3450  -19.3560   16.2510 N.3   116  LYS116     -0.1314
    103  N        -35.0040  -13.5470   17.4650 N.am  117  SER117     -0.1952
    104  CA       -34.7870  -12.4990   16.4280 C.3   117  SER117      0.1924
    105  C        -33.5040  -12.7280   15.6150 C.2   117  SER117      0.2314
    106  O        -33.4510  -12.4430   14.3930 O.2   117  SER117     -0.2863
    107  CB       -34.8160  -11.1210   17.0430 C.3   117  SER117      0.2116
    108  OG       -36.1600  -10.7200   17.4030 O.3   117  SER117     -0.2180
    109  N        -33.5550  -14.4230   12.1640 N.3   120  TYR120     -0.1241
    110  CA       -34.1310  -13.7470   11.0280 C.3   120  TYR120      0.1605
    111  C        -33.2500  -12.6640   10.4540 C.2   120  TYR120      0.2264
    112  O        -33.6600  -12.0040    9.4860 O.2   120  TYR120     -0.2867
    113  CB       -35.4980  -13.1370   11.3770 C.3   120  TYR120      0.0534
    114  CG       -36.5160  -14.1970   11.6860 C.ar  120  TYR120     -0.0201
    115  CD1      -36.6420  -14.6930   12.9670 C.ar  120  TYR120     -0.0009
    116  CD2      -37.3130  -14.7400   10.6920 C.ar  120  TYR120     -0.0009
    117  CE1      -37.5330  -15.6950   13.2430 C.ar  120  TYR120      0.0417
    118  CE2      -38.2500  -15.7260   10.9770 C.ar  120  TYR120      0.0417
    119  CZ       -38.3300  -16.1990   12.2600 C.ar  120  TYR120      0.1957
    120  OH       -39.2140  -17.1810   12.5820 O.3   120  TYR120     -0.2866
    121  N        -32.5570  -13.5470    7.0410 N.3   123  GLY123     -0.1210
    122  CA       -33.7750  -13.8790    6.3350 C.3   123  GLY123      0.1956
    123  C        -34.5630  -14.9180    7.0940 C.2   123  GLY123      0.2611
    124  O        -34.1310  -15.3880    8.1360 O.2   123  GLY123     -0.2717
    125  N        -35.7170  -15.2740    6.5510 N.am  124  ILE124     -0.1979
    126  CA       -36.6020  -16.2780    7.1460 C.3   124  ILE124      0.1595
    127  C        -35.8160  -17.5710    7.2220 C.2   124  ILE124      0.2287
    128  O        -35.1500  -17.9340    6.2650 O.2   124  ILE124     -0.2864
    129  CB       -37.8650  -16.4880    6.2780 C.3   124  ILE124      0.0276
    130  CG1      -38.7040  -15.2010    6.2490 C.3   124  ILE124      0.0022
    131  CG2      -38.6880  -17.6640    6.8260 C.3   124  ILE124      0.0022
    132  CD1      -39.5410  -15.0420    5.0010 C.3   124  ILE124      0.0001
    133  N        -43.4820  -14.2630   21.8370 N.3   185  GLU185     -0.1245
    134  CA       -43.3640  -13.5190   20.6070 C.3   185  GLU185      0.1567
    135  C        -44.6640  -12.7320   20.3730 C.2   185  GLU185      0.2260
    136  O        -45.7460  -13.0850   20.9070 O.2   185  GLU185     -0.2867
    137  CB       -43.0610  -14.5050   19.4650 C.3   185  GLU185      0.0388
    138  CG       -41.8250  -15.3580   19.7550 C.3   185  GLU185      0.1160
    139  CD       -41.6670  -16.5440   18.8170 C.2   185  GLU185      0.3649
    140  OE1      -42.2620  -16.5380   17.7210 O.co2 185  GLU185     -0.2457
    141  OE2      -40.9220  -17.4680   19.1870 O.co2 185  GLU185     -0.2457
@<TRIPOS>BOND
     1    36    38   ar
     2    36    34   ar
     3    38    37   ar
     4    34    33   ar
     5    37    35   ar
     6    33    35   ar
     7    33    32    1
     8   132   130    1
     9    25    26    1
    10    25    22    1
    11    24    23    2
    12    26    27    1
    13    32    29    1
    14    39    40    1
    15    52    51    2
    16    48    47   ar
    17    48    46   ar
    18    23    22    1
    19    23    28   am
    20    29    28    1
    21    29    30    1
    22   130   129    1
    23   128   127    2
    24   129   131    1
    25   129   126    1
    26   122   121    1
    27   122   123    1
    28    47    45   ar
    29    22    21    1
    30   125   123   am
    31   125   126    1
    32    46    44   ar
    33    40    41    1
    34    40    43    1
    35    49    50    1
    36    49    41   am
    37    53    50    1
    38    51    50    1
    39    51    54   am
    40    27    21    1
    41    45    44   ar
    42   123   124    2
    43   126   127    1
    44    44    43    1
    45    56    55    1
    46    56    57    2
    47    30    31    2
    48    41    42    2
    49    21    17   am
    50    62    60   ar
    51    62    64   ar
    52    60    59   ar
    53    55    54    1
    54    55    58    1
    55    20    19    1
    56    17    18    2
    57    17    16    1
    58    65    64    1
    59    64    63   ar
    60    59    58    1
    61    59    61   ar
    62   112   111    2
    63    19    16    1
    64    16    15    1
    65    63    61   ar
    66   111   110    1
    67   116   118   ar
    68   116   114   ar
    69   118   119   ar
    70   110   113    1
    71   110   109    1
    72    15    13   am
    73   113   114    1
    74   114   115   ar
    75    14    13    2
    76    10     9   ar
    77    10     8   ar
    78    74    72   ar
    79    74    76   ar
    80    13    12    1
    81    77    76    1
    82   119   120    1
    83   119   117   ar
    84     9     7   ar
    85    72    71   ar
    86    76    75   ar
    87     8     6   ar
    88   115   117   ar
    89    12    11    1
    90    66    67    1
    91    71    70    1
    92    71    73   ar
    93     7     6   ar
    94    75    73   ar
    95     6     5    1
    96    70    67    1
    97    11     3   am
    98   106   105    2
    99    67    68    1
   100    69    68    2
   101     3     4    2
   102     3     2    1
   103     5     2    1
   104    68    78   am
   105   105   104    1
   106    88    86   ar
   107    88    87   ar
   108     2     1    1
   109    97    96    2
   110    86    84   ar
   111   102   101    1
   112   104   107    1
   113   104   103    1
   114   101   100    1
   115    87    85   ar
   116    78    79    1
   117    84    83   ar
   118   107   108    1
   119    96   103   am
   120    96    95    1
   121    85    83   ar
   122    83    82    1
   123    79    82    1
   124    79    80    1
   125   140   139   ar
   126   100    99    1
   127    99    98    1
   128    95    98    1
   129    95    94    1
   130    80    81    2
   131    80    89   am
   132   139   141   ar
   133   139   138    1
   134    89    90    1
   135   137   138    1
   136   137   134    1
   137    93    90    1
   138    90    91    1
   139   135   134    1
   140   135   136    2
   141   134   133    1
   142    91    92    2
