@<TRIPOS>MOLECULE
tmp/5al5A00.pdb
 160 161 0 0 0
SMALL
GASTEIGER

@<TRIPOS>ATOM
      1  N        -36.2280   -7.2150   17.3610 N.3    80  HIS80      -0.1226
      2  CA       -36.6480   -7.4840   16.0010 C.3    80  HIS80       0.1752
      3  C        -35.4240   -7.7050   15.1440 C.2    80  HIS80       0.2597
      4  O        -34.5310   -6.8770   15.1340 O.2    80  HIS80      -0.2718
      5  CB       -37.4850   -6.3290   15.4430 C.3    80  HIS80       0.0759
      6  CG       -37.9940   -6.5670   14.0460 C.ar   80  HIS80       0.0818
      7  ND1      -39.1720   -7.2280   13.7880 N.ar   80  HIS80      -0.2268
      8  CD2      -37.5070   -6.1850   12.8310 C.ar   80  HIS80       0.1154
      9  CE1      -39.3870   -7.2480   12.4770 C.ar   80  HIS80       0.1986
     10  NE2      -38.3790   -6.6430   11.8760 N.ar   80  HIS80      -0.2212
     11  N        -35.3860   -8.8490   14.4670 N.am   81  GLY81      -0.1942
     12  CA       -34.2900   -9.2100   13.5390 C.3    81  GLY81       0.2014
     13  C        -34.8090   -9.2180   12.1220 C.2    81  GLY81       0.2640
     14  O        -35.8530   -9.7920   11.8590 O.2    81  GLY81      -0.2714
     15  N        -34.0820   -8.5950   11.1970 N.am   82  SER82      -0.1936
     16  CA       -34.5640   -8.4540    9.8400 C.3    82  SER82       0.2040
     17  C        -33.4790   -8.1040    8.8320 C.2    82  SER82       0.2485
     18  O        -32.6340   -7.2670    9.1080 O.2    82  SER82      -0.2729
     19  CB       -35.6140   -7.3400    9.7940 C.3    82  SER82       0.2129
     20  OG       -36.1050   -7.1700    8.4510 O.3    82  SER82      -0.2179
     21  N        -33.5470   -8.6770    7.6260 N.am   83  PRO83      -0.2715
     22  CA       -32.7010   -8.1340    6.5610 C.3    83  PRO83       0.1536
     23  C        -32.9520   -6.6680    6.2410 C.2    83  PRO83       0.2598
     24  O        -32.1170   -6.0770    5.5690 O.2    83  PRO83      -0.2715
     25  CB       -33.1010   -8.9540    5.3150 C.3    83  PRO83       0.0310
     26  CG       -33.8930  -10.1190    5.8380 C.3    83  PRO83       0.0237
     27  CD       -34.5310   -9.6360    7.1080 C.3    83  PRO83       0.0939
     28  N        -34.0770   -6.0960    6.6780 N.am   84  PHE84      -0.1974
     29  CA       -34.4460   -4.7170    6.3150 C.3    84  PHE84       0.1639
     30  C        -34.1820   -3.6680    7.4060 C.2    84  PHE84       0.2290
     31  O        -34.7780   -2.5570    7.4250 O.2    84  PHE84      -0.2864
     32  CB       -35.9180   -4.6630    5.9120 C.3    84  PHE84       0.0560
     33  CG       -36.3460   -5.7960    5.0330 C.ar   84  PHE84      -0.0200
     34  CD1      -35.5900   -6.1630    3.9340 C.ar   84  PHE84      -0.0042
     35  CD2      -37.5240   -6.4880    5.3000 C.ar   84  PHE84      -0.0042
     36  CE1      -35.9940   -7.2200    3.1130 C.ar   84  PHE84      -0.0003
     37  CE2      -37.9400   -7.5310    4.4830 C.ar   84  PHE84      -0.0003
     38  CZ       -37.1720   -7.9070    3.3980 C.ar   84  PHE84      -0.0000
     39  N        -44.9860   -3.2270    4.2520 N.3    96  ARG96      -0.1231
     40  CA       -44.0320   -3.9860    3.4650 C.3    96  ARG96       0.1694
     41  C        -43.2090   -4.9820    4.2830 C.2    96  ARG96       0.2592
     42  O        -42.8250   -6.0080    3.7580 O.2    96  ARG96      -0.2718
     43  CB       -43.0850   -3.0510    2.7100 C.3    96  ARG96       0.0321
     44  CG       -43.7960   -2.0300    1.8350 C.3    96  ARG96       0.0489
     45  CD       -42.8190   -1.2710    0.9580 C.3    96  ARG96       0.2205
     46  NE       -41.7070   -0.6020    1.6610 N.pl3  96  ARG96      -0.0865
     47  CZ       -41.7330    0.6300    2.1790 C.cat  96  ARG96       0.5346
     48  NH1      -42.8350    1.3780    2.1400 N.pl3  96  ARG96       0.1354
     49  NH2      -40.6430    1.1130    2.7650 N.pl3  96  ARG96       0.1354
     50  N        -42.9440   -4.7060    5.5560 N.am   97  HIS97      -0.1962
     51  CA       -42.2140   -5.6720    6.4170 C.3    97  HIS97       0.1787
     52  C        -43.0990   -6.8170    6.9920 C.2    97  HIS97       0.2620
     53  O        -42.6590   -7.5550    7.8870 O.2    97  HIS97      -0.2715
     54  CB       -41.5010   -4.9510    7.5720 C.3    97  HIS97       0.0785
     55  CG       -40.6990   -3.7660    7.1380 C.ar   97  HIS97       0.0821
     56  ND1      -40.8310   -2.5310    7.7260 N.ar   97  HIS97      -0.2267
     57  CD2      -39.7860   -3.6160    6.1500 C.ar   97  HIS97       0.1154
     58  CE1      -40.0280   -1.6710    7.1260 C.ar   97  HIS97       0.1986
     59  NE2      -39.3790   -2.3060    6.1710 N.ar   97  HIS97      -0.2212
     60  N        -44.3170   -6.9660    6.4710 N.am   98  ALA98      -0.1963
     61  CA       -45.2940   -7.8700    7.0550 C.3    98  ALA98       0.1728
     62  C        -44.9680   -9.3120    6.7020 C.2    98  ALA98       0.2616
     63  O        -45.0300   -9.7080    5.5300 O.2    98  ALA98      -0.2715
     64  CB       -46.6970   -7.5170    6.5920 C.3    98  ALA98       0.0334
     65  N        -44.6290  -10.0840    7.7290 N.am   99  TYR99      -0.1960
     66  CA       -44.3690  -11.5030    7.5970 C.3    99  TYR99       0.1771
     67  C        -45.6600  -12.2470    7.2430 C.2    99  TYR99       0.2619
     68  O        -46.4200  -12.6610    8.1350 O.2    99  TYR99      -0.2715
     69  CB       -43.7730  -12.0350    8.9030 C.3    99  TYR99       0.0574
     70  CG       -43.2640  -13.4550    8.8570 C.ar   99  TYR99      -0.0198
     71  CD1      -43.0750  -14.1150    7.6420 C.ar   99  TYR99      -0.0009
     72  CD2      -42.9030  -14.1150   10.0160 C.ar   99  TYR99      -0.0009
     73  CE1      -42.5920  -15.4030    7.5950 C.ar   99  TYR99       0.0417
     74  CE2      -42.3900  -15.4150    9.9760 C.ar   99  TYR99       0.0417
     75  CZ       -42.2490  -16.0360    8.7490 C.ar   99  TYR99       0.1957
     76  OH       -41.7530  -17.2990    8.6320 O.3    99  TYR99      -0.2866
     77  N        -45.8780  -12.4370    5.9420 N.am  100  ILE100     -0.1977
     78  CA       -47.1240  -13.0350    5.4430 C.3   100  ILE100      0.1596
     79  C        -47.2670  -14.4630    5.9830 C.2   100  ILE100      0.2287
     80  O        -48.3390  -14.8610    6.4350 O.2   100  ILE100     -0.2864
     81  CB       -47.2230  -13.0450    3.8860 C.3   100  ILE100      0.0276
     82  CG1      -46.9020  -11.6750    3.2710 C.3   100  ILE100      0.0022
     83  CG2      -48.6150  -13.4700    3.4370 C.3   100  ILE100      0.0022
     84  CD1      -47.7290  -10.5160    3.7960 C.3   100  ILE100      0.0001
     85  N        -43.4840   -8.8500   13.5270 N.3   109  TYR109     -0.1227
     86  CA       -43.2620   -9.7540   14.6470 C.3   109  TYR109      0.1736
     87  C        -42.0850   -9.2930   15.5270 C.2   109  TYR109      0.2595
     88  O        -41.0870   -8.7890   15.0490 O.2   109  TYR109     -0.2718
     89  CB       -42.9330  -11.1360   14.1360 C.3   109  TYR109      0.0548
     90  CG       -44.1240  -11.8570   13.6330 C.ar  109  TYR109     -0.0200
     91  CD1      -44.8070  -11.4190   12.4880 C.ar  109  TYR109     -0.0009
     92  CD2      -44.5760  -12.9970   14.2850 C.ar  109  TYR109     -0.0009
     93  CE1      -45.9100  -12.0970   12.0400 C.ar  109  TYR109      0.0417
     94  CE2      -45.6760  -13.6800   13.8250 C.ar  109  TYR109      0.0417
     95  CZ       -46.3380  -13.2240   12.7200 C.ar  109  TYR109      0.1957
     96  OH       -47.4440  -13.9260   12.3240 O.3   109  TYR109     -0.2866
     97  N        -42.2330   -9.5140   16.8210 N.am  110  PHE110     -0.1962
     98  CA       -41.2040   -9.2080   17.7880 C.3   110  PHE110      0.1771
     99  C        -41.0290  -10.3470   18.7730 C.2   110  PHE110      0.2619
    100  O        -41.9530  -11.1530   18.9680 O.2   110  PHE110     -0.2715
    101  CB       -41.6040   -7.9510   18.5350 C.3   110  PHE110      0.0574
    102  CG       -41.7120   -6.7450   17.6610 C.ar  110  PHE110     -0.0200
    103  CD1      -42.8620   -6.4830   16.9710 C.ar  110  PHE110     -0.0042
    104  CD2      -40.6220   -5.8910   17.5040 C.ar  110  PHE110     -0.0042
    105  CE1      -42.9540   -5.3810   16.1320 C.ar  110  PHE110     -0.0003
    106  CE2      -40.7010   -4.7880   16.6850 C.ar  110  PHE110     -0.0003
    107  CZ       -41.8630   -4.5380   15.9820 C.ar  110  PHE110     -0.0000
    108  N        -39.8570  -10.4210   19.4020 N.am  111  ALA111     -0.1977
    109  CA       -39.5400  -11.5140   20.3050 C.3   111  ALA111      0.1597
    110  C        -38.9690  -11.0170   21.6140 C.2   111  ALA111      0.2287
    111  O        -38.1920  -10.0480   21.6260 O.2   111  ALA111     -0.2864
    112  CB       -38.5610  -12.4760   19.6580 C.3   111  ALA111      0.0319
    113  N        -34.1820  -15.6610   19.3370 N.3   116  LYS116     -0.1231
    114  CA       -35.2830  -15.8470   18.3820 C.3   116  LYS116      0.1693
    115  C        -35.2320  -14.8140   17.2450 C.2   116  LYS116      0.2592
    116  O        -35.2280  -15.1880   16.0790 O.2   116  LYS116     -0.2718
    117  CB       -36.6210  -15.8210   19.1250 C.3   116  LYS116      0.0285
    118  CG       -37.9100  -15.7990   18.3270 C.3   116  LYS116      0.0035
    119  CD       -38.0610  -16.8250   17.2200 C.3   116  LYS116      0.0206
    120  CE       -37.9430  -18.2290   17.6580 C.3   116  LYS116      0.1093
    121  NZ       -38.4940  -19.1050   16.5730 N.3   116  LYS116     -0.1314
    122  N        -35.1820  -13.5260   17.5720 N.am  117  SER117     -0.1952
    123  CA       -34.9910  -12.5050   16.5370 C.3   117  SER117      0.1924
    124  C        -33.7170  -12.7430   15.7090 C.2   117  SER117      0.2314
    125  O        -33.6970  -12.4680   14.4970 O.2   117  SER117     -0.2863
    126  CB       -35.0200  -11.1060   17.1230 C.3   117  SER117      0.2116
    127  OG       -36.3200  -10.7580   17.5720 O.3   117  SER117     -0.2180
    128  N        -33.7200  -14.4160   12.2050 N.3   120  TYR120     -0.1241
    129  CA       -34.3310  -13.7550   11.0850 C.3   120  TYR120      0.1605
    130  C        -33.4630  -12.6560   10.5450 C.2   120  TYR120      0.2264
    131  O        -33.8660  -11.9700    9.5970 O.2   120  TYR120     -0.2867
    132  CB       -35.6840  -13.1580   11.5050 C.3   120  TYR120      0.0534
    133  CG       -36.7170  -14.2200   11.7260 C.ar  120  TYR120     -0.0201
    134  CD1      -36.8410  -14.8480   12.9600 C.ar  120  TYR120     -0.0009
    135  CD2      -37.5330  -14.6330   10.6920 C.ar  120  TYR120     -0.0009
    136  CE1      -37.7630  -15.8470   13.1400 C.ar  120  TYR120      0.0417
    137  CE2      -38.4800  -15.6160   10.8860 C.ar  120  TYR120      0.0417
    138  CZ       -38.5720  -16.2080   12.1140 C.ar  120  TYR120      0.1957
    139  OH       -39.5120  -17.1520   12.3290 O.3   120  TYR120     -0.2866
    140  N        -32.8240  -13.4530    7.1110 N.3   123  GLY123     -0.1210
    141  CA       -34.0560  -13.7660    6.4070 C.3   123  GLY123      0.1956
    142  C        -34.7810  -14.8810    7.1270 C.2   123  GLY123      0.2611
    143  O        -34.3070  -15.3730    8.1510 O.2   123  GLY123     -0.2717
    144  N        -35.9150  -15.2740    6.5740 N.am  124  ILE124     -0.1979
    145  CA       -36.7690  -16.3210    7.1410 C.3   124  ILE124      0.1595
    146  C        -35.9620  -17.6100    7.1940 C.2   124  ILE124      0.2287
    147  O        -35.3270  -17.9730    6.2250 O.2   124  ILE124     -0.2864
    148  CB       -38.0330  -16.5270    6.2740 C.3   124  ILE124      0.0276
    149  CG1      -38.9070  -15.2560    6.2830 C.3   124  ILE124      0.0022
    150  CG2      -38.8480  -17.7420    6.7710 C.3   124  ILE124      0.0022
    151  CD1      -39.9210  -15.2250    5.1590 C.3   124  ILE124      0.0001
    152  N        -43.6440  -14.3390   21.8720 N.3   185  GLU185     -0.1245
    153  CA       -43.4890  -13.5620   20.6530 C.3   185  GLU185      0.1567
    154  C        -44.7880  -12.7630   20.4570 C.2   185  GLU185      0.2260
    155  O        -45.8380  -13.1180   21.0080 O.2   185  GLU185     -0.2867
    156  CB       -43.1660  -14.4940   19.4680 C.3   185  GLU185      0.0388
    157  CG       -42.0140  -15.4400   19.8090 C.3   185  GLU185      0.1160
    158  CD       -41.8420  -16.5950   18.8160 C.2   185  GLU185      0.3649
    159  OE1      -42.5080  -16.6060   17.7480 O.co2 185  GLU185     -0.2457
    160  OE2      -41.0310  -17.4970   19.1190 O.co2 185  GLU185     -0.2457
@<TRIPOS>BOND
     1    45    46    1
     2    45    44    1
     3    46    47    2
     4    44    43    1
     5    48    47    1
     6    47    49    1
     7    43    40    1
     8    36    38   ar
     9    36    34   ar
    10    82    84    1
    11    82    81    1
    12    38    37   ar
    13    83    81    1
    14    40    39    1
    15    40    41    1
    16    42    41    2
    17    81    78    1
    18    34    33   ar
    19    41    50   am
    20    37    35   ar
    21    33    35   ar
    22    33    32    1
    23   151   149    1
    24    25    26    1
    25    25    22    1
    26    78    77    1
    27    78    79    1
    28    63    62    2
    29    50    51    1
    30    24    23    2
    31    26    27    1
    32    32    29    1
    33    77    67   am
    34    79    80    2
    35    57    59   ar
    36    57    55   ar
    37    59    58   ar
    38   147   146    2
    39    23    22    1
    40    23    28   am
    41   148   149    1
    42   148   150    1
    43   148   145    1
    44    29    28    1
    45    29    30    1
    46   141   140    1
    47   141   142    1
    48    51    52    1
    49    51    54    1
    50    60    52   am
    51    60    61    1
    52    22    21    1
    53   144   142   am
    54   144   145    1
    55    64    61    1
    56    62    61    1
    57    62    65   am
    58    52    53    2
    59    27    21    1
    60    58    56   ar
    61   142   143    2
    62    55    54    1
    63    55    56   ar
    64   145   146    1
    65    67    66    1
    66    67    68    2
    67    30    31    2
    68    73    71   ar
    69    73    75   ar
    70    66    65    1
    71    66    69    1
    72    21    17   am
    73    71    70   ar
    74    20    19    1
    75    76    75    1
    76    75    74   ar
    77    17    18    2
    78    17    16    1
    79    70    69    1
    80    70    72   ar
    81   131   130    2
    82    19    16    1
    83    16    15    1
    84    74    72   ar
    85   130   129    1
    86   135   137   ar
    87   135   133   ar
    88   137   138   ar
    89   129   132    1
    90   129   128    1
    91    15    13   am
    92   132   133    1
    93   133   134   ar
    94    14    13    2
    95    10     9   ar
    96    10     8   ar
    97    93    91   ar
    98    93    95   ar
    99   138   139    1
   100   138   136   ar
   101    13    12    1
   102    96    95    1
   103     9     7   ar
   104    91    90   ar
   105    95    94   ar
   106     8     6   ar
   107   134   136   ar
   108    85    86    1
   109    12    11    1
   110    90    89    1
   111    90    92   ar
   112     7     6   ar
   113    94    92   ar
   114     6     5    1
   115    89    86    1
   116    11     3   am
   117   125   124    2
   118    86    87    1
   119    88    87    2
   120     4     3    2
   121     3     2    1
   122     5     2    1
   123    87    97   am
   124   124   123    1
   125   107   105   ar
   126   107   106   ar
   127     2     1    1
   128   116   115    2
   129   105   103   ar
   130   123   126    1
   131   123   122    1
   132   121   120    1
   133   106   104   ar
   134    97    98    1
   135   103   102   ar
   136   126   127    1
   137   119   120    1
   138   119   118    1
   139   115   122   am
   140   115   114    1
   141   104   102   ar
   142   102   101    1
   143   159   158   ar
   144    98   101    1
   145    98    99    1
   146   118   117    1
   147   114   117    1
   148   114   113    1
   149    99   100    2
   150    99   108   am
   151   158   160   ar
   152   158   157    1
   153   108   109    1
   154   156   157    1
   155   156   153    1
   156   112   109    1
   157   109   110    1
   158   154   153    1
   159   154   155    2
   160   153   152    1
   161   110   111    2
