@<TRIPOS>MOLECULE
tmp/5al8A00.pdb
 95 85 0 0 0
SMALL
GASTEIGER

@<TRIPOS>ATOM
      1  N         17.6030   31.4640   31.1950 N.3     4  MET4       -0.1245
      2  CA        18.9230   32.0690   31.0570 C.3     4  MET4        0.1570
      3  C         19.4440   32.4180   32.4320 C.2     4  MET4        0.2261
      4  O         18.6600   32.6940   33.3480 O.2     4  MET4       -0.2867
      5  CB        18.8660   33.3250   30.2100 C.3     4  MET4        0.0387
      6  CG        18.2330   33.1730   28.8540 C.3     4  MET4        0.0595
      7  SD        17.6310   34.7530   28.2020 S.3     4  MET4       -0.1393
      8  CE        18.8120   35.9370   28.8500 C.3     4  MET4        0.0692
      9  N         22.3890   34.9250   34.4050 N.3     6  LYS6       -0.1245
     10  CA        23.3460   36.0250   34.2710 C.3     6  LYS6        0.1561
     11  C         24.0050   36.2550   35.6140 C.2     6  LYS6        0.2260
     12  O         23.2780   36.3450   36.6160 O.2     6  LYS6       -0.2867
     13  CB        22.6760   37.3020   33.8270 C.3     6  LYS6        0.0271
     14  CG        21.8000   37.1710   32.6240 C.3     6  LYS6        0.0035
     15  CD        21.1050   38.4950   32.3090 C.3     6  LYS6        0.0206
     16  CE        20.1060   38.3590   31.1680 C.3     6  LYS6        0.1093
     17  NZ        19.1150   39.4890   31.1730 N.3     6  LYS6       -0.1314
     18  N         27.0440   38.4130   37.9090 N.3     8  LEU8       -0.1245
     19  CA        27.9870   39.5270   38.0900 C.3     8  LEU8        0.1561
     20  C         28.8450   39.3150   39.3230 C.2     8  LEU8        0.2260
     21  O         28.4380   38.6660   40.2980 O.2     8  LEU8       -0.2867
     22  CB        27.2320   40.8530   38.2090 C.3     8  LEU8        0.0270
     23  CG        26.3650   41.2620   37.0120 C.3     8  LEU8        0.0019
     24  CD1       25.7120   42.5910   37.3310 C.3     8  LEU8        0.0001
     25  CD2       27.1990   41.4010   35.7580 C.3     8  LEU8        0.0001
     26  N         30.4280   37.5610   28.8970 N.3    43  SER43      -0.1217
     27  CA        29.4250   38.5370   29.3170 C.3    43  SER43       0.1889
     28  C         28.7170   38.1720   30.6230 C.2    43  SER43       0.2288
     29  O         27.8020   38.8790   31.0710 O.2    43  SER43      -0.2866
     30  CB        28.3730   38.7080   28.2210 C.3    43  SER43       0.2089
     31  OG        27.5290   37.5730   28.1310 O.3    43  SER43      -0.2183
     32  N         26.8630   35.5700   30.9480 N.3    45  GLU45      -0.1245
     33  CA        25.5610   35.0090   30.5850 C.3    45  GLU45       0.1567
     34  C         25.6940   33.5700   30.1620 C.2    45  GLU45       0.2260
     35  O         26.7120   33.1430   29.5880 O.2    45  GLU45      -0.2867
     36  CB        24.9180   35.8240   29.4690 C.3    45  GLU45       0.0388
     37  CG        24.7970   37.2540   29.8820 C.3    45  GLU45       0.1160
     38  CD        23.8320   38.0450   29.0640 C.2    45  GLU45       0.3649
     39  OE1       23.3290   37.5570   28.0390 O.co2  45  GLU45      -0.2457
     40  OE2       23.5770   39.1820   29.4820 O.co2  45  GLU45      -0.2457
     41  N         23.3080   31.0260   28.0420 N.3    47  HIS47      -0.1241
     42  CA        22.1680   30.8130   27.1410 C.3    47  HIS47       0.1621
     43  C         22.1630   29.3530   26.6940 C.2    47  HIS47       0.2264
     44  O         23.1640   28.6340   26.8390 O.2    47  HIS47      -0.2867
     45  CB        22.2610   31.7300   25.8960 C.3    47  HIS47       0.0745
     46  CG        22.3330   33.1930   26.2030 C.ar   47  HIS47       0.0817
     47  ND1       21.2180   34.0040   26.2180 N.ar   47  HIS47      -0.2268
     48  CD2       23.3860   33.9950   26.4890 C.ar   47  HIS47       0.1154
     49  CE1       21.5810   35.2420   26.5080 C.ar   47  HIS47       0.1986
     50  NE2       22.8910   35.2630   26.6770 N.ar   47  HIS47      -0.2212
     51  N         14.8090   34.5810   33.5620 N.3    97  THR97      -0.1218
     52  CA        16.2080   34.9340   33.7590 C.3    97  THR97       0.1862
     53  C         16.5080   34.8780   35.2400 C.2    97  THR97       0.2287
     54  O         15.8020   35.4910   36.0390 O.2    97  THR97      -0.2866
     55  CB        16.5370   36.3130   33.2180 C.3    97  THR97       0.1770
     56  OG1       16.3290   36.3150   31.8070 O.3    97  THR97      -0.2211
     57  CG2       17.9880   36.6780   33.4980 C.3    97  THR97       0.0375
     58  N         19.2380   36.0510   37.7310 N.3    99  ALA99      -0.1231
     59  CA        20.3660   36.9660   37.8240 C.3    99  ALA99       0.1694
     60  C         20.9540   36.8180   39.1890 C.2    99  ALA99       0.2592
     61  O         20.2210   36.7170   40.1670 O.2    99  ALA99      -0.2718
     62  CB        19.9380   38.3700   37.5820 C.3    99  ALA99       0.0304
     63  N         22.2710   36.8190   39.2640 N.am  100  ALA100     -0.1966
     64  CA        22.9590   36.6640   40.5270 C.3   100  ALA100      0.1728
     65  C         24.1130   37.6440   40.6210 C.2   100  ALA100      0.2616
     66  O         24.7970   37.9190   39.6430 O.2   100  ALA100     -0.2715
     67  CB        23.4560   35.3000   40.7010 C.3   100  ALA100      0.0334
     68  N         24.3260   38.1570   41.8310 N.am  101  LEU101     -0.1977
     69  CA        25.4220   39.0690   42.1520 C.3   101  LEU101      0.1596
     70  C         26.2460   38.4320   43.2470 C.2   101  LEU101      0.2287
     71  O         25.7120   38.1150   44.3160 O.2   101  LEU101     -0.2864
     72  CB        24.8750   40.4220   42.5920 C.3   101  LEU101      0.0297
     73  CG        25.9480   41.4170   43.0110 C.3   101  LEU101      0.0022
     74  CD1       26.8270   41.8450   41.8470 C.3   101  LEU101      0.0001
     75  CD2       25.2430   42.5990   43.6370 C.3   101  LEU101      0.0001
     76  N         23.2490   37.4700   46.0000 N.3   108  SER108     -0.1217
     77  CA        21.8580   37.7420   45.7850 C.3   108  SER108      0.1889
     78  C         21.4560   37.1450   44.4720 C.2   108  SER108      0.2288
     79  O         22.2560   37.0590   43.5410 O.2   108  SER108     -0.2866
     80  CB        21.6100   39.2370   45.8010 C.3   108  SER108      0.2089
     81  OG        22.2270   39.8370   44.6910 O.3   108  SER108     -0.2183
     82  N         17.9540   37.1520   41.7740 N.3   110  THR110     -0.1218
     83  CA        16.6650   37.7170   41.4050 C.3   110  THR110      0.1862
     84  C         16.1680   37.1020   40.1280 C.2   110  THR110      0.2287
     85  O         16.9760   36.7820   39.2700 O.2   110  THR110     -0.2866
     86  CB        16.7580   39.2050   41.1790 C.3   110  THR110      0.1770
     87  OG1       17.6090   39.7880   42.1680 O.3   110  THR110     -0.2211
     88  CG2       15.4120   39.8040   41.2450 C.3   110  THR110      0.0375
     89  N         13.7200   37.3710   36.6720 N.3   112  VAL112     -0.1245
     90  CA        12.9260   38.1640   35.7460 C.3   112  VAL112      0.1561
     91  C         12.1160   37.1650   34.9590 C.2   112  VAL112      0.2260
     92  O         12.6680   36.3030   34.2920 O.2   112  VAL112     -0.2867
     93  CB        13.7880   38.9950   34.8150 C.3   112  VAL112      0.0252
     94  CG1       12.9080   39.8140   33.8650 C.3   112  VAL112      0.0019
     95  CG2       14.7230   39.8810   35.6420 C.3   112  VAL112      0.0019
@<TRIPOS>BOND
     1    45    46    1
     2    45    42    1
     3    46    47   ar
     4    46    48   ar
     5    47    49   ar
     6    48    50   ar
     7    49    50   ar
     8    43    44    2
     9    43    42    1
    10    42    41    1
    11    39    38   ar
    12    31    30    1
    13     7     8    1
    14     7     6    1
    15    30    27    1
    16     6     5    1
    17    26    27    1
    18    38    40   ar
    19    38    37    1
    20    27    28    1
    21    36    37    1
    22    36    33    1
    23    35    34    2
    24    34    33    1
    25     5     2    1
    26    33    32    1
    27    28    29    2
    28     2     1    1
    29     2     3    1
    30    16    17    1
    31    16    15    1
    32    56    55    1
    33    15    14    1
    34     3     4    2
    35    14    13    1
    36    55    57    1
    37    55    52    1
    38    51    52    1
    39    52    53    1
    40    13    10    1
    41    94    93    1
    42    10     9    1
    43    10    11    1
    44    92    91    2
    45    93    95    1
    46    93    90    1
    47    91    90    1
    48    53    54    2
    49    11    12    2
    50    90    89    1
    51    25    23    1
    52    23    24    1
    53    23    22    1
    54    62    59    1
    55    58    59    1
    56    59    60    1
    57    18    19    1
    58    19    22    1
    59    19    20    1
    60    60    63   am
    61    60    61    2
    62    63    64    1
    63    85    84    2
    64    20    21    2
    65    66    65    2
    66    84    83    1
    67    64    65    1
    68    64    67    1
    69    65    68   am
    70    86    88    1
    71    86    83    1
    72    86    87    1
    73    83    82    1
    74    68    69    1
    75    74    73    1
    76    69    72    1
    77    69    70    1
    78    72    73    1
    79    73    75    1
    80    70    71    2
    81    79    78    2
    82    78    77    1
    83    81    80    1
    84    77    80    1
    85    77    76    1
