@<TRIPOS>MOLECULE
tmp/5albA00.pdb
 143 140 0 0 0
SMALL
GASTEIGER

@<TRIPOS>ATOM
      1  N          5.0760   11.2430   -3.2000 N.3    32  SER32      -0.1217
      2  CA         4.7080   10.9400   -1.8190 C.3    32  SER32       0.1889
      3  C          4.9730   12.1700   -0.9220 C.2    32  SER32       0.2288
      4  O          5.7690   13.0440   -1.2810 O.2    32  SER32      -0.2866
      5  CB         5.4930    9.7300   -1.3190 C.3    32  SER32       0.2089
      6  OG         6.8890    9.9560   -1.4170 O.3    32  SER32      -0.2183
      7  N          5.7500   13.0380    3.2320 N.3    34  HIS34      -0.1241
      8  CA         6.0950   12.3970    4.5210 C.3    34  HIS34       0.1621
      9  C          6.1980   13.3680    5.6750 C.2    34  HIS34       0.2264
     10  O          6.6170   14.4980    5.4970 O.2    34  HIS34      -0.2867
     11  CB         7.3900   11.5790    4.4200 C.3    34  HIS34       0.0745
     12  CG         7.2920   10.3940    3.5040 C.ar   34  HIS34       0.0817
     13  ND1        7.1930   10.5460    2.1300 N.ar   34  HIS34      -0.2268
     14  CD2        7.2840    9.0760    3.7960 C.ar   34  HIS34       0.1154
     15  CE1        7.1240    9.3190    1.6440 C.ar   34  HIS34       0.1986
     16  NE2        7.1540    8.4080    2.6090 N.ar   34  HIS34      -0.2212
     17  N          8.0560   13.9000    9.2360 N.3    36  VAL36      -0.1245
     18  CA         9.2640   13.5260    9.9820 C.3    36  VAL36       0.1561
     19  C          9.4340   14.5300   11.1260 C.2    36  VAL36       0.2260
     20  O          9.4090   15.7410   10.9140 O.2    36  VAL36      -0.2867
     21  CB        10.5380   13.4560    9.0730 C.3    36  VAL36       0.0252
     22  CG1       11.8140   13.1970    9.8900 C.3    36  VAL36       0.0019
     23  CG2       10.3880   12.3950    7.9870 C.3    36  VAL36       0.0019
     24  N         10.6100    9.2560   11.4240 N.3    46  TRP46      -0.1241
     25  CA         9.5270    9.1200   10.4550 C.3    46  TRP46       0.1605
     26  C          8.2120    8.8780   11.1680 C.2    46  TRP46       0.2264
     27  O          8.1160    7.9870   12.0240 O.2    46  TRP46      -0.2867
     28  CB         9.7990    7.9390    9.5060 C.3    46  TRP46       0.0550
     29  CG         8.7740    7.8380    8.4060 C.ar   46  TRP46       0.0003
     30  CD1        8.7130    8.5990    7.2780 C.ar   46  TRP46       0.0946
     31  CD2        7.6460    6.9430    8.3470 C.ar   46  TRP46       0.0152
     32  NE1        7.6290    8.2320    6.5190 N.ar   46  TRP46      -0.2442
     33  CE2        6.9530    7.2230    7.1500 C.ar   46  TRP46       0.0810
     34  CE3        7.1520    5.9330    9.1920 C.ar   46  TRP46       0.0012
     35  CZ2        5.8040    6.5080    6.7590 C.ar   46  TRP46       0.0191
     36  CZ3        5.9930    5.2500    8.8230 C.ar   46  TRP46       0.0001
     37  CH2        5.3400    5.5290    7.6190 C.ar   46  TRP46       0.0015
     38  N          3.4130    8.6690    5.9780 N.3    49  GLY49      -0.1210
     39  CA         3.4650    9.0870    4.5840 C.3    49  GLY49       0.1956
     40  C          2.1580    8.8510    3.8660 C.2    49  GLY49       0.2612
     41  O          1.3620    8.0280    4.2990 O.2    49  GLY49      -0.2717
     42  N          1.9290    9.6010    2.7840 N.am   50  ILE50      -0.1965
     43  CA         0.7500    9.5700    1.9190 C.3    50  ILE50       0.1727
     44  C          1.1490    9.8070    0.4540 C.2    50  ILE50       0.2616
     45  O          2.0530   10.5780    0.1950 O.2    50  ILE50      -0.2715
     46  CB        -0.3310   10.6280    2.3550 C.3    50  ILE50       0.0290
     47  CG1       -1.6410   10.5260    1.5000 C.3    50  ILE50       0.0022
     48  CG2        0.2270   12.0770    2.3670 C.3    50  ILE50       0.0023
     49  CD1       -2.8520   11.0430    2.1340 C.3    50  ILE50       0.0001
     50  N          0.4300    9.1710   -0.4910 N.am   51  ILE51      -0.1977
     51  CA         0.5430    9.4880   -1.8920 C.3    51  ILE51       0.1596
     52  C         -0.7690   10.2130   -2.1600 C.2    51  ILE51       0.2287
     53  O         -1.7980    9.5530   -2.3430 O.2    51  ILE51      -0.2864
     54  CB         0.8440    8.3130   -2.8590 C.3    51  ILE51       0.0276
     55  CG1        2.2180    7.6910   -2.5340 C.3    51  ILE51       0.0022
     56  CG2        0.7930    8.8100   -4.3040 C.3    51  ILE51       0.0022
     57  CD1        2.4130    6.2190   -2.9210 C.3    51  ILE51       0.0001
     58  N         -3.3300    9.1040   -4.6980 N.3    54  PHE54      -0.1241
     59  CA        -4.1010    7.8940   -4.4080 C.3    54  PHE54       0.1605
     60  C         -4.9360    7.9540   -3.1490 C.2    54  PHE54       0.2264
     61  O         -5.8400    7.1330   -3.0110 O.2    54  PHE54      -0.2867
     62  CB        -3.2080    6.6430   -4.3610 C.3    54  PHE54       0.0534
     63  CG        -2.1970    6.4630   -5.4650 C.ar   54  PHE54      -0.0203
     64  CD1       -2.4910    6.8450   -6.7780 C.ar   54  PHE54      -0.0042
     65  CD2       -0.9750    5.8430   -5.2150 C.ar   54  PHE54      -0.0042
     66  CE1       -1.5320    6.7000   -7.8020 C.ar   54  PHE54      -0.0003
     67  CE2       -0.0410    5.6500   -6.2510 C.ar   54  PHE54      -0.0003
     68  CZ        -0.3200    6.0990   -7.5300 C.ar   54  PHE54      -0.0000
     69  N         -3.7180    6.9750   -0.4610 N.3    56  THR56      -0.1203
     70  CA        -3.1230    5.8580    0.2690 C.3    56  THR56       0.1994
     71  C         -2.0530    6.3280    1.2720 C.2    56  THR56       0.2618
     72  O         -1.0670    6.9480    0.8740 O.2    56  THR56      -0.2717
     73  CB        -2.6220    4.8040   -0.7010 C.3    56  THR56       0.1784
     74  OG1       -1.6770    5.4380   -1.5690 O.3    56  THR56      -0.2211
     75  CG2       -3.7600    4.1650   -1.4760 C.3    56  THR56       0.0376
     76  N         -2.2750    6.0140    2.5800 N.am   57  LEU57      -0.1965
     77  CA        -1.4500    6.4630    3.6920 C.3    57  LEU57       0.1728
     78  C         -0.8820    5.3480    4.5570 C.2    57  LEU57       0.2616
     79  O         -1.3830    4.2330    4.5780 O.2    57  LEU57      -0.2715
     80  CB        -2.2310    7.4850    4.5760 C.3    57  LEU57       0.0311
     81  CG        -3.4960    6.9420    5.3150 C.3    57  LEU57       0.0022
     82  CD1       -3.2190    6.6550    6.7670 C.3    57  LEU57       0.0001
     83  CD2       -4.6600    7.8810    5.1990 C.3    57  LEU57       0.0001
     84  N          0.1180    5.7000    5.3450 N.am   58  SER58      -0.1950
     85  CA         0.7370    4.8160    6.3120 C.3    58  SER58       0.1924
     86  C          1.3280    5.6360    7.4380 C.2    58  SER58       0.2314
     87  O          1.7130    6.7790    7.2350 O.2    58  SER58      -0.2863
     88  CB         1.8250    3.9800    5.6560 C.3    58  SER58       0.2116
     89  OG         2.2470    3.0000    6.5870 O.3    58  SER58      -0.2180
     90  N          4.6820    8.3100   -8.8180 N.3   102  TYR102     -0.1241
     91  CA         3.9240    7.0700   -8.6100 C.3   102  TYR102      0.1605
     92  C          2.9450    6.7070   -9.7290 C.2   102  TYR102      0.2264
     93  O          2.4410    5.5890   -9.7170 O.2   102  TYR102     -0.2867
     94  CB         3.2390    7.0390   -7.2270 C.3   102  TYR102      0.0534
     95  CG         4.2640    6.7520   -6.1510 C.ar  102  TYR102     -0.0201
     96  CD1        4.6240    5.4470   -5.8390 C.ar  102  TYR102     -0.0009
     97  CD2        4.9280    7.7870   -5.4980 C.ar  102  TYR102     -0.0009
     98  CE1        5.6020    5.1770   -4.8900 C.ar  102  TYR102      0.0417
     99  CE2        5.9170    7.5270   -4.5550 C.ar  102  TYR102      0.0417
    100  CZ         6.2480    6.2200   -4.2540 C.ar  102  TYR102      0.1957
    101  OH         7.2530    5.9390   -3.3660 O.3   102  TYR102     -0.2866
    102  N          4.6840    3.7820  -11.2050 N.3   105  TRP105     -0.1241
    103  CA         4.9220    2.7260  -10.2330 C.3   105  TRP105      0.1605
    104  C          4.2980    1.4040  -10.6450 C.2   105  TRP105      0.2264
    105  O          3.1550    1.3680  -11.0890 O.2   105  TRP105     -0.2867
    106  CB         4.3880    3.1620   -8.8540 C.3   105  TRP105      0.0550
    107  CG         4.4440    2.1190   -7.7780 C.ar  105  TRP105      0.0003
    108  CD1        5.5200    1.3580   -7.4150 C.ar  105  TRP105      0.0946
    109  CD2        3.3690    1.7290   -6.9230 C.ar  105  TRP105      0.0152
    110  NE1        5.1740    0.5110   -6.3910 N.ar  105  TRP105     -0.2442
    111  CE2        3.8570    0.7130   -6.0720 C.ar  105  TRP105      0.0810
    112  CE3        2.0250    2.1390   -6.7950 C.ar  105  TRP105      0.0012
    113  CZ2        3.0620    0.1260   -5.0740 C.ar  105  TRP105      0.0191
    114  CZ3        1.2210    1.5100   -5.8520 C.ar  105  TRP105      0.0001
    115  CH2        1.7360    0.5090   -5.0150 C.ar  105  TRP105      0.0015
    116  N         10.1750    1.3050   -5.7400 N.3   111  PRO111     -0.2116
    117  CA        10.8150    2.4820   -6.3380 C.3   111  PRO111      0.1372
    118  C         11.9690    3.0130   -5.4870 C.2   111  PRO111      0.2244
    119  O         12.0190    2.7740   -4.2730 O.2   111  PRO111     -0.2868
    120  CB         9.6690    3.4960   -6.4480 C.3   111  PRO111      0.0268
    121  CG         8.6420    3.0680   -5.4470 C.3   111  PRO111      0.0207
    122  CD         8.9910    1.6860   -4.9400 C.3   111  PRO111      0.0892
    123  N         12.4650    5.8760   -4.3510 N.3   113  ASP113     -0.1225
    124  CA        11.9470    7.1000   -3.7560 C.3   113  ASP113      0.1805
    125  C         12.7680    7.5070   -2.5170 C.2   113  ASP113      0.2598
    126  O         13.2490    6.6540   -1.7660 O.2   113  ASP113     -0.2718
    127  CB        10.4810    6.9070   -3.3960 C.3   113  ASP113      0.1424
    128  CG         9.6810    8.1760   -3.2960 C.2   113  ASP113      0.3668
    129  OD1       10.1410    9.2050   -3.8120 O.co2 113  ASP113     -0.2456
    130  OD2        8.5620    8.1230   -2.7650 O.co2 113  ASP113     -0.2456
    131  N         12.9820    8.8250   -2.3470 N.am  114  ALA114     -0.1966
    132  CA        13.7560    9.3720   -1.2300 C.3   114  ALA114      0.1728
    133  C         13.2300   10.7670   -0.9480 C.2   114  ALA114      0.2616
    134  O         12.5320   11.3330   -1.7860 O.2   114  ALA114     -0.2715
    135  CB        15.2400    9.4080   -1.5860 C.3   114  ALA114      0.0334
    136  N         13.5200   11.3080    0.2400 N.am  115  LEU115     -0.1977
    137  CA        13.0260   12.6230    0.6310 C.3   115  LEU115      0.1596
    138  C         13.8370   13.7550   -0.0290 C.2   115  LEU115      0.2287
    139  O         14.8420   14.2330    0.5030 O.2   115  LEU115     -0.2864
    140  CB        12.9110   12.7480    2.1530 C.3   115  LEU115      0.0297
    141  CG        11.9410   11.7470    2.7650 C.3   115  LEU115      0.0022
    142  CD1       11.8780   11.9170    4.2130 C.3   115  LEU115      0.0001
    143  CD2       10.5570   11.8300    2.1200 C.3   115  LEU115      0.0001
@<TRIPOS>BOND
     1   102   103    1
     2   105   104    2
     3   104   103    1
     4   103   106    1
     5    92    93    2
     6    92    91    1
     7   106   107    1
     8    90    91    1
     9    91    94    1
    10    66    68   ar
    11    66    64   ar
    12   107   108   ar
    13   107   109   ar
    14    68    67   ar
    15   108   110   ar
    16    94    95    1
    17   109   112   ar
    18   109   111   ar
    19   112   114   ar
    20    64    63   ar
    21   120   117    1
    22   120   121    1
    23   110   111   ar
    24   117   116    1
    25   117   118    1
    26    67    65   ar
    27    95    96   ar
    28    95    97   ar
    29   111   113   ar
    30   114   115   ar
    31    96    98   ar
    32   116   122    1
    33    97    99   ar
    34   118   119    2
    35    63    65   ar
    36    63    62    1
    37   121   122    1
    38   113   115   ar
    39    98   100   ar
    40    58    59    1
    41    99   100   ar
    42    59    62    1
    43    59    60    1
    44   123   124    1
    45    56    54    1
    46   100   101    1
    47   129   128   ar
    48   124   127    1
    49   124   125    1
    50   127   128    1
    51   128   130   ar
    52     1     2    1
    53    60    61    2
    54    57    55    1
    55    54    55    1
    56    54    51    1
    57   125   131   am
    58   125   126    2
    59   131   132    1
    60    53    52    2
    61    52    51    1
    62    51    50    1
    63     2     5    1
    64     2     3    1
    65   134   133    2
    66   135   132    1
    67    74    73    1
    68    75    73    1
    69     6     5    1
    70     4     3    2
    71   132   133    1
    72   133   136   am
    73    73    70    1
    74    50    44   am
    75    69    70    1
    76   138   139    2
    77   138   137    1
    78    45    44    2
    79   136   137    1
    80    70    71    1
    81    44    43    1
    82   137   140    1
    83    72    71    2
    84    71    76   am
    85    47    49    1
    86    47    46    1
    87    15    13   ar
    88    15    16   ar
    89    43    46    1
    90    43    42    1
    91   143   141    1
    92    13    12   ar
    93   140   141    1
    94    46    48    1
    95    76    77    1
    96    16    14   ar
    97   141   142    1
    98    42    40   am
    99     7     8    1
   100    12    14   ar
   101    12    11    1
   102    77    78    1
   103    77    80    1
   104    40    41    2
   105    40    39    1
   106    11     8    1
   107     8     9    1
   108    78    79    2
   109    78    84   am
   110    80    81    1
   111    39    38    1
   112    83    81    1
   113    81    82    1
   114    84    85    1
   115    10     9    2
   116    88    85    1
   117    88    89    1
   118    85    86    1
   119    32    33   ar
   120    32    30   ar
   121    35    33   ar
   122    35    37   ar
   123    33    31   ar
   124    87    86    2
   125    30    29   ar
   126    37    36   ar
   127    23    21    1
   128    31    29   ar
   129    31    34   ar
   130    29    28    1
   131    36    34   ar
   132    21    22    1
   133    21    18    1
   134    17    18    1
   135    28    25    1
   136    18    19    1
   137    25    26    1
   138    25    24    1
   139    20    19    2
   140    26    27    2
