@<TRIPOS>MOLECULE
tmp/5alcA00.pdb
 121 116 0 0 0
SMALL
GASTEIGER

@<TRIPOS>ATOM
      1  N          0.0450   -8.5250  -70.4960 N.3    32  SER32      -0.1217
      2  CA         0.9440   -8.9840  -69.4450 C.3    32  SER32       0.1889
      3  C          0.3550   -8.7390  -68.0500 C.2    32  SER32       0.2288
      4  O         -0.5380   -7.9180  -67.8770 O.2    32  SER32      -0.2866
      5  CB         2.3040   -8.3020  -69.5830 C.3    32  SER32       0.2089
      6  OG         2.2220   -6.9300  -69.2430 O.3    32  SER32      -0.2183
      7  N          1.8710   -8.1950  -64.0420 N.3    34  HIS34      -0.1241
      8  CA         3.0620   -7.8930  -63.2590 C.3    34  HIS34       0.1621
      9  C          2.7560   -7.7970  -61.7840 C.2    34  HIS34       0.2264
     10  O          1.6340   -7.4440  -61.3780 O.2    34  HIS34      -0.2867
     11  CB         3.6870   -6.5920  -63.7520 C.3    34  HIS34       0.0745
     12  CG         4.2790   -6.7170  -65.1230 C.ar   34  HIS34       0.0817
     13  ND1        3.4900   -6.6370  -66.2740 N.ar   34  HIS34      -0.2268
     14  CD2        5.5550   -6.9500  -65.4900 C.ar   34  HIS34       0.1154
     15  CE1        4.3200   -6.8170  -67.2860 C.ar   34  HIS34       0.1986
     16  NE2        5.5660   -7.0170  -66.8660 N.ar   34  HIS34      -0.2212
     17  N          4.1340   -6.0570  -58.3140 N.3    36  VAL36      -0.1245
     18  CA         4.8220   -4.8940  -57.7830 C.3    36  VAL36       0.1561
     19  C          4.5830   -4.8040  -56.2760 C.2    36  VAL36       0.2260
     20  O          3.4310   -4.8180  -55.8440 O.2    36  VAL36      -0.2867
     21  CB         4.3400   -3.5940  -58.5040 C.3    36  VAL36       0.0252
     22  CG1        4.9690   -2.3540  -57.8840 C.3    36  VAL36       0.0019
     23  CG2        4.6160   -3.6550  -60.0090 C.3    36  VAL36       0.0019
     24  N          9.3860   -3.7000  -58.5620 N.3    46  TRP46      -0.1241
     25  CA         8.9280   -4.7260  -59.4820 C.3    46  TRP46       0.1605
     26  C          9.5050   -6.0870  -59.0950 C.2    46  TRP46       0.2264
     27  O         10.7020   -6.2040  -58.7990 O.2    46  TRP46      -0.2867
     28  CB         9.2960   -4.3260  -60.9200 C.3    46  TRP46       0.0550
     29  CG         8.8110   -5.2880  -61.9500 C.ar   46  TRP46       0.0003
     30  CD1        7.5880   -5.3020  -62.5510 C.ar   46  TRP46       0.0946
     31  CD2        9.5460   -6.3770  -62.5060 C.ar   46  TRP46       0.0152
     32  NE1        7.5310   -6.3120  -63.4770 N.ar   46  TRP46      -0.2442
     33  CE2        8.7160   -6.9970  -63.4650 C.ar   46  TRP46       0.0810
     34  CE3       10.8400   -6.8860  -62.2960 C.ar   46  TRP46       0.0012
     35  CZ2        9.1400   -8.0930  -64.2270 C.ar   46  TRP46       0.0191
     36  CZ3       11.2560   -7.9760  -63.0420 C.ar   46  TRP46       0.0001
     37  CH2       10.4140   -8.5670  -63.9990 C.ar   46  TRP46       0.0015
     38  N          6.8280  -10.6640  -63.7890 N.3    49  GLY49      -0.1225
     39  CA         5.7830  -10.5360  -64.7910 C.3    49  GLY49       0.1811
     40  C          5.6520  -11.7420  -65.6800 C.2    49  GLY49       0.2280
     41  O          6.6170  -12.4750  -65.8900 O.2    49  GLY49      -0.2866
     42  N          3.1900  -13.0740  -69.4320 N.3    51  ILE51      -0.1245
     43  CA         2.2370  -12.8530  -70.5140 C.3    51  ILE51       0.1561
     44  C          1.4970  -14.2050  -70.5630 C.2    51  ILE51       0.2260
     45  O          2.0220  -15.1590  -71.1610 O.2    51  ILE51      -0.2867
     46  CB         2.8690  -12.4590  -71.8840 C.3    51  ILE51       0.0252
     47  CG1        3.7650  -11.2000  -71.7590 C.3    51  ILE51       0.0019
     48  CG2        1.7410  -12.2300  -72.9100 C.3    51  ILE51       0.0019
     49  CD1        4.8810  -11.0810  -72.8950 C.3    51  ILE51       0.0001
     50  N          1.0820  -16.5160  -73.6630 N.3    54  PHE54      -0.1241
     51  CA         2.2810  -17.1640  -74.1790 C.3    54  PHE54       0.1605
     52  C          3.0660  -17.9870  -73.1460 C.2    54  PHE54       0.2264
     53  O          3.9080  -18.7810  -73.5460 O.2    54  PHE54      -0.2867
     54  CB         3.1940  -16.1360  -74.8610 C.3    54  PHE54       0.0534
     55  CG         2.5170  -15.3840  -75.9810 C.ar   54  PHE54      -0.0203
     56  CD1        2.4500  -15.9230  -77.2620 C.ar   54  PHE54      -0.0042
     57  CD2        1.9360  -14.1440  -75.7550 C.ar   54  PHE54      -0.0042
     58  CE1        1.8240  -15.2270  -78.2960 C.ar   54  PHE54      -0.0003
     59  CE2        1.3100  -13.4470  -76.7910 C.ar   54  PHE54      -0.0003
     60  CZ         1.2560  -13.9930  -78.0530 C.ar   54  PHE54      -0.0000
     61  N          5.2390  -16.8200  -71.1920 N.3    56  THR56      -0.1203
     62  CA         6.5610  -16.1790  -71.0590 C.3    56  THR56       0.1994
     63  C          6.6170  -15.3550  -69.7980 C.2    56  THR56       0.2618
     64  O          5.7360  -14.5180  -69.5740 O.2    56  THR56      -0.2717
     65  CB         6.8880  -15.3530  -72.3110 C.3    56  THR56       0.1784
     66  OG1        5.8200  -14.4330  -72.4920 O.3    56  THR56      -0.2211
     67  CG2        7.0180  -16.2210  -73.5700 C.3    56  THR56       0.0376
     68  N          7.6320  -15.6170  -68.9490 N.am   57  LEU57      -0.1965
     69  CA         7.7420  -14.9340  -67.6620 C.3    57  LEU57       0.1728
     70  C          9.1460  -14.4670  -67.2910 C.2    57  LEU57       0.2616
     71  O         10.1320  -14.9850  -67.8020 O.2    57  LEU57      -0.2715
     72  CB         7.1560  -15.8250  -66.5390 C.3    57  LEU57       0.0311
     73  CG         7.9280  -17.0650  -66.1090 C.3    57  LEU57       0.0022
     74  CD1        8.9340  -16.7440  -64.9910 C.3    57  LEU57       0.0001
     75  CD2        6.9920  -18.1130  -65.5820 C.3    57  LEU57       0.0001
     76  N          9.2310  -13.5270  -66.3570 N.am   58  SER58      -0.1950
     77  CA        10.5100  -13.0210  -65.8590 C.3    58  SER58       0.1924
     78  C         10.3450  -12.5630  -64.4340 C.2    58  SER58       0.2314
     79  O          9.2740  -12.1020  -64.0580 O.2    58  SER58      -0.2863
     80  CB        11.0100  -11.8520  -66.7140 C.3    58  SER58       0.2116
     81  OG        12.3930  -11.6190  -66.4800 O.3    58  SER58      -0.2180
     82  N          0.3150   -8.2170  -76.8820 N.3   102  TYR102     -0.1241
     83  CA         1.4650   -8.9000  -77.4710 C.3   102  TYR102      0.1605
     84  C          1.0840   -9.7760  -78.6620 C.2   102  TYR102      0.2264
     85  O         -0.0230  -10.3050  -78.7010 O.2   102  TYR102     -0.2867
     86  CB         2.2120   -9.7130  -76.4010 C.3   102  TYR102      0.0534
     87  CG         3.0060   -8.8410  -75.4540 C.ar  102  TYR102     -0.0201
     88  CD1        2.4190   -8.3030  -74.3170 C.ar  102  TYR102     -0.0009
     89  CD2        4.3470   -8.5550  -75.6950 C.ar  102  TYR102     -0.0009
     90  CE1        3.1320   -7.4720  -73.4620 C.ar  102  TYR102      0.0417
     91  CE2        5.0730   -7.7260  -74.8440 C.ar  102  TYR102      0.0417
     92  CZ         4.4600   -7.1880  -73.7280 C.ar  102  TYR102      0.1957
     93  OH         5.1620   -6.3840  -72.8730 O.3   102  TYR102     -0.2866
     94  N          7.6900   -2.5160  -78.0850 N.3   103  PRO103     -0.2116
     95  CA         7.1890   -3.1240  -76.8430 C.3   103  PRO103      0.1372
     96  C          7.0030   -2.0410  -75.7710 C.2   103  PRO103      0.2244
     97  O          7.6520   -2.0430  -74.7230 O.2   103  PRO103     -0.2868
     98  CB         8.2710   -4.1590  -76.5100 C.3   103  PRO103      0.0268
     99  CG         9.5280   -3.6170  -77.1420 C.3   103  PRO103      0.0207
    100  CD         9.1650   -2.5540  -78.1490 C.3   103  PRO103      0.0892
    101  N          4.7990   -1.4370  -73.5320 N.3   105  ASP105     -0.1225
    102  CA         3.9170   -1.8840  -72.4470 C.3   105  ASP105      0.1805
    103  C          4.0690   -1.0670  -71.1600 C.2   105  ASP105      0.2598
    104  O          5.1610   -0.5740  -70.8650 O.2   105  ASP105     -0.2718
    105  CB         4.2150   -3.3600  -72.1610 C.3   105  ASP105      0.1424
    106  CG         3.1470   -4.1560  -71.4310 C.2   105  ASP105      0.3668
    107  OD1        2.0050   -3.6680  -71.3240 O.co2 105  ASP105     -0.2456
    108  OD2        3.4480   -5.2950  -71.0050 O.co2 105  ASP105     -0.2456
    109  N          2.9640   -0.9040  -70.4150 N.am  106  ALA106     -0.1966
    110  CA         2.9230   -0.1990  -69.1210 C.3   106  ALA106      0.1728
    111  C          1.9010   -0.8840  -68.2070 C.2   106  ALA106      0.2616
    112  O          1.0800   -1.6550  -68.6870 O.2   106  ALA106     -0.2715
    113  CB         2.5440    1.2580  -69.3010 C.3   106  ALA106      0.0334
    114  N          1.9260   -0.5600  -66.9050 N.am  107  LEU107     -0.1977
    115  CA         1.0110   -1.1670  -65.9270 C.3   107  LEU107      0.1596
    116  C         -0.2720   -0.3360  -65.8870 C.2   107  LEU107      0.2287
    117  O         -0.3220    0.7110  -65.2500 O.2   107  LEU107     -0.2864
    118  CB         1.7130   -1.2810  -64.5580 C.3   107  LEU107      0.0297
    119  CG         3.0930   -1.9400  -64.6100 C.3   107  LEU107      0.0022
    120  CD1        3.7260   -1.9800  -63.2350 C.3   107  LEU107      0.0001
    121  CD2        3.0040   -3.3280  -65.2040 C.3   107  LEU107      0.0001
@<TRIPOS>BOND
     1    85    84    2
     2    84    83    1
     3    58    60   ar
     4    58    56   ar
     5   100    94    1
     6   100    99    1
     7    94    95    1
     8    60    59   ar
     9    83    82    1
    10    83    86    1
    11    56    55   ar
    12    99    98    1
    13    95    98    1
    14    95    96    1
    15    59    57   ar
    16    86    87    1
    17    55    57   ar
    18    55    54    1
    19    96    97    2
    20    89    87   ar
    21    89    91   ar
    22    87    88   ar
    23    54    51    1
    24    91    92   ar
    25    88    90   ar
    26    51    50    1
    27    51    52    1
    28    92    90   ar
    29    92    93    1
    30    67    65    1
    31    53    52    2
    32   101   102    1
    33    48    46    1
    34    49    47    1
    35    66    65    1
    36   102   105    1
    37   102   103    1
    38    65    62    1
    39   105   106    1
    40    46    47    1
    41    46    43    1
    42   106   107   ar
    43   106   108   ar
    44    61    62    1
    45    45    44    2
    46   103   104    2
    47   103   109   am
    48    62    63    1
    49    44    43    1
    50    43    42    1
    51     1     2    1
    52   109   110    1
    53    63    64    2
    54    63    68   am
    55     5     2    1
    56     5     6    1
    57     2     3    1
    58   113   110    1
    59   110   111    1
    60    68    69    1
    61   112   111    2
    62   111   114   am
    63     3     4    2
    64    71    70    2
    65    69    70    1
    66    69    72    1
    67    70    76   am
    68    15    16   ar
    69    15    13   ar
    70   114   115    1
    71    16    14   ar
    72    80    81    1
    73    80    77    1
    74    72    73    1
    75    76    77    1
    76    13    12   ar
    77    73    75    1
    78    73    74    1
    79   115   116    1
    80   115   118    1
    81    41    40    2
    82   116   117    2
    83    77    78    1
    84    40    39    1
    85    14    12   ar
    86   121   119    1
    87    12    11    1
    88    39    38    1
    89   119   118    1
    90   119   120    1
    91    78    79    2
    92    35    37   ar
    93    35    33   ar
    94     7     8    1
    95    37    36   ar
    96    11     8    1
    97    32    33   ar
    98    32    30   ar
    99    33    31   ar
   100     8     9    1
   101    36    34   ar
   102    30    29   ar
   103    31    34   ar
   104    31    29   ar
   105    29    28    1
   106     9    10    2
   107    28    25    1
   108    23    21    1
   109    25    26    1
   110    25    24    1
   111    26    27    2
   112    21    22    1
   113    21    18    1
   114    17    18    1
   115    18    19    1
   116    19    20    2
