@<TRIPOS>MOLECULE
tmp/5alcB00.pdb
 100 98 0 0 0
SMALL
GASTEIGER

@<TRIPOS>ATOM
      1  N         14.3260    2.4000  -73.9830 N.3    30  ASN30      -0.1225
      2  CA        12.9600    1.9200  -73.8030 C.3    30  ASN30       0.1785
      3  C         11.9650    3.0870  -73.7680 C.2    30  ASN30       0.2597
      4  O         12.1980    4.1150  -74.4170 O.2    30  ASN30      -0.2718
      5  CB        12.8430    0.9600  -72.5840 C.3    30  ASN30       0.1169
      6  CG        11.6770    0.0020  -72.6480 C.2    30  ASN30       0.2627
      7  OD1       10.6170    0.2510  -72.0570 O.2    30  ASN30      -0.2716
      8  ND2       11.8340   -1.1150  -73.3580 N.am   30  ASN30      -0.0877
      9  N         10.8530    2.9090  -73.0510 N.am   31  TYR31      -0.1976
     10  CA         9.7470    3.8500  -72.9600 C.3    31  TYR31       0.1639
     11  C          9.4760    4.1020  -71.4950 C.2    31  TYR31       0.2290
     12  O          9.6650    3.2140  -70.6720 O.2    31  TYR31      -0.2864
     13  CB         8.4820    3.2310  -73.5610 C.3    31  TYR31       0.0560
     14  CG         8.6870    2.5930  -74.9130 C.ar   31  TYR31      -0.0198
     15  CD1        8.5270    3.3280  -76.0820 C.ar   31  TYR31      -0.0009
     16  CD2        9.0350    1.2470  -75.0250 C.ar   31  TYR31      -0.0009
     17  CE1        8.6940    2.7340  -77.3360 C.ar   31  TYR31       0.0417
     18  CE2        9.2180    0.6480  -76.2680 C.ar   31  TYR31       0.0417
     19  CZ         9.0690    1.4010  -77.4220 C.ar   31  TYR31       0.1957
     20  OH         9.2430    0.7970  -78.6460 O.3    31  TYR31      -0.2866
     21  N          6.7400    5.2510  -68.4050 N.3    33  SER33      -0.1217
     22  CA         5.3600    5.3770  -67.9730 C.3    33  SER33       0.1889
     23  C          5.4060    6.0900  -66.6180 C.2    33  SER33       0.2288
     24  O          6.4610    6.1310  -65.9660 O.2    33  SER33      -0.2866
     25  CB         4.6780    4.0160  -67.8630 C.3    33  SER33       0.2089
     26  OG         5.5090    3.0410  -67.2670 O.3    33  SER33      -0.2183
     27  N          3.1760    6.9510  -62.8810 N.3    35  TYR35      -0.1241
     28  CA         2.1650    6.4360  -61.9670 C.3    35  TYR35       0.1605
     29  C          1.8780    7.4090  -60.8530 C.2    35  TYR35       0.2264
     30  O          2.8010    7.9760  -60.2780 O.2    35  TYR35      -0.2867
     31  CB         2.5820    5.0500  -61.3970 C.3    35  TYR35       0.0534
     32  CG         2.9230    4.0610  -62.4940 C.ar   35  TYR35      -0.0201
     33  CD1        4.2040    4.0180  -63.0460 C.ar   35  TYR35      -0.0009
     34  CD2        1.9300    3.2950  -63.0970 C.ar   35  TYR35      -0.0009
     35  CE1        4.4820    3.2430  -64.1690 C.ar   35  TYR35       0.0417
     36  CE2        2.2020    2.5090  -64.2180 C.ar   35  TYR35       0.0417
     37  CZ         3.4840    2.4690  -64.7310 C.ar   35  TYR35       0.1957
     38  OH         3.7470    1.6690  -65.7970 O.3    35  TYR35      -0.2866
     39  N          8.2560    4.6990  -64.4710 N.3    88  GLY88      -0.1210
     40  CA         8.4630    3.2730  -64.6460 C.3    88  GLY88       0.1956
     41  C          9.0580    2.9940  -66.0020 C.2    88  GLY88       0.2613
     42  O          8.7390    3.6890  -66.9680 O.2    88  GLY88      -0.2717
     43  N          9.9490    1.9930  -66.0770 N.am   89  THR89      -0.1938
     44  CA        10.5690    1.6340  -67.3590 C.3    89  THR89       0.2028
     45  C         10.9200    0.1360  -67.3900 C.2    89  THR89       0.2642
     46  O         10.7690   -0.5660  -66.3880 O.2    89  THR89      -0.2714
     47  CB        11.7510    2.5830  -67.6870 C.3    89  THR89       0.1808
     48  OG1       12.0730    2.4840  -69.0790 O.3    89  THR89      -0.2208
     49  CG2       12.9740    2.3440  -66.8000 C.3    89  THR89       0.0379
     50  N         11.3350   -0.3550  -68.5640 N.am   90  TRP90      -0.1973
     51  CA        11.6760   -1.7580  -68.7530 C.3    90  TRP90       0.1640
     52  C         13.0830   -1.8450  -69.2750 C.2    90  TRP90       0.2290
     53  O         13.4170   -1.1530  -70.2280 O.2    90  TRP90      -0.2864
     54  CB        10.6900   -2.4080  -69.7320 C.3    90  TRP90       0.0576
     55  CG        10.8750   -3.8930  -69.8980 C.ar   90  TRP90       0.0006
     56  CD1       11.5200   -4.5330  -70.9190 C.ar   90  TRP90       0.0946
     57  CD2       10.4040   -4.9190  -69.0130 C.ar   90  TRP90       0.0152
     58  NE1       11.4640   -5.8980  -70.7330 N.ar   90  TRP90      -0.2442
     59  CE2       10.7860   -6.1620  -69.5700 C.ar   90  TRP90       0.0810
     60  CE3        9.6730   -4.9120  -67.8100 C.ar   90  TRP90       0.0012
     61  CZ2       10.4490   -7.3840  -68.9740 C.ar   90  TRP90       0.0191
     62  CZ3        9.3440   -6.1260  -67.2240 C.ar   90  TRP90       0.0001
     63  CH2        9.7490   -7.3400  -67.7930 C.ar   90  TRP90       0.0015
     64  N         15.2220   -4.2030  -71.1900 N.3    92  ILE92      -0.1245
     65  CA        15.1430   -5.4060  -72.0250 C.3    92  ILE92       0.1561
     66  C         16.3550   -6.3450  -71.8220 C.2    92  ILE92       0.2260
     67  O         16.1510   -7.5580  -71.7670 O.2    92  ILE92      -0.2867
     68  CB        14.8620   -5.0640  -73.5160 C.3    92  ILE92       0.0252
     69  CG1       14.3290   -6.3010  -74.2840 C.3    92  ILE92       0.0019
     70  CG2       16.0650   -4.3910  -74.2210 C.3    92  ILE92       0.0019
     71  CD1       13.2740   -5.9820  -75.3780 C.3    92  ILE92       0.0001
     72  N         15.4310   -7.8990  -68.6950 N.3    95  SER95      -0.1217
     73  CA        14.0300   -8.3250  -68.7860 C.3    95  SER95       0.1889
     74  C         13.3710   -8.0410  -67.4260 C.2    95  SER95       0.2288
     75  O         12.8300   -8.9330  -66.7820 O.2    95  SER95      -0.2866
     76  CB        13.9110   -9.8050  -69.1680 C.3    95  SER95       0.2089
     77  OG        12.5790  -10.1150  -69.5430 O.3    95  SER95      -0.2183
     78  N         11.3940   -4.7600  -64.8900 N.3    97  GLY97      -0.1210
     79  CA        10.7460   -3.4690  -64.6800 C.3    97  GLY97       0.1956
     80  C         11.4890   -2.6790  -63.6330 C.2    97  GLY97       0.2612
     81  O         11.9760   -3.2400  -62.6420 O.2    97  GLY97      -0.2717
     82  N         11.6210   -1.3760  -63.8590 N.am   98  LEU98      -0.1965
     83  CA        12.3310   -0.5160  -62.9310 C.3    98  LEU98       0.1728
     84  C         11.4870    0.6950  -62.6120 C.2    98  LEU98       0.2616
     85  O         10.8040    1.2150  -63.4960 O.2    98  LEU98      -0.2715
     86  CB        13.6770   -0.0300  -63.5250 C.3    98  LEU98       0.0311
     87  CG        14.6350   -1.0750  -64.1020 C.3    98  LEU98       0.0022
     88  CD1       15.8000   -0.3840  -64.7730 C.3    98  LEU98       0.0001
     89  CD2       15.1570   -2.0230  -63.0180 C.3    98  LEU98       0.0001
     90  N         11.5520    1.1500  -61.3620 N.am   99  PHE99      -0.1974
     91  CA        10.8600    2.3510  -60.9150 C.3    99  PHE99       0.1639
     92  C         11.8350    3.3590  -60.3810 C.2    99  PHE99       0.2290
     93  O         12.7960    2.9800  -59.7230 O.2    99  PHE99      -0.2864
     94  CB         9.8510    2.0100  -59.7840 C.3    99  PHE99       0.0560
     95  CG         8.6100    1.2900  -60.2310 C.ar   99  PHE99      -0.0200
     96  CD1        7.5640    1.9820  -60.8380 C.ar   99  PHE99      -0.0042
     97  CD2        8.4860   -0.0840  -60.0680 C.ar   99  PHE99      -0.0042
     98  CE1        6.4120    1.3090  -61.2550 C.ar   99  PHE99      -0.0003
     99  CE2        7.3340   -0.7540  -60.4900 C.ar   99  PHE99      -0.0003
    100  CZ         6.3120   -0.0560  -61.0870 C.ar   99  PHE99      -0.0000
@<TRIPOS>BOND
     1    20    19    1
     2    19    17   ar
     3    19    18   ar
     4    17    15   ar
     5    18    16   ar
     6    15    14   ar
     7    71    69    1
     8    16    14   ar
     9    14    13    1
    10     4     3    2
    11    69    68    1
    12    70    68    1
    13     1     2    1
    14     2     3    1
    15     2     5    1
    16     3     9   am
    17    13    10    1
    18    68    65    1
    19     8     6   am
    20     9    10    1
    21    10    11    1
    22     6     5    1
    23     6     7    2
    24    65    66    1
    25    65    64    1
    26    66    67    2
    27    11    12    2
    28    56    58   ar
    29    56    55   ar
    30    58    59   ar
    31    53    52    2
    32    55    54    1
    33    55    57   ar
    34    54    51    1
    35    59    57   ar
    36    59    61   ar
    37    77    76    1
    38    52    51    1
    39    76    73    1
    40    48    47    1
    41    57    60   ar
    42    61    63   ar
    43    73    72    1
    44    73    74    1
    45    51    50    1
    46    50    45   am
    47    21    22    1
    48    22    25    1
    49    22    23    1
    50    25    26    1
    51    60    62   ar
    52    63    62   ar
    53    47    44    1
    54    47    49    1
    55    74    75    2
    56    45    44    1
    57    45    46    2
    58    44    43    1
    59    42    41    2
    60    23    24    2
    61    43    41   am
    62    41    40    1
    63    38    37    1
    64    78    79    1
    65    88    87    1
    66    37    36   ar
    67    37    35   ar
    68    79    80    1
    69    40    39    1
    70    36    34   ar
    71    35    33   ar
    72    87    86    1
    73    87    89    1
    74    82    80   am
    75    82    83    1
    76    80    81    2
    77    86    83    1
    78    85    84    2
    79    34    32   ar
    80    33    32   ar
    81    83    84    1
    82    27    28    1
    83    84    90   am
    84    32    31    1
    85    28    31    1
    86    28    29    1
    87    90    91    1
    88    98   100   ar
    89    98    96   ar
    90   100    99   ar
    91    91    92    1
    92    91    94    1
    93    29    30    2
    94    96    95   ar
    95    99    97   ar
    96    92    93    2
    97    95    97   ar
    98    95    94    1
