@<TRIPOS>MOLECULE
tmp/5aldA00.pdb
 184 179 0 0 0
SMALL
GASTEIGER

@<TRIPOS>ATOM
      1  N        -20.1960  -15.4590   16.2170 N.3   266  PHE266     -0.1228
      2  CA       -21.2820  -14.5170   16.0670 C.3   266  PHE266      0.1721
      3  C        -21.4390  -13.9920   14.6360 C.2   266  PHE266      0.2437
      4  O        -20.4520  -13.5000   14.0830 O.2   266  PHE266     -0.2733
      5  CB       -21.0730  -13.3320   17.0400 C.3   266  PHE266      0.0547
      6  CG       -22.0860  -12.2270   16.8580 C.ar  266  PHE266     -0.0202
      7  CD1      -21.8840  -11.2210   15.9100 C.ar  266  PHE266     -0.0042
      8  CD2      -23.2380  -12.1810   17.6380 C.ar  266  PHE266     -0.0042
      9  CE1      -22.8390  -10.2180   15.7150 C.ar  266  PHE266     -0.0003
     10  CE2      -24.1860  -11.1680   17.4550 C.ar  266  PHE266     -0.0003
     11  CZ       -23.9870  -10.2020   16.4870 C.ar  266  PHE266     -0.0000
     12  N        -22.6770  -13.9300   14.0630 N.am  267  PRO267     -0.2729
     13  CA       -23.9920  -14.4000   14.5640 C.3   267  PRO267      0.1401
     14  C        -24.3240  -15.6860   13.7960 C.2   267  PRO267      0.2269
     15  O        -24.9410  -15.6590   12.7130 O.2   267  PRO267     -0.2865
     16  CB       -24.9250  -13.2400   14.1650 C.3   267  PRO267      0.0296
     17  CG       -24.1890  -12.5260   12.9630 C.3   267  PRO267      0.0237
     18  CD       -22.8540  -13.2540   12.7680 C.3   267  PRO267      0.0939
     19  N        -14.3270  -17.6040   15.9350 N.3   334  ASP334     -0.1239
     20  CA       -14.7590  -16.2680   16.3870 C.3   334  ASP334      0.1674
     21  C        -15.0770  -16.3480   17.9050 C.2   334  ASP334      0.2266
     22  O        -14.1790  -16.7120   18.6710 O.2   334  ASP334     -0.2867
     23  CB       -15.9320  -15.7420   15.4720 C.3   334  ASP334      0.1410
     24  CG       -16.4790  -14.3750   15.8370 C.2   334  ASP334      0.3668
     25  OD1      -15.8610  -13.3650   15.4390 O.co2 334  ASP334     -0.2456
     26  OD2      -17.4840  -14.3180   16.5880 O.co2 334  ASP334     -0.2456
     27  N        -17.0080   -1.9000   15.9460 N.3   382  TYR382     -0.1241
     28  CA       -18.2860   -2.6100   15.8770 C.3   382  TYR382      0.1605
     29  C        -18.6840   -3.2380   17.2480 C.2   382  TYR382      0.2264
     30  O        -19.8700   -3.3450   17.5390 O.2   382  TYR382     -0.2867
     31  CB       -18.2610   -3.6570   14.7460 C.3   382  TYR382      0.0534
     32  CG       -17.5160   -4.9310   15.0880 C.ar  382  TYR382     -0.0201
     33  CD1      -18.1750   -6.0130   15.6730 C.ar  382  TYR382     -0.0009
     34  CD2      -16.1590   -5.0660   14.8060 C.ar  382  TYR382     -0.0009
     35  CE1      -17.4980   -7.1910   15.9860 C.ar  382  TYR382      0.0417
     36  CE2      -15.4720   -6.2420   15.1090 C.ar  382  TYR382      0.0417
     37  CZ       -16.1480   -7.3080   15.6920 C.ar  382  TYR382      0.1957
     38  OH       -15.4740   -8.4710   16.0070 O.3   382  TYR382     -0.2866
     39  N        -22.0410   -2.5400   19.7400 N.3   386  PHE386     -0.1241
     40  CA       -22.7670   -3.6670   20.3330 C.3   386  PHE386      0.1605
     41  C        -23.0310   -3.5060   21.8210 C.2   386  PHE386      0.2264
     42  O        -23.8430   -4.2440   22.3670 O.2   386  PHE386     -0.2867
     43  CB       -21.9940   -4.9710   20.0770 C.3   386  PHE386      0.0534
     44  CG       -22.0290   -5.5000   18.6620 C.ar  386  PHE386     -0.0203
     45  CD1      -22.8240   -4.8950   17.6910 C.ar  386  PHE386     -0.0042
     46  CD2      -21.2720   -6.6110   18.3000 C.ar  386  PHE386     -0.0042
     47  CE1      -22.8810   -5.4000   16.3960 C.ar  386  PHE386     -0.0003
     48  CE2      -21.3150   -7.1090   16.9980 C.ar  386  PHE386     -0.0003
     49  CZ       -22.1250   -6.5090   16.0550 C.ar  386  PHE386     -0.0000
     50  N        -30.0270   -5.2890   13.3790 N.3   396  LEU396     -0.1245
     51  CA       -29.8110   -6.6720   12.9230 C.3   396  LEU396      0.1561
     52  C        -31.1040   -7.4490   12.6870 C.2   396  LEU396      0.2260
     53  O        -31.1800   -8.2110   11.7200 O.2   396  LEU396     -0.2867
     54  CB       -28.8130   -7.4380   13.8270 C.3   396  LEU396      0.0270
     55  CG       -27.3940   -6.8580   13.8990 C.3   396  LEU396      0.0019
     56  CD1      -26.6640   -7.3540   15.0960 C.3   396  LEU396      0.0001
     57  CD2      -26.6080   -7.1120   12.6300 C.3   396  LEU396      0.0001
     58  N        -23.6110   -9.6870    5.8350 N.3   407  LEU407     -0.1245
     59  CA       -22.5200  -10.2200    6.6600 C.3   407  LEU407      0.1561
     60  C        -21.7160  -11.3290    6.0120 C.2   407  LEU407      0.2260
     61  O        -20.4900  -11.2720    6.0220 O.2   407  LEU407     -0.2867
     62  CB       -23.0510  -10.7100    8.0150 C.3   407  LEU407      0.0270
     63  CG       -23.6500   -9.6670    8.9210 C.3   407  LEU407      0.0019
     64  CD1      -24.3850  -10.3300   10.0560 C.3   407  LEU407      0.0001
     65  CD2      -22.5900   -8.6830    9.4300 C.3   407  LEU407      0.0001
     66  N        -13.8640  -11.9030    1.2750 N.3   411  SER411     -0.1217
     67  CA       -13.0000  -10.7200    1.4630 C.3   411  SER411      0.1889
     68  C        -13.1550   -9.5680    0.4330 C.2   411  SER411      0.2288
     69  O        -13.1180   -8.3900    0.8030 O.2   411  SER411     -0.2866
     70  CB       -11.5400  -11.1330    1.6320 C.3   411  SER411      0.2089
     71  OG       -11.1330  -12.1120    0.6860 O.3   411  SER411     -0.2183
     72  N        -16.9550   -7.6720    0.2470 N.3   414  SER414     -0.1217
     73  CA       -17.3230   -6.8890    1.4170 C.3   414  SER414      0.1889
     74  C        -18.0200   -5.5970    1.0850 C.2   414  SER414      0.2288
     75  O        -17.6070   -4.8360    0.2050 O.2   414  SER414     -0.2866
     76  CB       -16.1720   -6.7600    2.4010 C.3   414  SER414      0.2089
     77  OG       -15.9320   -8.0310    2.9950 O.3   414  SER414     -0.2183
     78  N        -19.6150   -3.9360    3.8200 N.3   416  LEU416     -0.1245
     79  CA       -19.5930   -3.2030    5.0810 C.3   416  LEU416      0.1561
     80  C        -18.3030   -2.4710    5.3390 C.2   416  LEU416      0.2260
     81  O        -17.2080   -3.0160    5.1490 O.2   416  LEU416     -0.2867
     82  CB       -19.8570   -4.1280    6.2950 C.3   416  LEU416      0.0270
     83  CG       -21.0890   -5.0340    6.3180 C.3   416  LEU416      0.0019
     84  CD1      -21.2200   -5.7000    7.6570 C.3   416  LEU416      0.0001
     85  CD2      -22.3640   -4.2790    6.0030 C.3   416  LEU416      0.0001
     86  N        -16.4930   -1.1620    8.4860 N.3   418  MET418     -0.1245
     87  CA       -16.5300   -1.3490    9.9370 C.3   418  MET418      0.1570
     88  C        -15.7570   -0.2590   10.6730 C.2   418  MET418      0.2261
     89  O        -15.5420   -0.3450   11.8850 O.2   418  MET418     -0.2867
     90  CB       -16.0870   -2.7580   10.3420 C.3   418  MET418      0.0387
     91  CG       -17.2010   -3.7810   10.3060 C.3   418  MET418      0.0595
     92  SD       -16.5240   -5.4410   10.4630 S.3   418  MET418     -0.1393
     93  CE       -15.6030   -5.5540    8.9640 C.3   418  MET418      0.0692
     94  N        -24.0550   -0.7210   11.2250 N.3   427  LEU427     -0.1245
     95  CA       -23.2550   -1.6340   10.4100 C.3   427  LEU427      0.1561
     96  C        -23.6100   -1.5750    8.9280 C.2   427  LEU427      0.2260
     97  O        -22.7150   -1.7040    8.0930 O.2   427  LEU427     -0.2867
     98  CB       -23.5030   -3.0950   10.8680 C.3   427  LEU427      0.0270
     99  CG       -22.4800   -3.8850   11.7050 C.3   427  LEU427      0.0019
    100  CD1      -21.0580   -3.3900   11.5650 C.3   427  LEU427      0.0001
    101  CD2      -22.8950   -3.9550   13.1370 C.3   427  LEU427      0.0001
    102  N        -20.8590  -10.1740   23.7700 N.3   465  TYR465     -0.1241
    103  CA       -19.9810   -8.9810   23.7100 C.3   465  TYR465      0.1605
    104  C        -20.2190   -8.0240   24.8620 C.2   465  TYR465      0.2264
    105  O        -19.5300   -7.0090   24.9570 O.2   465  TYR465     -0.2867
    106  CB       -20.2840   -8.1670   22.4460 C.3   465  TYR465      0.0534
    107  CG       -19.9090   -8.8150   21.1380 C.ar  465  TYR465     -0.0201
    108  CD1      -18.6410   -8.6270   20.5790 C.ar  465  TYR465     -0.0009
    109  CD2      -20.8400   -9.5510   20.4140 C.ar  465  TYR465     -0.0009
    110  CE1      -18.3160   -9.1640   19.3330 C.ar  465  TYR465      0.0417
    111  CE2      -20.5190  -10.1090   19.1810 C.ar  465  TYR465      0.0417
    112  CZ       -19.2600   -9.9070   18.6410 C.ar  465  TYR465      0.1957
    113  OH       -18.9640  -10.4610   17.4260 O.3   465  TYR465     -0.2866
    114  N         -7.0150  -12.9490    5.0520 N.3   494  LYS494     -0.1231
    115  CA        -7.8620  -11.7970    4.8040 C.3   494  LYS494      0.1693
    116  C         -8.8980  -11.4650    5.8710 C.2   494  LYS494      0.2592
    117  O         -9.8570  -10.7410    5.5840 O.2   494  LYS494     -0.2718
    118  CB        -8.4260  -11.8450    3.3650 C.3   494  LYS494      0.0285
    119  CG        -7.3090  -11.8390    2.3260 C.3   494  LYS494      0.0035
    120  CD        -7.7930  -11.8300    0.9040 C.3   494  LYS494      0.0206
    121  CE        -6.5990  -11.7390   -0.0130 C.3   494  LYS494      0.1093
    122  NZ        -6.9840  -11.8790   -1.4450 N.3   494  LYS494     -0.1314
    123  N         -8.7080  -11.9650    7.1190 N.am  495  ASP495     -0.1960
    124  CA        -9.6050  -11.5650    8.2010 C.3   495  ASP495      0.1840
    125  C         -9.0400  -10.2210    8.6740 C.2   495  ASP495      0.2622
    126  O         -7.9530  -10.1960    9.2420 O.2   495  ASP495     -0.2715
    127  CB        -9.6580  -12.5900    9.3510 C.3   495  ASP495      0.1450
    128  CG       -10.8190  -12.3600   10.3010 C.2   495  ASP495      0.3671
    129  OD1      -11.1630  -11.1830   10.5490 O.co2 495  ASP495     -0.2456
    130  OD2      -11.3550  -13.3580   10.8390 O.co2 495  ASP495     -0.2456
    131  N         -9.7480   -9.1140    8.4000 N.am  496  PHE496     -0.1960
    132  CA        -9.2650   -7.7700    8.7240 C.3   496  PHE496      0.1771
    133  C         -9.4420   -7.3070   10.1600 C.2   496  PHE496      0.2619
    134  O         -8.8570   -6.2970   10.5690 O.2   496  PHE496     -0.2715
    135  CB        -9.6700   -6.7340    7.6510 C.3   496  PHE496      0.0574
    136  CG        -9.2830   -7.1940    6.2590 C.ar  496  PHE496     -0.0200
    137  CD1       -7.9440   -7.4170    5.9230 C.ar  496  PHE496     -0.0042
    138  CD2      -10.2560   -7.4640    5.3020 C.ar  496  PHE496     -0.0042
    139  CE1       -7.5880   -7.8590    4.6430 C.ar  496  PHE496     -0.0003
    140  CE2       -9.8960   -7.8990    4.0140 C.ar  496  PHE496     -0.0003
    141  CZ        -8.5680   -8.1030    3.6980 C.ar  496  PHE496     -0.0000
    142  N        -10.1800   -8.0930   10.9450 N.am  497  VAL497     -0.1963
    143  CA       -10.4020   -7.8490   12.3700 C.3   497  VAL497      0.1727
    144  C         -9.5240   -8.8360   13.1830 C.2   497  VAL497      0.2616
    145  O         -8.6900   -8.4110   13.9910 O.2   497  VAL497     -0.2715
    146  CB       -11.9100   -7.9460   12.6930 C.3   497  VAL497      0.0290
    147  CG1      -12.1800   -7.8530   14.1950 C.3   497  VAL497      0.0023
    148  CG2      -12.6850   -6.8720   11.9370 C.3   497  VAL497      0.0023
    149  N         -9.6870  -10.1430   12.9210 N.am  498  LEU498     -0.1977
    150  CA        -8.9270  -11.2100   13.5800 C.3   498  LEU498      0.1596
    151  C         -7.7440  -11.5160   12.6830 C.2   498  LEU498      0.2287
    152  O         -7.6810  -12.5860   12.0670 O.2   498  LEU498     -0.2864
    153  CB        -9.8300  -12.4560   13.8160 C.3   498  LEU498      0.0297
    154  CG       -10.9800  -12.2550   14.8160 C.3   498  LEU498      0.0022
    155  CD1      -11.9130  -13.4460   14.8200 C.3   498  LEU498      0.0001
    156  CD2      -10.4440  -11.9970   16.2310 C.3   498  LEU498      0.0001
    157  N        -11.3760  -15.0440    4.2490 N.3   522  GLY522     -0.1210
    158  CA       -11.9050  -13.9860    5.0940 C.3   522  GLY522      0.1956
    159  C        -12.2610  -14.4910    6.4940 C.2   522  GLY522      0.2612
    160  O        -11.7700  -15.5370    6.9370 O.2   522  GLY522     -0.2717
    161  N        -13.1560  -13.7620    7.1850 N.am  523  HIS523     -0.1961
    162  CA       -13.6820  -14.0650    8.5230 C.3   523  HIS523      0.1787
    163  C        -14.5250  -15.3490    8.6310 C.2   523  HIS523      0.2620
    164  O        -14.4780  -16.0250    9.6490 O.2   523  HIS523     -0.2715
    165  CB       -14.5000  -12.8700    9.0510 C.3   523  HIS523      0.0785
    166  CG       -15.0490  -13.1280   10.4180 C.ar  523  HIS523      0.0821
    167  ND1      -14.2230  -13.1490   11.5270 N.ar  523  HIS523     -0.2267
    168  CD2      -16.2980  -13.4860   10.7930 C.ar  523  HIS523      0.1154
    169  CE1      -15.0020  -13.4700   12.5400 C.ar  523  HIS523      0.1986
    170  NE2      -16.2570  -13.6930   12.1420 N.ar  523  HIS523     -0.2212
    171  N        -15.3290  -15.6550    7.6160 N.am  524  TRP524     -0.1974
    172  CA       -16.2390  -16.8040    7.5830 C.3   524  TRP524      0.1640
    173  C        -15.5060  -18.0230    7.0620 C.2   524  TRP524      0.2290
    174  O        -15.9130  -18.6350    6.0770 O.2   524  TRP524     -0.2864
    175  CB       -17.4980  -16.4580    6.7550 C.3   524  TRP524      0.0576
    176  CG       -18.0050  -15.0760    7.0340 C.ar  524  TRP524      0.0006
    177  CD1      -17.7710  -13.9610    6.2870 C.ar  524  TRP524      0.0946
    178  CD2      -18.6610  -14.6250    8.2310 C.ar  524  TRP524      0.0152
    179  NE1      -18.2850  -12.8500    6.9150 N.ar  524  TRP524     -0.2442
    180  CE2      -18.8600  -13.2300    8.0990 C.ar  524  TRP524      0.0810
    181  CE3      -19.1430  -15.2690    9.3840 C.ar  524  TRP524      0.0012
    182  CZ2      -19.5170  -12.4690    9.0730 C.ar  524  TRP524      0.0191
    183  CZ3      -19.7930  -14.5140   10.3470 C.ar  524  TRP524      0.0001
    184  CH2      -19.9720  -13.1310   10.1900 C.ar  524  TRP524      0.0015
@<TRIPOS>BOND
     1   122   121    1
     2   121   120    1
     3    75    74    2
     4    72    73    1
     5    68    69    2
     6    68    67    1
     7    71    70    1
     8   120   119    1
     9    74    73    1
    10    66    67    1
    11    73    76    1
    12    67    70    1
    13   119   118    1
    14    76    77    1
    15   118   115    1
    16   141   140   ar
    17   141   139   ar
    18    78    79    1
    19   140   138   ar
    20   157   158    1
    21   139   137   ar
    22   115   114    1
    23   115   116    1
    24    79    80    1
    25    79    82    1
    26   158   159    1
    27    81    80    2
    28   138   136   ar
    29   117   116    2
    30    58    59    1
    31   116   123   am
    32   137   136   ar
    33    85    83    1
    34    60    61    2
    35    60    59    1
    36   174   173    2
    37   136   135    1
    38   177   179   ar
    39   177   176   ar
    40    82    83    1
    41    83    84    1
    42   159   160    2
    43   159   161   am
    44    59    62    1
    45   175   176    1
    46   175   172    1
    47   179   180   ar
    48   176   178   ar
    49   173   172    1
    50   123   124    1
    51   161   162    1
    52   172   171    1
    53   171   163   am
    54   135   132    1
    55    62    63    1
    56    97    96    2
    57   180   178   ar
    58   180   182   ar
    59   124   125    1
    60   124   127    1
    61   178   181   ar
    62   131   125   am
    63   131   132    1
    64    86    87    1
    65   162   163    1
    66   162   165    1
    67   163   164    2
    68   125   126    2
    69   132   133    1
    70    63    65    1
    71    63    64    1
    72    96    95    1
    73    93    92    1
    74   165   166    1
    75   182   184   ar
    76   127   128    1
    77   181   183   ar
    78    87    90    1
    79    87    88    1
    80   133   134    2
    81   133   142   am
    82   184   183   ar
    83   128   129   ar
    84   128   130   ar
    85    91    90    1
    86    91    92    1
    87    95    98    1
    88    95    94    1
    89   166   168   ar
    90   166   167   ar
    91    88    89    2
    92   168   170   ar
    93    98    99    1
    94   142   143    1
    95   167   169   ar
    96   100    99    1
    97    99   101    1
    98    53    52    2
    99   148   146    1
   100   152   151    2
   101   170   169   ar
   102   143   146    1
   103   143   144    1
   104    57    55    1
   105   151   150    1
   106    52    51    1
   107   146   147    1
   108    15    14    2
   109    18    17    1
   110    18    12    1
   111   149   144   am
   112   149   150    1
   113    51    50    1
   114    51    54    1
   115    17    16    1
   116   144   145    2
   117   150   153    1
   118    14    13    1
   119   153   154    1
   120    54    55    1
   121    55    56    1
   122    12    13    1
   123    12     3   am
   124     4     3    2
   125    16    13    1
   126     3     2    1
   127    31    32    1
   128    31    28    1
   129    34    32   ar
   130    34    36   ar
   131   154   155    1
   132   154   156    1
   133    32    33   ar
   134    36    37   ar
   135    25    24   ar
   136    23    24    1
   137    23    20    1
   138    33    35   ar
   139    37    35   ar
   140    37    38    1
   141     9     7   ar
   142     9    11   ar
   143    24    26   ar
   144    28    27    1
   145    28    29    1
   146     7     6   ar
   147    19    20    1
   148    49    47   ar
   149    49    48   ar
   150     2     1    1
   151     2     5    1
   152    20    21    1
   153    47    45   ar
   154    11    10   ar
   155     6     5    1
   156     6     8   ar
   157    48    46   ar
   158    29    30    2
   159   113   112    1
   160    10     8   ar
   161    45    44   ar
   162    21    22    2
   163    46    44   ar
   164   112   111   ar
   165   112   110   ar
   166    44    43    1
   167   111   109   ar
   168   110   108   ar
   169    39    40    1
   170    43    40    1
   171    40    41    1
   172   109   107   ar
   173   108   107   ar
   174   107   106    1
   175    41    42    2
   176   106   103    1
   177   103   102    1
   178   103   104    1
   179   104   105    2
