@<TRIPOS>MOLECULE
tmp/5aleA00.pdb
 168 163 0 0 0
SMALL
GASTEIGER

@<TRIPOS>ATOM
      1  N         20.1300   15.5380   15.9340 N.3   266  PHE266     -0.1228
      2  CA        21.2220   14.6020   15.8150 C.3   266  PHE266      0.1721
      3  C         21.3610   14.0780   14.3850 C.2   266  PHE266      0.2437
      4  O         20.3680   13.6010   13.8070 O.2   266  PHE266     -0.2733
      5  CB        21.0050   13.4010   16.7740 C.3   266  PHE266      0.0547
      6  CG        22.0560   12.3160   16.6780 C.ar  266  PHE266     -0.0202
      7  CD1       21.9280   11.2780   15.7560 C.ar  266  PHE266     -0.0042
      8  CD2       23.1600   12.3180   17.5220 C.ar  266  PHE266     -0.0042
      9  CE1       22.9160   10.2960   15.6410 C.ar  266  PHE266     -0.0003
     10  CE2       24.1350   11.3130   17.4320 C.ar  266  PHE266     -0.0003
     11  CZ        24.0120   10.3170   16.4810 C.ar  266  PHE266     -0.0000
     12  N         22.6010   13.9900   13.8580 N.am  267  PRO267     -0.2729
     13  CA        23.8990   14.4380   14.4010 C.3   267  PRO267      0.1401
     14  C         24.2610   15.6920   13.6220 C.2   267  PRO267      0.2269
     15  O         24.8830   15.6350   12.5580 O.2   267  PRO267     -0.2865
     16  CB        24.8110   13.2460   14.0700 C.3   267  PRO267      0.0296
     17  CG        24.1480   12.5740   12.8250 C.3   267  PRO267      0.0237
     18  CD        22.8210   13.3040   12.5770 C.3   267  PRO267      0.0939
     19  N         14.2840   17.6740   15.7900 N.3   334  ASP334     -0.1239
     20  CA        14.7170   16.3540   16.2510 C.3   334  ASP334      0.1674
     21  C         15.0600   16.4270   17.7660 C.2   334  ASP334      0.2266
     22  O         14.1820   16.8380   18.5180 O.2   334  ASP334     -0.2867
     23  CB        15.8560   15.8110   15.3380 C.3   334  ASP334      0.1410
     24  CG        16.3470   14.4350   15.7290 C.2   334  ASP334      0.3668
     25  OD1       15.6800   13.4470   15.3780 O.co2 334  ASP334     -0.2456
     26  OD2       17.3410   14.3550   16.4640 O.co2 334  ASP334     -0.2456
     27  N         16.7710    2.0880   15.9680 N.3   382  TYR382     -0.1241
     28  CA        18.0420    2.8030   15.9120 C.3   382  TYR382      0.1605
     29  C         18.4260    3.3610   17.3040 C.2   382  TYR382      0.2264
     30  O         19.6100    3.4160   17.6210 O.2   382  TYR382     -0.2867
     31  CB        17.9830    3.9090   14.8440 C.3   382  TYR382      0.0534
     32  CG        17.2910    5.1810   15.2850 C.ar  382  TYR382     -0.0201
     33  CD1       15.9050    5.2980   15.2380 C.ar  382  TYR382     -0.0009
     34  CD2       18.0220    6.2680   15.7550 C.ar  382  TYR382     -0.0009
     35  CE1       15.2640    6.4580   15.6670 C.ar  382  TYR382      0.0417
     36  CE2       17.3940    7.4350   16.1740 C.ar  382  TYR382      0.0417
     37  CZ        16.0160    7.5320   16.1200 C.ar  382  TYR382      0.1957
     38  OH        15.4190    8.6980   16.5310 O.3   382  TYR382     -0.2866
     39  N         21.8940    2.7350   19.5060 N.3   386  PHE386     -0.1241
     40  CA        22.6660    3.8340   20.0830 C.3   386  PHE386      0.1605
     41  C         22.9950    3.6660   21.5730 C.2   386  PHE386      0.2264
     42  O         23.7900    4.4400   22.0940 O.2   386  PHE386     -0.2867
     43  CB        21.9160    5.1540   19.8590 C.3   386  PHE386      0.0534
     44  CG        21.9000    5.6890   18.4450 C.ar  386  PHE386     -0.0203
     45  CD1       22.6370    5.0690   17.4340 C.ar  386  PHE386     -0.0042
     46  CD2       21.1820    6.8350   18.1280 C.ar  386  PHE386     -0.0042
     47  CE1       22.6460    5.5860   16.1370 C.ar  386  PHE386     -0.0003
     48  CE2       21.1850    7.3420   16.8260 C.ar  386  PHE386     -0.0003
     49  CZ        21.8990    6.6980   15.8320 C.ar  386  PHE386     -0.0000
     50  N         29.8480    5.5000   13.0960 N.3   396  LEU396     -0.1245
     51  CA        29.6930    6.8900   12.6640 C.3   396  LEU396      0.1561
     52  C         31.0050    7.6370   12.4360 C.2   396  LEU396      0.2260
     53  O         31.0610    8.5140   11.5640 O.2   396  LEU396     -0.2867
     54  CB        28.7600    7.6590   13.6240 C.3   396  LEU396      0.0270
     55  CG        27.3120    7.1530   13.6340 C.3   396  LEU396      0.0019
     56  CD1       26.6340    7.4520   14.9380 C.3   396  LEU396      0.0001
     57  CD2       26.5230    7.6980   12.4420 C.3   396  LEU396      0.0001
     58  N         23.3970    9.9770    5.6140 N.3   407  LEU407     -0.1245
     59  CA        22.3210   10.5420    6.4290 C.3   407  LEU407      0.1561
     60  C         21.5460   11.6420    5.7360 C.2   407  LEU407      0.2260
     61  O         20.3160   11.5830    5.6790 O.2   407  LEU407     -0.2867
     62  CB        22.9030   11.1040    7.7430 C.3   407  LEU407      0.0270
     63  CG        23.4580   10.1140    8.7380 C.3   407  LEU407      0.0019
     64  CD1       24.2790   10.8350    9.7800 C.3   407  LEU407      0.0001
     65  CD2       22.3490    9.3280    9.3870 C.3   407  LEU407      0.0001
     66  N         19.9830   13.1080    3.1170 N.3   409  ARG409     -0.1245
     67  CA        19.3330   12.7960    1.8370 C.3   409  ARG409      0.1563
     68  C         17.8520   13.1470    1.8780 C.2   409  ARG409      0.2260
     69  O         17.2390   13.0710    2.9430 O.2   409  ARG409     -0.2867
     70  CB        19.4630   11.2960    1.5190 C.3   409  ARG409      0.0307
     71  CG        20.8090   10.6800    1.8560 C.3   409  ARG409      0.0489
     72  CD        21.0010    9.3570    1.1770 C.3   409  ARG409      0.2205
     73  NE        22.2920    9.3370    0.5040 N.pl3 409  ARG409     -0.0865
     74  CZ        22.4690    9.6180   -0.7780 C.cat 409  ARG409      0.5346
     75  NH1       21.4310    9.8990   -1.5530 N.pl3 409  ARG409      0.1354
     76  NH2       23.6820    9.5980   -1.3020 N.pl3 409  ARG409      0.1354
     77  N         16.8850    8.2230   -0.0670 N.3   414  SER414     -0.1217
     78  CA        17.3000    7.4280    1.0880 C.3   414  SER414      0.1889
     79  C         18.0850    6.1640    0.7280 C.2   414  SER414      0.2288
     80  O         17.8210    5.5180   -0.2930 O.2   414  SER414     -0.2866
     81  CB        16.1220    7.1270    2.0090 C.3   414  SER414      0.2089
     82  OG        16.4910    6.2740    3.0840 O.3   414  SER414     -0.2183
     83  N         19.2800    4.6480    3.8210 N.3   416  LEU416     -0.1245
     84  CA        19.0720    4.0670    5.1510 C.3   416  LEU416      0.1561
     85  C         17.6220    3.7650    5.4760 C.2   416  LEU416      0.2260
     86  O         16.8120    4.6780    5.6090 O.2   416  LEU416     -0.2867
     87  CB        19.6070    4.9890    6.2650 C.3   416  LEU416      0.0270
     88  CG        21.0520    5.4450    6.2850 C.3   416  LEU416      0.0019
     89  CD1       21.4010    5.9770    7.6450 C.3   416  LEU416      0.0001
     90  CD2       22.0090    4.3430    5.8550 C.3   416  LEU416      0.0001
     91  N         15.7160    2.7060    8.5170 N.3   418  MET418     -0.1245
     92  CA        16.0370    2.7050    9.9550 C.3   418  MET418      0.1570
     93  C         15.4440    1.5730   10.7830 C.2   418  MET418      0.2261
     94  O         15.3870    1.6540   12.0190 O.2   418  MET418     -0.2867
     95  CB        15.8200    4.0580   10.6190 C.3   418  MET418      0.0387
     96  CG        17.0050    4.4710   11.4680 C.3   418  MET418      0.0595
     97  SD        18.0830    5.6240   10.6080 S.3   418  MET418     -0.1393
     98  CE        16.9270    6.5110    9.8640 C.3   418  MET418      0.0692
     99  N         23.7630    1.1600   11.1460 N.3   427  LEU427     -0.1245
    100  CA        23.0080    2.0670   10.2680 C.3   427  LEU427      0.1561
    101  C         23.3530    1.8850    8.8020 C.2   427  LEU427      0.2260
    102  O         22.4680    2.0140    7.9610 O.2   427  LEU427     -0.2867
    103  CB        23.3310    3.5510   10.5750 C.3   427  LEU427      0.0270
    104  CG        22.5950    4.3480   11.6590 C.3   427  LEU427      0.0019
    105  CD1       21.1760    3.8690   11.9090 C.3   427  LEU427      0.0001
    106  CD2       23.4270    4.4510   12.9030 C.3   427  LEU427      0.0001
    107  N         20.9040   10.2020   23.6930 N.3   465  TYR465     -0.1241
    108  CA        20.0170    9.0290   23.6540 C.3   465  TYR465      0.1605
    109  C         20.1850    8.0770   24.8340 C.2   465  TYR465      0.2264
    110  O         19.4010    7.1440   24.9660 O.2   465  TYR465     -0.2867
    111  CB        20.3270    8.2010   22.3910 C.3   465  TYR465      0.0534
    112  CG        19.9860    8.8570   21.0780 C.ar  465  TYR465     -0.0201
    113  CD1       18.7190    8.7170   20.5150 C.ar  465  TYR465     -0.0009
    114  CD2       20.9490    9.5590   20.3580 C.ar  465  TYR465     -0.0009
    115  CE1       18.4170    9.2710   19.2720 C.ar  465  TYR465      0.0417
    116  CE2       20.6530   10.1360   19.1280 C.ar  465  TYR465      0.0417
    117  CZ        19.3850    9.9880   18.5870 C.ar  465  TYR465      0.1957
    118  OH        19.0940   10.5690   17.3810 O.3   465  TYR465     -0.2866
    119  N          8.9070   12.2310    6.7590 N.3   495  ASP495     -0.1225
    120  CA         9.8640   11.8550    7.7860 C.3   495  ASP495      0.1805
    121  C          9.3280   10.5070    8.2750 C.2   495  ASP495      0.2598
    122  O          8.3050   10.4680    8.9470 O.2   495  ASP495     -0.2718
    123  CB         9.9270   12.8730    8.9420 C.3   495  ASP495      0.1424
    124  CG        10.9890   12.5600    9.9800 C.2   495  ASP495      0.3668
    125  OD1       11.4210   11.3810   10.0590 O.co2 495  ASP495     -0.2456
    126  OD2       11.4000   13.4970   10.7100 O.co2 495  ASP495     -0.2456
    127  N         10.0080    9.4130    7.9170 N.am  496  PHE496     -0.1962
    128  CA         9.5710    8.0740    8.2950 C.3   496  PHE496      0.1771
    129  C          9.9760    7.6340    9.6920 C.2   496  PHE496      0.2619
    130  O          9.5960    6.5430   10.1130 O.2   496  PHE496     -0.2715
    131  CB         9.8800    7.0390    7.1890 C.3   496  PHE496      0.0574
    132  CG         9.3050    7.4240    5.8400 C.ar  496  PHE496     -0.0200
    133  CD1        7.9300    7.5960    5.6700 C.ar  496  PHE496     -0.0042
    134  CD2       10.1370    7.6690    4.7570 C.ar  496  PHE496     -0.0042
    135  CE1        7.4020    7.9920    4.4340 C.ar  496  PHE496     -0.0003
    136  CE2        9.6080    8.0650    3.5200 C.ar  496  PHE496     -0.0003
    137  CZ         8.2470    8.2250    3.3690 C.ar  496  PHE496     -0.0000
    138  N         10.7060    8.4980   10.4330 N.am  497  VAL497     -0.1977
    139  CA        11.1340    8.2350   11.8150 C.3   497  VAL497      0.1596
    140  C         10.2290    9.0540   12.7620 C.2   497  VAL497      0.2287
    141  O          9.5910    8.4920   13.6630 O.2   497  VAL497     -0.2864
    142  CB        12.6490    8.5300   12.0220 C.3   497  VAL497      0.0276
    143  CG1       13.0440    8.4250   13.4960 C.3   497  VAL497      0.0022
    144  CG2       13.5090    7.6000   11.1680 C.3   497  VAL497      0.0022
    145  N         13.2170   13.8780    6.8420 N.3   523  HIS523     -0.1226
    146  CA        13.6810   14.1800    8.2020 C.3   523  HIS523      0.1752
    147  C         14.4990   15.4590    8.3410 C.2   523  HIS523      0.2596
    148  O         14.4270   16.1130    9.3780 O.2   523  HIS523     -0.2718
    149  CB        14.4960   13.0010    8.7870 C.3   523  HIS523      0.0759
    150  CG        14.9860   13.2590   10.1840 C.ar  523  HIS523      0.0818
    151  ND1       14.1130   13.2740   11.2630 N.ar  523  HIS523     -0.2268
    152  CD2       16.2240   13.5980   10.6210 C.ar  523  HIS523      0.1154
    153  CE1       14.8430   13.6210   12.3100 C.ar  523  HIS523      0.1986
    154  NE2       16.1220   13.8060   11.9800 N.ar  523  HIS523     -0.2212
    155  N         15.3440   15.7680    7.3570 N.am  524  TRP524     -0.1976
    156  CA        16.2560   16.9180    7.4110 C.3   524  TRP524      0.1640
    157  C         15.5440   18.1620    6.9190 C.2   524  TRP524      0.2290
    158  O         15.9760   18.8190    5.9760 O.2   524  TRP524     -0.2864
    159  CB        17.5440   16.5850    6.6440 C.3   524  TRP524      0.0576
    160  CG        18.0270   15.2000    6.9640 C.ar  524  TRP524      0.0006
    161  CD1       17.7860   14.0650    6.2430 C.ar  524  TRP524      0.0946
    162  CD2       18.6480   14.7720    8.1860 C.ar  524  TRP524      0.0152
    163  NE1       18.2800   12.9690    6.9050 N.ar  524  TRP524     -0.2442
    164  CE2       18.8200   13.3710    8.1000 C.ar  524  TRP524      0.0810
    165  CE3       19.0720   15.4360    9.3530 C.ar  524  TRP524      0.0012
    166  CZ2       19.4370   12.6270    9.1150 C.ar  524  TRP524      0.0191
    167  CZ3       19.6900   14.6990   10.3490 C.ar  524  TRP524      0.0001
    168  CH2       19.8830   13.3170   10.2200 C.ar  524  TRP524      0.0015
@<TRIPOS>BOND
     1    75    74    1
     2    76    74    1
     3    74    73    2
     4    80    79    2
     5    77    78    1
     6    73    72    1
     7    79    78    1
     8    78    81    1
     9    72    71    1
    10    70    67    1
    11    70    71    1
    12    67    68    1
    13    67    66    1
    14    68    69    2
    15    81    82    1
    16   137   136   ar
    17   137   135   ar
    18   136   134   ar
    19    83    84    1
    20   135   133   ar
    21   134   132   ar
    22    84    85    1
    23    84    87    1
    24    85    86    2
    25    58    59    1
    26   133   132   ar
    27    61    60    2
    28    60    59    1
    29   132   131    1
    30    90    88    1
    31   158   157    2
    32   161   163   ar
    33   161   160   ar
    34    87    88    1
    35    88    89    1
    36    59    62    1
    37   159   160    1
    38   159   156    1
    39   119   120    1
    40   145   146    1
    41   163   164   ar
    42   157   156    1
    43   160   162   ar
    44   131   128    1
    45   155   156    1
    46   155   147   am
    47    62    63    1
    48   120   121    1
    49   120   123    1
    50   127   121   am
    51   127   128    1
    52   102   101    2
    53   164   162   ar
    54   164   166   ar
    55   162   165   ar
    56   146   147    1
    57   146   149    1
    58   121   122    2
    59   128   129    1
    60   147   148    2
    61    91    92    1
    62    63    65    1
    63    63    64    1
    64   149   150    1
    65   101   100    1
    66   123   124    1
    67   166   168   ar
    68   165   167   ar
    69   129   130    2
    70   129   138   am
    71    98    97    1
    72    92    95    1
    73    92    93    1
    74   124   125   ar
    75   124   126   ar
    76   150   152   ar
    77   150   151   ar
    78   168   167   ar
    79   100   103    1
    80   100    99    1
    81   138   139    1
    82   103   104    1
    83    97    96    1
    84    95    96    1
    85   152   154   ar
    86    93    94    2
    87   144   142    1
    88   151   153   ar
    89    53    52    2
    90   104   105    1
    91   104   106    1
    92   139   142    1
    93   139   140    1
    94   154   153   ar
    95   142   143    1
    96    52    51    1
    97    57    55    1
    98    15    14    2
    99    18    17    1
   100    18    12    1
   101    51    50    1
   102    51    54    1
   103   140   141    2
   104    17    16    1
   105    14    13    1
   106    54    55    1
   107    55    56    1
   108     4     3    2
   109    12     3   am
   110    12    13    1
   111    16    13    1
   112     3     2    1
   113    31    32    1
   114    31    28    1
   115    33    32   ar
   116    33    35   ar
   117    32    34   ar
   118    23    24    1
   119    23    20    1
   120    25    24   ar
   121     9     7   ar
   122     9    11   ar
   123    35    37   ar
   124    24    26   ar
   125    34    36   ar
   126     7     6   ar
   127    19    20    1
   128     2     1    1
   129     2     5    1
   130    49    47   ar
   131    49    48   ar
   132    28    27    1
   133    28    29    1
   134    37    36   ar
   135    37    38    1
   136    47    45   ar
   137    20    21    1
   138    11    10   ar
   139     6     5    1
   140     6     8   ar
   141    48    46   ar
   142    29    30    2
   143   118   117    1
   144    10     8   ar
   145    45    44   ar
   146    21    22    2
   147    46    44   ar
   148    44    43    1
   149   117   116   ar
   150   117   115   ar
   151   116   114   ar
   152   115   113   ar
   153    39    40    1
   154    43    40    1
   155    40    41    1
   156   114   112   ar
   157   113   112   ar
   158   112   111    1
   159    41    42    2
   160   111   108    1
   161   108   107    1
   162   108   109    1
   163   109   110    2
