@<TRIPOS>MOLECULE
tmp/5alfA00.pdb
 203 199 0 0 0
SMALL
GASTEIGER

@<TRIPOS>ATOM
      1  N         20.1180   15.7550   16.1870 N.3   266  PHE266     -0.1228
      2  CA        21.1740   14.7690   16.0500 C.3   266  PHE266      0.1721
      3  C         21.2960   14.2670   14.6250 C.2   266  PHE266      0.2437
      4  O         20.2890   13.7880   14.0650 O.2   266  PHE266     -0.2733
      5  CB        20.9020   13.5620   16.9830 C.3   266  PHE266      0.0547
      6  CG        21.8660   12.4090   16.8090 C.ar  266  PHE266     -0.0202
      7  CD1       21.6110   11.3970   15.8830 C.ar  266  PHE266     -0.0042
      8  CD2       23.0430   12.3460   17.5510 C.ar  266  PHE266     -0.0042
      9  CE1       22.5150   10.3400   15.7050 C.ar  266  PHE266     -0.0003
     10  CE2       23.9570   11.2970   17.3600 C.ar  266  PHE266     -0.0003
     11  CZ        23.6850   10.3020   16.4380 C.ar  266  PHE266     -0.0000
     12  N         22.5240   14.2250   14.0490 N.am  267  PRO267     -0.2729
     13  CA        23.8330   14.6910   14.5570 C.3   267  PRO267      0.1401
     14  C         24.1780   15.9530   13.7640 C.2   267  PRO267      0.2269
     15  O         24.7560   15.8870   12.6730 O.2   267  PRO267     -0.2865
     16  CB        24.7380   13.5110   14.1810 C.3   267  PRO267      0.0296
     17  CG        24.0600   12.8850   12.9000 C.3   267  PRO267      0.0237
     18  CD        22.7070   13.5670   12.7430 C.3   267  PRO267      0.0939
     19  N         14.2260   18.0020   15.9350 N.3   334  ASP334     -0.1225
     20  CA        14.7080   16.6870   16.3590 C.3   334  ASP334      0.1805
     21  C         14.9580   16.6340   17.8870 C.2   334  ASP334      0.2597
     22  O         13.9950   16.7800   18.6320 O.2   334  ASP334     -0.2718
     23  CB        15.9310   16.2800   15.5100 C.3   334  ASP334      0.1424
     24  CG        16.3710   14.8550   15.7210 C.2   334  ASP334      0.3668
     25  OD1       15.6080   13.9480   15.3540 O.co2 334  ASP334     -0.2456
     26  OD2       17.4310   14.6440   16.3660 O.co2 334  ASP334     -0.2456
     27  N         16.2250   16.4640   18.3600 N.am  335  TRP335     -0.1976
     28  CA        16.5230   16.4780   19.8020 C.3   335  TRP335      0.1640
     29  C         16.3400   17.8850   20.3890 C.2   335  TRP335      0.2290
     30  O         15.9540   18.0160   21.5440 O.2   335  TRP335     -0.2864
     31  CB        17.9050   15.8770   20.1270 C.3   335  TRP335      0.0576
     32  CG        17.8170   14.4150   20.4630 C.ar  335  TRP335      0.0006
     33  CD1       18.1240   13.3710   19.6440 C.ar  335  TRP335      0.0946
     34  CD2       17.2230   13.8400   21.6380 C.ar  335  TRP335      0.0152
     35  NE1       17.8470   12.1820   20.2690 N.ar  335  TRP335     -0.2442
     36  CE2       17.2730   12.4370   21.4860 C.ar  335  TRP335      0.0810
     37  CE3       16.6540   14.3780   22.8170 C.ar  335  TRP335      0.0012
     38  CZ2       16.7750   11.5570   22.4610 C.ar  335  TRP335      0.0191
     39  CZ3       16.1860   13.5060   23.7890 C.ar  335  TRP335      0.0001
     40  CH2       16.2740   12.1130   23.6180 C.ar  335  TRP335      0.0015
     41  N         12.6530   18.3600   21.2050 N.3   338  MET338     -0.1245
     42  CA        12.4190   17.7530   22.5070 C.3   338  MET338      0.1570
     43  C         12.8090   18.6990   23.6430 C.2   338  MET338      0.2261
     44  O         12.0160   18.8730   24.5680 O.2   338  MET338     -0.2867
     45  CB        13.2020   16.4320   22.6330 C.3   338  MET338      0.0387
     46  CG        12.7210   15.5540   23.7600 C.3   338  MET338      0.0595
     47  SD        11.0780   14.8560   23.4400 S.3   338  MET338     -0.1393
     48  CE        11.4370   13.8440   22.1010 C.3   338  MET338      0.0692
     49  N          7.2430   15.6170   18.1660 N.3   360  PRO360     -0.2116
     50  CA         5.9980   15.8920   18.8870 C.3   360  PRO360      0.1372
     51  C          6.2160   16.0000   20.3990 C.2   360  PRO360      0.2244
     52  O          7.2710   15.6370   20.9220 O.2   360  PRO360     -0.2868
     53  CB         5.1590   14.6550   18.5690 C.3   360  PRO360      0.0268
     54  CG         6.1650   13.5530   18.4940 C.3   360  PRO360      0.0207
     55  CD         7.3760   14.1710   17.8640 C.3   360  PRO360      0.0892
     56  N          4.9560   14.2930   23.6000 N.3   362  ILE362     -0.1245
     57  CA         4.2430   13.1250   24.1100 C.3   362  ILE362      0.1561
     58  C          4.5290   13.0110   25.6110 C.2   362  ILE362      0.2260
     59  O          5.6920   12.8970   26.0000 O.2   362  ILE362     -0.2867
     60  CB         4.5150   11.7910   23.3220 C.3   362  ILE362      0.0252
     61  CG1        4.2020   11.9550   21.8070 C.3   362  ILE362      0.0019
     62  CG2        3.6980   10.6230   23.9290 C.3   362  ILE362      0.0019
     63  CD1        4.7030   10.8850   20.9000 C.3   362  ILE362      0.0001
     64  N          9.3160    0.6960   26.4220 N.3   373  SER373     -0.1202
     65  CA         8.3650    1.2500   25.4470 C.3   373  SER373      0.2020
     66  C          9.0240    1.5840   24.0940 C.2   373  SER373      0.2618
     67  O          8.3150    1.6920   23.0920 O.2   373  SER373     -0.2717
     68  CB         7.6080    2.4460   26.0180 C.3   373  SER373      0.2103
     69  OG         8.4120    3.6060   26.1330 O.3   373  SER373     -0.2182
     70  N         10.3790    1.7340   24.0660 N.am  374  ILE374     -0.1979
     71  CA        11.1930    1.9620   22.8550 C.3   374  ILE374      0.1595
     72  C         11.0950    0.6770   22.0050 C.2   374  ILE374      0.2287
     73  O         10.9690    0.7460   20.7760 O.2   374  ILE374     -0.2864
     74  CB        12.6770    2.3120   23.2290 C.3   374  ILE374      0.0276
     75  CG1       12.8290    3.7870   23.6550 C.3   374  ILE374      0.0022
     76  CG2       13.6690    1.9760   22.1010 C.3   374  ILE374      0.0022
     77  CD1       14.0150    4.0880   24.5980 C.3   374  ILE374      0.0001
     78  N         12.2390    2.4210   16.2440 N.3   380  PHE380     -0.1241
     79  CA        13.2000    2.8130   17.2770 C.3   380  PHE380      0.1605
     80  C         14.2150    1.7360   17.7260 C.2   380  PHE380      0.2264
     81  O         14.6380    1.7410   18.8860 O.2   380  PHE380     -0.2867
     82  CB        12.4840    3.5020   18.4680 C.3   380  PHE380      0.0534
     83  CG        11.5580    4.6480   18.1090 C.ar  380  PHE380     -0.0203
     84  CD1       12.0050    5.7120   17.3290 C.ar  380  PHE380     -0.0042
     85  CD2       10.2460    4.6710   18.5650 C.ar  380  PHE380     -0.0042
     86  CE1       11.1540    6.7730   17.0060 C.ar  380  PHE380     -0.0003
     87  CE2        9.3950    5.7350   18.2420 C.ar  380  PHE380     -0.0003
     88  CZ         9.8530    6.7730   17.4570 C.ar  380  PHE380     -0.0000
     89  N         17.3020    1.4760   16.2900 N.3   382  TYR382     -0.1227
     90  CA        18.5590    2.2340   16.2600 C.3   382  TYR382      0.1736
     91  C         18.8320    2.8770   17.6400 C.2   382  TYR382      0.2595
     92  O         19.9900    3.0670   18.0040 O.2   382  TYR382     -0.2718
     93  CB        18.5510    3.2920   15.1300 C.3   382  TYR382      0.0548
     94  CG        17.5740    4.4040   15.4170 C.ar  382  TYR382     -0.0200
     95  CD1       17.9270    5.4730   16.2360 C.ar  382  TYR382     -0.0009
     96  CD2       16.2600    4.3330   14.9710 C.ar  382  TYR382     -0.0009
     97  CE1       16.9930    6.4180   16.6310 C.ar  382  TYR382      0.0417
     98  CE2       15.3270    5.3050   15.3190 C.ar  382  TYR382      0.0417
     99  CZ        15.7010    6.3480   16.1450 C.ar  382  TYR382      0.1957
    100  OH        14.7840    7.2960   16.5020 O.3   382  TYR382     -0.2866
    101  N         17.7630    3.1890   18.4060 N.am  383  GLN383     -0.1979
    102  CA        17.8930    3.7640   19.7420 C.3   383  GLN383      0.1601
    103  C         18.5770    2.7900   20.6970 C.2   383  GLN383      0.2287
    104  O         19.4190    3.2050   21.4920 O.2   383  GLN383     -0.2864
    105  CB        16.5450    4.2220   20.2770 C.3   383  GLN383      0.0394
    106  CG        16.3080    5.6930   20.0400 C.3   383  GLN383      0.0908
    107  CD        14.9230    6.1090   20.4390 C.2   383  GLN383      0.2608
    108  OE1       14.5070    5.9970   21.5950 O.2   383  GLN383     -0.2717
    109  NE2       14.1710    6.5820   19.4820 N.am  383  GLN383     -0.0878
    110  N         22.2550    2.6840   19.9090 N.3   386  PHE386     -0.1241
    111  CA        22.8220    3.9150   20.4420 C.3   386  PHE386      0.1605
    112  C         23.0940    3.8570   21.9480 C.2   386  PHE386      0.2264
    113  O         23.7710    4.7330   22.4830 O.2   386  PHE386     -0.2867
    114  CB        21.8850    5.0920   20.0970 C.3   386  PHE386      0.0534
    115  CG        21.8590    5.5290   18.6440 C.ar  386  PHE386     -0.0203
    116  CD1       22.6640    4.9030   17.6910 C.ar  386  PHE386     -0.0042
    117  CD2       21.0480    6.5810   18.2340 C.ar  386  PHE386     -0.0042
    118  CE1       22.6450    5.3130   16.3550 C.ar  386  PHE386     -0.0003
    119  CE2       21.0260    6.9910   16.8940 C.ar  386  PHE386     -0.0003
    120  CZ        21.8370    6.3670   15.9660 C.ar  386  PHE386     -0.0000
    121  N         23.4360    9.9600    5.9240 N.3   407  LEU407     -0.1245
    122  CA        22.3610   10.4760    6.7600 C.3   407  LEU407      0.1561
    123  C         21.5730   11.6080    6.1290 C.2   407  LEU407      0.2260
    124  O         20.3400   11.6030    6.1920 O.2   407  LEU407     -0.2867
    125  CB        22.9410   10.9640    8.0820 C.3   407  LEU407      0.0270
    126  CG        23.3850    9.9140    9.0880 C.3   407  LEU407      0.0019
    127  CD1       24.2050   10.5680   10.1950 C.3   407  LEU407      0.0001
    128  CD2       22.1930    9.1610    9.6590 C.3   407  LEU407      0.0001
    129  N         24.4030    0.7170   11.4250 N.3   427  LEU427     -0.1245
    130  CA        23.5960    1.6490   10.6340 C.3   427  LEU427      0.1561
    131  C         24.0090    1.7140    9.1560 C.2   427  LEU427      0.2260
    132  O         23.2030    2.1420    8.3260 O.2   427  LEU427     -0.2867
    133  CB        23.7300    3.0700   11.2450 C.3   427  LEU427      0.0270
    134  CG        22.5130    3.7220   11.9200 C.3   427  LEU427      0.0019
    135  CD1       21.4150    4.0320   10.9320 C.3   427  LEU427      0.0001
    136  CD2       22.0140    2.9200   13.0980 C.3   427  LEU427      0.0001
    137  N         20.6860   10.2370   23.7660 N.3   465  TYR465     -0.1241
    138  CA        19.8850    8.9980   23.7360 C.3   465  TYR465      0.1605
    139  C         20.1250    8.1280   24.9730 C.2   465  TYR465      0.2264
    140  O         19.4140    7.1410   25.1480 O.2   465  TYR465     -0.2867
    141  CB        20.2610    8.1410   22.5100 C.3   465  TYR465      0.0534
    142  CG        19.9460    8.7510   21.1660 C.ar  465  TYR465     -0.0201
    143  CD1       20.8700    9.5610   20.5110 C.ar  465  TYR465     -0.0009
    144  CD2       18.7370    8.4930   20.5300 C.ar  465  TYR465     -0.0009
    145  CE1       20.5900   10.1120   19.2620 C.ar  465  TYR465      0.0417
    146  CE2       18.4490    9.0270   19.2750 C.ar  465  TYR465      0.0417
    147  CZ        19.3820    9.8260   18.6410 C.ar  465  TYR465      0.1957
    148  OH        19.0990   10.3610   17.4140 O.3   465  TYR465     -0.2866
    149  N         17.4250    8.0320   28.9250 N.3   468  MET468     -0.1245
    150  CA        16.0170    7.6210   28.8790 C.3   468  MET468      0.1570
    151  C         15.3150    7.5940   30.2390 C.2   468  MET468      0.2261
    152  O         14.3440    8.3240   30.4230 O.2   468  MET468     -0.2867
    153  CB        15.8050    6.3090   28.1020 C.3   468  MET468      0.0387
    154  CG        16.2530    6.3530   26.6250 C.3   468  MET468      0.0595
    155  SD        15.5780    7.7210   25.6240 S.3   468  MET468     -0.1393
    156  CE        16.2760    7.3090   23.9780 C.3   468  MET468      0.0692
    157  N         10.7570    8.5790   11.0730 N.3   497  VAL497     -0.1231
    158  CA        11.1950    8.3450   12.4550 C.3   497  VAL497      0.1692
    159  C         10.2570    9.1730   13.3470 C.2   497  VAL497      0.2591
    160  O          9.6890    8.6400   14.2990 O.2   497  VAL497     -0.2718
    161  CB        12.6890    8.7320   12.6810 C.3   497  VAL497      0.0266
    162  CG1       13.0740    8.6100   14.1580 C.3   497  VAL497      0.0020
    163  CG2       13.6180    7.8940   11.8030 C.3   497  VAL497      0.0020
    164  N         10.1190   10.4860   13.0190 N.am  498  LEU498     -0.1980
    165  CA         9.2610   11.4800   13.6750 C.3   498  LEU498      0.1596
    166  C          8.0910   11.7070   12.7200 C.2   498  LEU498      0.2287
    167  O          8.0180   12.7150   12.0060 O.2   498  LEU498     -0.2864
    168  CB        10.0340   12.7990   13.9730 C.3   498  LEU498      0.0297
    169  CG        11.3370   12.6850   14.7830 C.3   498  LEU498      0.0022
    170  CD1       12.0730   14.0010   14.8380 C.3   498  LEU498      0.0001
    171  CD2       11.0800   12.1760   16.1980 C.3   498  LEU498      0.0001
    172  N          2.4000   10.7380   15.0510 N.3   502  MET502     -0.1245
    173  CA         2.8990   10.7790   16.4360 C.3   502  MET502      0.1570
    174  C          2.4510   12.0550   17.1980 C.2   502  MET502      0.2261
    175  O          2.3690   12.0410   18.4310 O.2   502  MET502     -0.2867
    176  CB         4.4340   10.6630   16.4700 C.3   502  MET502      0.0387
    177  CG         4.9710    9.2530   16.2030 C.3   502  MET502      0.0595
    178  SD         6.7970    9.1110   16.2900 S.3   502  MET502     -0.1393
    179  CE         7.0980    9.4540   18.0960 C.3   502  MET502      0.0692
    180  N         13.1070   13.9520    7.0530 N.3   523  HIS523     -0.1226
    181  CA        13.5650   14.2960    8.4000 C.3   523  HIS523      0.1752
    182  C         14.3770   15.5890    8.5480 C.2   523  HIS523      0.2596
    183  O         14.3400   16.1940    9.6160 O.2   523  HIS523     -0.2718
    184  CB        14.3580   13.1340    9.0070 C.3   523  HIS523      0.0759
    185  CG        14.8960   13.4610   10.3580 C.ar  523  HIS523      0.0818
    186  ND1       14.0830   13.4440   11.4760 N.ar  523  HIS523     -0.2268
    187  CD2       16.1390   13.8560   10.7180 C.ar  523  HIS523      0.1154
    188  CE1       14.8500   13.8390   12.4710 C.ar  523  HIS523      0.1986
    189  NE2       16.0970   14.1080   12.0590 N.ar  523  HIS523     -0.2212
    190  N         15.1440   15.9770    7.5230 N.am  524  TRP524     -0.1976
    191  CA        16.0500   17.1280    7.5840 C.3   524  TRP524      0.1640
    192  C         15.3580   18.3560    7.0780 C.2   524  TRP524      0.2290
    193  O         15.8320   19.0080    6.1500 O.2   524  TRP524     -0.2864
    194  CB        17.3710   16.8190    6.8540 C.3   524  TRP524      0.0576
    195  CG        17.8450   15.4110    7.1230 C.ar  524  TRP524      0.0006
    196  CD1       17.5860   14.3090    6.3620 C.ar  524  TRP524      0.0946
    197  CD2       18.4930   14.9310    8.3130 C.ar  524  TRP524      0.0152
    198  NE1       18.0750   13.1820    6.9760 N.ar  524  TRP524     -0.2442
    199  CE2       18.6540   13.5330    8.1660 C.ar  524  TRP524      0.0810
    200  CE3       18.9890   15.5480    9.4750 C.ar  524  TRP524      0.0012
    201  CZ2       19.2980   12.7470    9.1290 C.ar  524  TRP524      0.0191
    202  CZ3       19.6200   14.7670   10.4300 C.ar  524  TRP524      0.0001
    203  CH2       19.7480   13.3800   10.2670 C.ar  524  TRP524      0.0015
@<TRIPOS>BOND
     1   121   122    1
     2   123   124    2
     3   123   122    1
     4   193   192    2
     5   196   198   ar
     6   196   195   ar
     7   122   125    1
     8   194   195    1
     9   194   191    1
    10   198   199   ar
    11   180   181    1
    12   192   191    1
    13   195   197   ar
    14   190   191    1
    15   190   182   am
    16   125   126    1
    17   199   197   ar
    18   199   201   ar
    19   197   200   ar
    20   132   131    2
    21   181   182    1
    22   181   184    1
    23   182   183    2
    24   184   185    1
    25   126   128    1
    26   126   127    1
    27   201   203   ar
    28   131   130    1
    29   200   202   ar
    30   203   202   ar
    31   185   187   ar
    32   185   186   ar
    33   130   133    1
    34   130   129    1
    35   187   189   ar
    36   135   134    1
    37   157   158    1
    38   133   134    1
    39   186   188   ar
    40   163   161    1
    41   134   136    1
    42   167   166    2
    43   189   188   ar
    44   158   161    1
    45   158   159    1
    46    15    14    2
    47   161   162    1
    48   166   165    1
    49    18    17    1
    50    18    12    1
    51    17    16    1
    52   164   159   am
    53   164   165    1
    54   159   160    2
    55   165   168    1
    56    14    13    1
    57   168   169    1
    58    12    13    1
    59    12     3   am
    60     4     3    2
    61    16    13    1
    62     3     2    1
    63   169   170    1
    64   169   171    1
    65    96    98   ar
    66    96    94   ar
    67   172   173    1
    68    93    94    1
    69    93    90    1
    70    98    99   ar
    71    25    24   ar
    72    94    95   ar
    73    23    24    1
    74    23    20    1
    75     9     7   ar
    76     9    11   ar
    77    24    26   ar
    78     7     6   ar
    79    19    20    1
    80   120   118   ar
    81   120   119   ar
    82     2     1    1
    83     2     5    1
    84    99   100    1
    85    99    97   ar
    86   177   178    1
    87   177   176    1
    88    95    97   ar
    89    78    79    1
    90    90    89    1
    91    90    91    1
    92   178   179    1
    93   118   116   ar
    94    20    21    1
    95   173   176    1
    96   173   174    1
    97    11    10   ar
    98     6     5    1
    99     6     8   ar
   100   119   117   ar
   101    86    84   ar
   102    86    88   ar
   103   174   175    2
   104    79    80    1
   105    79    82    1
   106    84    83   ar
   107    10     8   ar
   108   148   147    1
   109    88    87   ar
   110    91    92    2
   111    91   101   am
   112   116   115   ar
   113    80    81    2
   114    55    49    1
   115    55    54    1
   116    21    27   am
   117    21    22    2
   118    83    82    1
   119    83    85   ar
   120    49    50    1
   121   117   115   ar
   122    87    85   ar
   123    27    28    1
   124   101   102    1
   125    54    53    1
   126    53    50    1
   127   147   145   ar
   128   147   146   ar
   129   115   114    1
   130    50    51    1
   131   145   143   ar
   132   146   144   ar
   133   109   107   am
   134    33    35   ar
   135    33    32   ar
   136   102   105    1
   137   102   103    1
   138    28    31    1
   139    28    29    1
   140   110   111    1
   141   106   105    1
   142   106   107    1
   143   114   111    1
   144    31    32    1
   145    35    36   ar
   146    29    30    2
   147    51    52    2
   148   107   108    2
   149   111   112    1
   150    32    34   ar
   151   143   142   ar
   152   144   142   ar
   153   103   104    2
   154    73    72    2
   155    63    61    1
   156   142   141    1
   157    41    42    1
   158    36    34   ar
   159    36    38   ar
   160    34    37   ar
   161    61    60    1
   162   112   113    2
   163    72    71    1
   164    48    47    1
   165    76    74    1
   166    38    40   ar
   167    42    45    1
   168    42    43    1
   169   141   138    1
   170    45    46    1
   171    37    39   ar
   172    71    74    1
   173    71    70    1
   174    67    66    2
   175    74    75    1
   176    60    62    1
   177    60    57    1
   178    47    46    1
   179    56    57    1
   180    40    39   ar
   181    43    44    2
   182    75    77    1
   183   138   137    1
   184   138   139    1
   185   156   155    1
   186    70    66   am
   187    66    65    1
   188    57    58    1
   189   139   140    2
   190    65    68    1
   191    65    64    1
   192    58    59    2
   193   155   154    1
   194    68    69    1
   195   154   153    1
   196   153   150    1
   197   150   149    1
   198   150   151    1
   199   151   152    2
