@<TRIPOS>MOLECULE
tmp/5algA00.pdb
 242 239 0 0 0
SMALL
GASTEIGER

@<TRIPOS>ATOM
      1  N        -20.0330  -15.6430   16.4270 N.3   266  PHE266     -0.1228
      2  CA       -21.0980  -14.6550   16.2990 C.3   266  PHE266      0.1721
      3  C        -21.2290  -14.1330   14.8620 C.2   266  PHE266      0.2437
      4  O        -20.2200  -13.7030   14.2980 O.2   266  PHE266     -0.2733
      5  CB       -20.8110  -13.4690   17.2580 C.3   266  PHE266      0.0547
      6  CG       -21.7880  -12.3150   17.1580 C.ar  266  PHE266     -0.0202
      7  CD1      -21.5690  -11.2680   16.2690 C.ar  266  PHE266     -0.0042
      8  CD2      -22.9200  -12.2700   17.9590 C.ar  266  PHE266     -0.0042
      9  CE1      -22.4770  -10.2060   16.1770 C.ar  266  PHE266     -0.0003
     10  CE2      -23.8320  -11.2190   17.8530 C.ar  266  PHE266     -0.0003
     11  CZ       -23.6130  -10.2040   16.9520 C.ar  266  PHE266     -0.0000
     12  N        -22.4320  -14.0650   14.2530 N.am  267  PRO267     -0.2729
     13  CA       -23.7740  -14.5110   14.6910 C.3   267  PRO267      0.1401
     14  C        -24.0820  -15.8040   13.9410 C.2   267  PRO267      0.2269
     15  O        -24.6300  -15.7840   12.8340 O.2   267  PRO267     -0.2865
     16  CB       -24.6670  -13.3630   14.1890 C.3   267  PRO267      0.0296
     17  CG       -23.8490  -12.6910   13.0180 C.3   267  PRO267      0.0237
     18  CD       -22.5340  -13.4450   12.9220 C.3   267  PRO267      0.0939
     19  N        -14.1420  -17.9880   16.0420 N.3   334  ASP334     -0.1225
     20  CA       -14.5750  -16.6710   16.5200 C.3   334  ASP334      0.1805
     21  C        -14.8600  -16.7250   18.0420 C.2   334  ASP334      0.2597
     22  O        -13.9650  -17.1190   18.7740 O.2   334  ASP334     -0.2718
     23  CB       -15.7600  -16.1880   15.6560 C.3   334  ASP334      0.1424
     24  CG       -16.1970  -14.7670   15.9220 C.2   334  ASP334      0.3668
     25  OD1      -15.5080  -13.8440   15.4540 O.co2 334  ASP334     -0.2456
     26  OD2      -17.2260  -14.5810   16.6110 O.co2 334  ASP334     -0.2456
     27  N        -16.0810  -16.4060   18.5150 N.am  335  TRP335     -0.1976
     28  CA       -16.4380  -16.4820   19.9380 C.3   335  TRP335      0.1640
     29  C        -16.2930  -17.8800   20.5330 C.2   335  TRP335      0.2290
     30  O        -15.9380  -17.9860   21.7030 O.2   335  TRP335     -0.2864
     31  CB       -17.8440  -15.9310   20.2000 C.3   335  TRP335      0.0576
     32  CG       -17.8590  -14.4940   20.6310 C.ar  335  TRP335      0.0006
     33  CD1      -18.4600  -13.4560   19.9860 C.ar  335  TRP335      0.0946
     34  CD2      -17.2460  -13.9400   21.8060 C.ar  335  TRP335      0.0152
     35  NE1      -18.2850  -12.2920   20.6990 N.ar  335  TRP335     -0.2442
     36  CE2      -17.5350  -12.5590   21.8160 C.ar  335  TRP335      0.0810
     37  CE3      -16.4830  -14.4760   22.8540 C.ar  335  TRP335      0.0012
     38  CZ2      -17.1050  -11.7120   22.8450 C.ar  335  TRP335      0.0191
     39  CZ3      -16.0460  -13.6330   23.8640 C.ar  335  TRP335      0.0001
     40  CH2      -16.3800  -12.2750   23.8680 C.ar  335  TRP335      0.0015
     41  N        -12.7340  -18.3740   21.4410 N.3   338  MET338     -0.1245
     42  CA       -12.4300  -17.8080   22.7520 C.3   338  MET338      0.1570
     43  C        -12.8230  -18.7670   23.8570 C.2   338  MET338      0.2261
     44  O        -12.0070  -19.0140   24.7430 O.2   338  MET338     -0.2867
     45  CB       -13.0700  -16.4320   22.9710 C.3   338  MET338      0.0387
     46  CG       -12.4370  -15.6780   24.1300 C.3   338  MET338      0.0595
     47  SD       -10.9750  -14.7150   23.6430 S.3   338  MET338     -0.1393
     48  CE        -9.6970  -15.9480   23.6740 C.3   338  MET338      0.0692
     49  N         -9.4840  -17.0570   15.9360 N.3   359  THR359     -0.1204
     50  CA        -9.3810  -16.4900   17.2840 C.3   359  THR359      0.1979
     51  C         -8.0630  -16.8210   17.9370 C.2   359  THR359      0.2459
     52  O         -7.8340  -17.9890   18.2520 O.2   359  THR359     -0.2732
     53  CB       -10.5380  -16.9410   18.1990 C.3   359  THR359      0.1783
     54  OG1      -11.7510  -16.9210   17.4660 O.3   359  THR359     -0.2211
     55  CG2      -10.6630  -16.0760   19.4630 C.3   359  THR359      0.0376
     56  N         -7.2100  -15.8120   18.2190 N.am  360  PRO360     -0.2728
     57  CA        -5.9560  -16.1080   18.9200 C.3   360  PRO360      0.1401
     58  C         -6.1740  -16.2130   20.4370 C.2   360  PRO360      0.2269
     59  O         -7.2360  -15.8460   20.9440 O.2   360  PRO360     -0.2865
     60  CB        -5.1020  -14.8800   18.5920 C.3   360  PRO360      0.0296
     61  CG        -6.1020  -13.7510   18.5180 C.3   360  PRO360      0.0237
     62  CD        -7.3520  -14.3590   17.9480 C.3   360  PRO360      0.0939
     63  N         -4.9540  -14.4080   23.5830 N.3   362  ILE362     -0.1245
     64  CA        -4.2520  -13.2360   24.1300 C.3   362  ILE362      0.1561
     65  C         -4.6070  -13.1400   25.6260 C.2   362  ILE362      0.2260
     66  O         -5.7860  -12.9460   25.9490 O.2   362  ILE362     -0.2867
     67  CB        -4.5660  -11.9070   23.3500 C.3   362  ILE362      0.0252
     68  CG1       -4.1590  -12.0080   21.8670 C.3   362  ILE362      0.0019
     69  CG2       -3.8980  -10.6810   24.0150 C.3   362  ILE362      0.0019
     70  CD1       -5.0720  -11.2330   20.9370 C.3   362  ILE362      0.0001
     71  N        -11.9440   -2.7350   16.7220 N.3   380  PHE380     -0.1241
     72  CA       -12.9730   -3.2520   17.6260 C.3   380  PHE380      0.1605
     73  C        -14.0470   -2.2240   18.0160 C.2   380  PHE380      0.2264
     74  O        -14.8230   -2.4840   18.9350 O.2   380  PHE380     -0.2867
     75  CB       -12.3180   -3.8470   18.8940 C.3   380  PHE380      0.0534
     76  CG       -11.2020   -4.8520   18.6820 C.ar  380  PHE380     -0.0203
     77  CD1      -11.3350   -5.8820   17.7550 C.ar  380  PHE380     -0.0042
     78  CD2      -10.0480   -4.8050   19.4550 C.ar  380  PHE380     -0.0042
     79  CE1      -10.3100   -6.8110   17.5650 C.ar  380  PHE380     -0.0003
     80  CE2       -9.0280   -5.7440   19.2740 C.ar  380  PHE380     -0.0003
     81  CZ        -9.1640   -6.7390   18.3290 C.ar  380  PHE380     -0.0000
     82  N        -16.8980   -1.4170   16.6660 N.3   382  TYR382     -0.1227
     83  CA       -18.2340   -2.0160   16.5600 C.3   382  TYR382      0.1736
     84  C        -18.6650   -2.6750   17.8810 C.2   382  TYR382      0.2595
     85  O        -19.8580   -2.7510   18.1600 O.2   382  TYR382     -0.2718
     86  CB       -18.2960   -3.0270   15.3940 C.3   382  TYR382      0.0548
     87  CG       -17.4440   -4.2600   15.6050 C.ar  382  TYR382     -0.0200
     88  CD1      -16.1220   -4.3000   15.1740 C.ar  382  TYR382     -0.0009
     89  CD2      -17.9660   -5.3980   16.2180 C.ar  382  TYR382     -0.0009
     90  CE1      -15.3280   -5.4250   15.3860 C.ar  382  TYR382      0.0417
     91  CE2      -17.1830   -6.5280   16.4310 C.ar  382  TYR382      0.0417
     92  CZ       -15.8600   -6.5310   16.0260 C.ar  382  TYR382      0.1957
     93  OH       -15.0740   -7.6320   16.2490 O.3   382  TYR382     -0.2866
     94  N        -17.6980   -3.1520   18.6840 N.am  383  GLN383     -0.1979
     95  CA       -17.9570   -3.7710   19.9830 C.3   383  GLN383      0.1601
     96  C        -18.5270   -2.7860   21.0050 C.2   383  GLN383      0.2287
     97  O        -19.2850   -3.2080   21.8760 O.2   383  GLN383     -0.2864
     98  CB       -16.7270   -4.5080   20.5130 C.3   383  GLN383      0.0394
     99  CG       -16.4320   -5.7560   19.6970 C.3   383  GLN383      0.0908
    100  CD       -15.1430   -6.4510   20.0270 C.2   383  GLN383      0.2608
    101  OE1      -14.8510   -6.7840   21.1740 O.2   383  GLN383     -0.2717
    102  NE2      -14.4040   -6.8030   18.9990 N.am  383  GLN383     -0.0878
    103  N        -22.1850   -2.4770   20.3720 N.3   386  PHE386     -0.1241
    104  CA       -22.8150   -3.6950   20.8290 C.3   386  PHE386      0.1605
    105  C        -23.1000   -3.6590   22.3200 C.2   386  PHE386      0.2264
    106  O        -23.8610   -4.4960   22.8080 O.2   386  PHE386     -0.2867
    107  CB       -21.8770   -4.8870   20.5150 C.3   386  PHE386      0.0534
    108  CG       -21.8120   -5.3860   19.0850 C.ar  386  PHE386     -0.0203
    109  CD1      -22.6170   -4.8270   18.0910 C.ar  386  PHE386     -0.0042
    110  CD2      -20.9680   -6.4370   18.7380 C.ar  386  PHE386     -0.0042
    111  CE1      -22.5750   -5.3110   16.7760 C.ar  386  PHE386     -0.0003
    112  CE2      -20.9230   -6.9180   17.4210 C.ar  386  PHE386     -0.0003
    113  CZ       -21.7270   -6.3550   16.4500 C.ar  386  PHE386     -0.0000
    114  N        -29.9790   -5.2990   13.6860 N.3   396  LEU396     -0.1245
    115  CA       -29.6590   -6.6320   13.1820 C.3   396  LEU396      0.1561
    116  C        -30.8870   -7.4950   12.9410 C.2   396  LEU396      0.2260
    117  O        -30.8930   -8.2840   11.9910 O.2   396  LEU396     -0.2867
    118  CB       -28.6250   -7.3450   14.0900 C.3   396  LEU396      0.0270
    119  CG       -27.1960   -6.7530   14.1010 C.3   396  LEU396      0.0019
    120  CD1      -26.4020   -7.2540   15.2770 C.3   396  LEU396      0.0001
    121  CD2      -26.4490   -7.0320   12.7940 C.3   396  LEU396      0.0001
    122  N        -23.2910   -9.7690    5.9990 N.3   407  LEU407     -0.1245
    123  CA       -22.2020  -10.3130    6.7980 C.3   407  LEU407      0.1561
    124  C        -21.4250  -11.4320    6.1590 C.2   407  LEU407      0.2260
    125  O        -20.2050  -11.3650    6.1270 O.2   407  LEU407     -0.2867
    126  CB       -22.7160  -10.7640    8.1580 C.3   407  LEU407      0.0270
    127  CG       -23.1550   -9.7010    9.1290 C.3   407  LEU407      0.0019
    128  CD1      -23.8260  -10.3450   10.2810 C.3   407  LEU407      0.0001
    129  CD2      -21.9800   -8.8800    9.6180 C.3   407  LEU407      0.0001
    130  N        -19.9320   -3.8460    4.0070 N.3   416  LEU416     -0.1245
    131  CA       -20.0900   -3.1220    5.2690 C.3   416  LEU416      0.1561
    132  C        -18.8700   -2.3160    5.6980 C.2   416  LEU416      0.2260
    133  O        -17.7340   -2.6770    5.3870 O.2   416  LEU416     -0.2867
    134  CB       -20.4620   -4.1050    6.3970 C.3   416  LEU416      0.0270
    135  CG       -21.8300   -4.7590    6.3250 C.3   416  LEU416      0.0019
    136  CD1      -21.8390   -6.0430    7.1020 C.3   416  LEU416      0.0001
    137  CD2      -22.8940   -3.8510    6.8760 C.3   416  LEU416      0.0001
    138  N        -17.1350   -1.3520    9.0750 N.3   418  MET418     -0.1245
    139  CA       -16.9880   -1.7120   10.4950 C.3   418  MET418      0.1570
    140  C        -16.1270   -0.6940   11.2400 C.2   418  MET418      0.2261
    141  O        -16.0190   -0.7480   12.4700 O.2   418  MET418     -0.2867
    142  CB       -16.4170   -3.1260   10.6640 C.3   418  MET418      0.0387
    143  CG       -17.3430   -4.2230   10.1850 C.3   418  MET418      0.0595
    144  SD       -16.5750   -5.8540   10.3130 S.3   418  MET418     -0.1393
    145  CE       -15.2870   -5.7370    9.0590 C.3   418  MET418      0.0692
    146  N        -24.5900    0.0570   11.9940 N.3   427  LEU427     -0.1231
    147  CA       -23.7880   -0.9830   11.3700 C.3   427  LEU427      0.1693
    148  C        -24.0190   -1.0400    9.8570 C.2   427  LEU427      0.2592
    149  O        -23.0830   -1.3460    9.1150 O.2   427  LEU427     -0.2718
    150  CB       -24.1450   -2.3450   12.0060 C.3   427  LEU427      0.0284
    151  CG       -23.0070   -3.2470   12.5320 C.3   427  LEU427      0.0019
    152  CD1      -21.9670   -3.5850   11.4530 C.3   427  LEU427      0.0001
    153  CD2      -22.3790   -2.7020   13.7920 C.3   427  LEU427      0.0001
    154  N        -25.2660   -0.7510    9.4060 N.am  428  PHE428     -0.1976
    155  CA       -25.6970   -0.8050    7.9980 C.3   428  PHE428      0.1639
    156  C        -25.8720    0.5520    7.2720 C.2   428  PHE428      0.2290
    157  O        -26.5450    0.5710    6.2360 O.2   428  PHE428     -0.2864
    158  CB       -27.0070   -1.6140    7.8600 C.3   428  PHE428      0.0560
    159  CG       -27.0120   -3.0210    8.3970 C.ar  428  PHE428     -0.0200
    160  CD1      -26.1980   -3.9980    7.8420 C.ar  428  PHE428     -0.0042
    161  CD2      -27.8690   -3.3830    9.4260 C.ar  428  PHE428     -0.0042
    162  CE1      -26.1950   -5.2980    8.3500 C.ar  428  PHE428     -0.0003
    163  CE2      -27.8840   -4.6890    9.9170 C.ar  428  PHE428     -0.0003
    164  CZ       -27.0470   -5.6360    9.3760 C.ar  428  PHE428     -0.0000
    165  N        -20.7030  -10.3240   24.0560 N.3   465  TYR465     -0.1241
    166  CA       -19.8400   -9.1180   24.0840 C.3   465  TYR465      0.1605
    167  C        -20.1170   -8.2030   25.2940 C.2   465  TYR465      0.2264
    168  O        -19.4520   -7.1780   25.4470 O.2   465  TYR465     -0.2867
    169  CB       -20.1320   -8.2390   22.8690 C.3   465  TYR465      0.0534
    170  CG       -19.7980   -8.8300   21.5260 C.ar  465  TYR465     -0.0201
    171  CD1      -18.5560   -8.6000   20.9310 C.ar  465  TYR465     -0.0009
    172  CD2      -20.7710   -9.4830   20.7720 C.ar  465  TYR465     -0.0009
    173  CE1      -18.2740   -9.0660   19.6490 C.ar  465  TYR465      0.0417
    174  CE2      -20.4970   -9.9580   19.4940 C.ar  465  TYR465      0.0417
    175  CZ       -19.2490   -9.7460   18.9370 C.ar  465  TYR465      0.1957
    176  OH       -18.9880  -10.2190   17.6850 O.3   465  TYR465     -0.2866
    177  N         -8.6430  -12.1390    7.1790 N.3   495  ASP495     -0.1225
    178  CA        -9.5850  -11.8300    8.2510 C.3   495  ASP495      0.1805
    179  C         -9.1090  -10.4700    8.7260 C.2   495  ASP495      0.2598
    180  O         -8.0010  -10.3600    9.2580 O.2   495  ASP495     -0.2718
    181  CB        -9.5610  -12.8620    9.4080 C.3   495  ASP495      0.1424
    182  CG       -10.6650  -12.6820   10.4610 C.2   495  ASP495      0.3668
    183  OD1      -11.0440  -11.5250   10.7390 O.co2 495  ASP495     -0.2456
    184  OD2      -11.1070  -13.7000   11.0440 O.co2 495  ASP495     -0.2456
    185  N         -9.9200   -9.4340    8.4910 N.am  496  PHE496     -0.1962
    186  CA        -9.5260   -8.0780    8.8160 C.3   496  PHE496      0.1771
    187  C         -9.7600   -7.5980   10.2510 C.2   496  PHE496      0.2619
    188  O         -9.3380   -6.4830   10.5910 O.2   496  PHE496     -0.2715
    189  CB        -9.9050   -7.0830    7.6950 C.3   496  PHE496      0.0574
    190  CG        -9.2790   -7.4560    6.3590 C.ar  496  PHE496     -0.0200
    191  CD1       -7.9030   -7.6550    6.2410 C.ar  496  PHE496     -0.0042
    192  CD2      -10.0680   -7.6520    5.2320 C.ar  496  PHE496     -0.0042
    193  CE1       -7.3310   -8.0300    5.0180 C.ar  496  PHE496     -0.0003
    194  CE2       -9.4910   -8.0130    4.0030 C.ar  496  PHE496     -0.0003
    195  CZ        -8.1300   -8.2130    3.9100 C.ar  496  PHE496     -0.0000
    196  N        -10.3420   -8.4650   11.1140 N.am  497  VAL497     -0.1963
    197  CA       -10.5240   -8.1670   12.5530 C.3   497  VAL497      0.1727
    198  C         -9.6310   -9.0990   13.3780 C.2   497  VAL497      0.2616
    199  O         -8.8750   -8.6280   14.2290 O.2   497  VAL497     -0.2715
    200  CB       -11.9980   -8.1470   13.0340 C.3   497  VAL497      0.0290
    201  CG1      -12.1040   -7.9520   14.5480 C.3   497  VAL497      0.0023
    202  CG2      -12.7950   -7.0750   12.3020 C.3   497  VAL497      0.0023
    203  N         -9.6930  -10.4080   13.0890 N.am  498  LEU498     -0.1977
    204  CA        -8.8760  -11.4260   13.7370 C.3   498  LEU498      0.1596
    205  C         -7.7140  -11.7210   12.7970 C.2   498  LEU498      0.2287
    206  O         -7.6420  -12.7980   12.2030 O.2   498  LEU498     -0.2864
    207  CB        -9.7020  -12.7090   14.0480 C.3   498  LEU498      0.0297
    208  CG       -10.9820  -12.5630   14.8830 C.3   498  LEU498      0.0022
    209  CD1      -11.6980  -13.8800   14.9810 C.3   498  LEU498      0.0001
    210  CD2      -10.7050  -12.0170   16.2750 C.3   498  LEU498      0.0001
    211  N         -2.1820  -11.1710   15.2470 N.3   502  MET502     -0.1245
    212  CA        -2.6790  -11.1930   16.6210 C.3   502  MET502      0.1570
    213  C         -2.3120  -12.4880   17.3650 C.2   502  MET502      0.2261
    214  O         -2.3200  -12.4990   18.5930 O.2   502  MET502     -0.2867
    215  CB        -4.1880  -10.9650   16.6300 C.3   502  MET502      0.0387
    216  CG        -4.5670   -9.5090   16.5220 C.3   502  MET502      0.0595
    217  SD        -6.3440   -9.2490   16.3070 S.3   502  MET502     -0.1393
    218  CE        -6.9490   -9.7000   17.9780 C.3   502  MET502      0.0692
    219  N        -13.0020  -14.0330    7.2400 N.3   523  HIS523     -0.1226
    220  CA       -13.4080  -14.3400    8.6100 C.3   523  HIS523      0.1752
    221  C        -14.2140  -15.6370    8.7380 C.2   523  HIS523      0.2596
    222  O        -14.0260  -16.3750    9.6990 O.2   523  HIS523     -0.2718
    223  CB       -14.1920  -13.1700    9.2000 C.3   523  HIS523      0.0759
    224  CG       -14.8230  -13.4910   10.5140 C.ar  523  HIS523      0.0818
    225  ND1      -14.0660  -13.6120   11.6600 N.ar  523  HIS523     -0.2268
    226  CD2      -16.1190  -13.7530   10.8090 C.ar  523  HIS523      0.1154
    227  CE1      -14.9240  -13.9390   12.6130 C.ar  523  HIS523      0.1986
    228  NE2      -16.1730  -14.0240   12.1440 N.ar  523  HIS523     -0.2212
    229  N        -15.1260  -15.8960    7.7880 N.am  524  TRP524     -0.1976
    230  CA       -16.0150  -17.0620    7.7570 C.3   524  TRP524      0.1640
    231  C        -15.2660  -18.2590    7.2430 C.2   524  TRP524      0.2290
    232  O        -15.6920  -18.8740    6.2690 O.2   524  TRP524     -0.2864
    233  CB       -17.2510  -16.7560    6.8980 C.3   524  TRP524      0.0576
    234  CG       -17.7620  -15.3670    7.1370 C.ar  524  TRP524      0.0006
    235  CD1      -17.5440  -14.2700    6.3510 C.ar  524  TRP524      0.0946
    236  CD2      -18.3920  -14.8830    8.3360 C.ar  524  TRP524      0.0152
    237  NE1      -18.0330  -13.1430    6.9630 N.ar  524  TRP524     -0.2442
    238  CE2      -18.5730  -13.4890    8.1790 C.ar  524  TRP524      0.0810
    239  CE3      -18.8350  -15.4950    9.5240 C.ar  524  TRP524      0.0012
    240  CZ2      -19.1940  -12.6970    9.1620 C.ar  524  TRP524      0.0191
    241  CZ3      -19.4420  -14.7070   10.4960 C.ar  524  TRP524      0.0001
    242  CH2      -19.6280  -13.3290   10.3050 C.ar  524  TRP524      0.0015
@<TRIPOS>BOND
     1   195   194   ar
     2   195   193   ar
     3   194   192   ar
     4   130   131    1
     5   193   191   ar
     6   192   190   ar
     7   131   132    1
     8   131   134    1
     9   133   132    2
    10   122   123    1
    11   125   124    2
    12   124   123    1
    13   157   156    2
    14   191   190   ar
    15   232   231    2
    16   135   134    1
    17   135   137    1
    18   135   136    1
    19   235   237   ar
    20   235   234   ar
    21   190   189    1
    22   123   126    1
    23   233   234    1
    24   233   230    1
    25   237   238   ar
    26   234   236   ar
    27   177   178    1
    28   219   220    1
    29   231   230    1
    30   156   155    1
    31   189   186    1
    32   230   229    1
    33   229   221   am
    34   160   162   ar
    35   160   159   ar
    36   158   155    1
    37   158   159    1
    38   155   154    1
    39   126   127    1
    40   238   236   ar
    41   238   240   ar
    42   178   179    1
    43   178   181    1
    44   236   239   ar
    45   162   164   ar
    46   159   161   ar
    47   185   179   am
    48   185   186    1
    49   220   221    1
    50   220   223    1
    51   179   180    2
    52   221   222    2
    53   186   187    1
    54   145   144    1
    55   138   139    1
    56   149   148    2
    57   127   129    1
    58   127   128    1
    59   240   242   ar
    60   223   224    1
    61   164   163   ar
    62   154   148   am
    63   181   182    1
    64   161   163   ar
    65   239   241   ar
    66   148   147    1
    67   143   144    1
    68   143   142    1
    69   187   188    2
    70   187   196   am
    71   242   241   ar
    72   182   183   ar
    73   182   184   ar
    74   139   142    1
    75   139   140    1
    76   224   226   ar
    77   224   225   ar
    78   226   228   ar
    79   196   197    1
    80   140   141    2
    81   147   146    1
    82   147   150    1
    83   152   151    1
    84   225   227   ar
    85   117   116    2
    86   150   151    1
    87   228   227   ar
    88   206   205    2
    89   202   200    1
    90   151   153    1
    91   197   200    1
    92   197   198    1
    93   121   119    1
    94   205   204    1
    95    15    14    2
    96    18    17    1
    97    18    12    1
    98   116   115    1
    99    17    16    1
   100   200   201    1
   101   203   198   am
   102   203   204    1
   103   115   114    1
   104   115   118    1
   105   198   199    2
   106   204   207    1
   107    14    13    1
   108   207   208    1
   109   118   119    1
   110   119   120    1
   111    16    13    1
   112    12    13    1
   113    12     3   am
   114     4     3    2
   115     3     2    1
   116   208   209    1
   117   208   210    1
   118    88    90   ar
   119    88    87   ar
   120   211   212    1
   121    90    92   ar
   122    86    87    1
   123    86    83    1
   124    25    24   ar
   125    87    89   ar
   126    23    24    1
   127    23    20    1
   128    24    26   ar
   129    49    50    1
   130    92    93    1
   131    92    91   ar
   132    19    20    1
   133     9     7   ar
   134     9    11   ar
   135    89    91   ar
   136     7     6   ar
   137     2     1    1
   138     2     5    1
   139   217   216    1
   140   217   218    1
   141   113   111   ar
   142   113   112   ar
   143    20    21    1
   144   216   215    1
   145    83    82    1
   146    83    84    1
   147   212   215    1
   148   212   213    1
   149    71    72    1
   150   111   109   ar
   151    11    10   ar
   152     6     5    1
   153     6     8   ar
   154    50    51    1
   155    50    53    1
   156   213   214    2
   157   112   110   ar
   158    54    53    1
   159    79    77   ar
   160    79    81   ar
   161    72    73    1
   162    72    75    1
   163   176   175    1
   164    77    76   ar
   165    10     8   ar
   166    84    85    2
   167    84    94   am
   168    51    56   am
   169    51    52    2
   170    62    56    1
   171    62    61    1
   172    73    74    2
   173    21    27   am
   174    21    22    2
   175   109   108   ar
   176    53    55    1
   177    56    57    1
   178    81    80   ar
   179    27    28    1
   180    61    60    1
   181    60    57    1
   182    76    75    1
   183    76    78   ar
   184    94    95    1
   185   110   108   ar
   186    57    58    1
   187   175   174   ar
   188   175   173   ar
   189   102   100   am
   190   108   107    1
   191    80    78   ar
   192   174   172   ar
   193   173   171   ar
   194    99   100    1
   195    99    98    1
   196    28    31    1
   197    28    29    1
   198    95    98    1
   199    95    96    1
   200    33    32   ar
   201    33    35   ar
   202   100   101    2
   203    31    32    1
   204   103   104    1
   205    58    59    2
   206   107   104    1
   207    29    30    2
   208    32    34   ar
   209    35    36   ar
   210   172   170   ar
   211   104   105    1
   212   171   170   ar
   213    70    68    1
   214    96    97    2
   215    41    42    1
   216   170   169    1
   217    34    36   ar
   218    34    37   ar
   219    36    38   ar
   220    68    67    1
   221   105   106    2
   222    42    45    1
   223    42    43    1
   224    38    40   ar
   225    37    39   ar
   226   169   166    1
   227    45    46    1
   228    67    69    1
   229    67    64    1
   230    63    64    1
   231    47    48    1
   232    47    46    1
   233    43    44    2
   234    39    40   ar
   235   165   166    1
   236   166   167    1
   237    64    65    1
   238   167   168    2
   239    65    66    2
