@<TRIPOS>MOLECULE
tmp/5alhA00.pdb
 231 224 0 0 0
SMALL
GASTEIGER

@<TRIPOS>ATOM
      1  N         20.5940   15.7080   15.8650 N.3   266  PHE266     -0.1241
      2  CA        21.6910   14.7460   15.7650 C.3   266  PHE266      0.1605
      3  C         21.8770   14.2510   14.3260 C.2   266  PHE266      0.2264
      4  O         20.8870   13.8450   13.7110 O.2   266  PHE266     -0.2867
      5  CB        21.4530   13.5270   16.7080 C.3   266  PHE266      0.0534
      6  CG        22.4670   12.3950   16.5560 C.ar  266  PHE266     -0.0203
      7  CD1       22.2910   11.4050   15.5970 C.ar  266  PHE266     -0.0042
      8  CD2       23.5980   12.3310   17.3750 C.ar  266  PHE266     -0.0042
      9  CE1       23.2280   10.3640   15.4510 C.ar  266  PHE266     -0.0003
     10  CE2       24.5260   11.2840   17.2440 C.ar  266  PHE266     -0.0003
     11  CZ        24.3360   10.3060   16.2790 C.ar  266  PHE266     -0.0000
     12  N         14.6610   18.0150   15.6370 N.3   334  ASP334     -0.1225
     13  CA        15.1430   16.6970   16.0670 C.3   334  ASP334      0.1805
     14  C         15.3860   16.6740   17.5960 C.2   334  ASP334      0.2597
     15  O         14.4640   17.0450   18.3270 O.2   334  ASP334     -0.2718
     16  CB        16.3530   16.2740   15.1850 C.3   334  ASP334      0.1424
     17  CG        16.8530   14.8900   15.4800 C.2   334  ASP334      0.3668
     18  OD1       16.1490   13.9270   15.1340 O.co2 334  ASP334     -0.2456
     19  OD2       17.8990   14.7700   16.1570 O.co2 334  ASP334     -0.2456
     20  N         16.5900   16.2810   18.0890 N.am  335  TRP335     -0.1976
     21  CA        16.8930   16.3270   19.5250 C.3   335  TRP335      0.1640
     22  C         16.7460   17.7560   20.0850 C.2   335  TRP335      0.2290
     23  O         16.3510   17.8970   21.2440 O.2   335  TRP335     -0.2864
     24  CB        18.3000   15.8020   19.8310 C.3   335  TRP335      0.0576
     25  CG        18.3530   14.3400   20.1410 C.ar  335  TRP335      0.0006
     26  CD1       18.7900   13.3450   19.3190 C.ar  335  TRP335      0.0946
     27  CD2       17.8470   13.6970   21.3170 C.ar  335  TRP335      0.0152
     28  NE1       18.6620   12.1290   19.9410 N.ar  335  TRP335     -0.2442
     29  CE2       18.1080   12.3170   21.1810 C.ar  335  TRP335      0.0810
     30  CE3       17.2280   14.1570   22.4900 C.ar  335  TRP335      0.0012
     31  CZ2       17.7730   11.3860   22.1770 C.ar  335  TRP335      0.0191
     32  CZ3       16.9490   13.2400   23.5000 C.ar  335  TRP335      0.0001
     33  CH2       17.1790   11.8720   23.3210 C.ar  335  TRP335      0.0015
     34  N         13.2040   18.2950   20.9470 N.3   338  MET338     -0.1245
     35  CA        12.8790   17.6640   22.2270 C.3   338  MET338      0.1570
     36  C         13.2820   18.6050   23.3770 C.2   338  MET338      0.2261
     37  O         12.5080   18.7760   24.3200 O.2   338  MET338     -0.2867
     38  CB        13.5870   16.3060   22.3810 C.3   338  MET338      0.0387
     39  CG        13.1330   15.5180   23.6000 C.3   338  MET338      0.0595
     40  SD        11.5240   14.7310   23.3740 S.3   338  MET338     -0.1393
     41  CE        10.4110   15.9790   24.0250 C.3   338  MET338      0.0692
     42  N         11.0440   20.7960   26.4920 N.3   342  TYR342     -0.1241
     43  CA        11.3590   20.7670   27.9280 C.3   342  TYR342      0.1605
     44  C         11.6520   22.1430   28.4910 C.2   342  TYR342      0.2264
     45  O         11.2830   22.4050   29.6390 O.2   342  TYR342     -0.2867
     46  CB        12.4310   19.7430   28.3090 C.3   342  TYR342      0.0534
     47  CG        11.8910   18.3390   28.2130 C.ar  342  TYR342     -0.0201
     48  CD1       10.7780   17.9450   28.9570 C.ar  342  TYR342     -0.0009
     49  CD2       12.4240   17.4320   27.3080 C.ar  342  TYR342     -0.0009
     50  CE1       10.2140   16.6800   28.8000 C.ar  342  TYR342      0.0417
     51  CE2       11.8950   16.1550   27.1720 C.ar  342  TYR342      0.0417
     52  CZ        10.7790   15.7880   27.9050 C.ar  342  TYR342      0.1957
     53  OH        10.2800   14.5190   27.7620 O.3   342  TYR342     -0.2866
     54  N         10.0010   17.0430   15.5320 N.3   359  THR359     -0.1204
     55  CA         9.8920   16.4370   16.8620 C.3   359  THR359      0.1979
     56  C          8.5610   16.7380   17.5490 C.2   359  THR359      0.2459
     57  O          8.3050   17.8750   17.9250 O.2   359  THR359     -0.2732
     58  CB        11.0760   16.8040   17.7500 C.3   359  THR359      0.1783
     59  OG1       12.2480   16.6510   16.9830 O.3   359  THR359     -0.2211
     60  CG2       11.1660   15.9300   19.0150 C.3   359  THR359      0.0376
     61  N          7.7430   15.7090   17.7920 N.am  360  PRO360     -0.2728
     62  CA         6.4900   15.9560   18.5110 C.3   360  PRO360      0.1401
     63  C          6.7390   16.0480   20.0120 C.2   360  PRO360      0.2269
     64  O          7.7880   15.6110   20.5010 O.2   360  PRO360     -0.2865
     65  CB         5.6410   14.7370   18.1610 C.3   360  PRO360      0.0296
     66  CG         6.6320   13.6270   17.9500 C.3   360  PRO360      0.0237
     67  CD         7.9120   14.2750   17.4580 C.3   360  PRO360      0.0939
     68  N          5.6150   14.4490   23.2790 N.3   362  ILE362     -0.1245
     69  CA         4.9330   13.2550   23.7900 C.3   362  ILE362      0.1561
     70  C          5.2190   13.1820   25.2910 C.2   362  ILE362      0.2260
     71  O          6.3930   13.1260   25.6730 O.2   362  ILE362     -0.2867
     72  CB         5.3280   11.9330   23.0470 C.3   362  ILE362      0.0252
     73  CG1        4.9310   11.9730   21.5500 C.3   362  ILE362      0.0019
     74  CG2        4.7100   10.6950   23.7440 C.3   362  ILE362      0.0019
     75  CD1        5.8630   11.1600   20.6470 C.3   362  ILE362      0.0001
     76  N          9.2970    1.3330   25.7660 N.3   373  SER373     -0.1202
     77  CA         8.7130    2.3250   24.8660 C.3   373  SER373      0.2020
     78  C          9.4770    2.3930   23.5410 C.2   373  SER373      0.2618
     79  O          8.8430    2.4820   22.4880 O.2   373  SER373     -0.2717
     80  CB         8.6470    3.6950   25.5380 C.3   373  SER373      0.2103
     81  OG         7.8400    3.6620   26.7050 O.3   373  SER373     -0.2182
     82  N         10.8280    2.3150   23.5860 N.am  374  ILE374     -0.1979
     83  CA        11.6820    2.3200   22.3860 C.3   374  ILE374      0.1595
     84  C         11.4490    1.0260   21.5960 C.2   374  ILE374      0.2287
     85  O         11.2150    1.0870   20.3840 O.2   374  ILE374     -0.2864
     86  CB        13.1940    2.6040   22.7010 C.3   374  ILE374      0.0276
     87  CG1       13.4620    4.1100   22.8200 C.3   374  ILE374      0.0022
     88  CG2       14.1170    2.0580   21.6130 C.3   374  ILE374      0.0022
     89  CD1       13.6050    4.6700   24.1110 C.3   374  ILE374      0.0001
     90  N         12.7070    2.7480   15.7770 N.3   380  PHE380     -0.1241
     91  CA        13.5850    3.1970   16.8500 C.3   380  PHE380      0.1605
     92  C         14.6340    2.1670   17.2860 C.2   380  PHE380      0.2264
     93  O         15.2080    2.3140   18.3640 O.2   380  PHE380     -0.2867
     94  CB        12.7600    3.7240   18.0410 C.3   380  PHE380      0.0534
     95  CG        11.8540    4.9100   17.7590 C.ar  380  PHE380     -0.0203
     96  CD1       12.2620    5.9400   16.9170 C.ar  380  PHE380     -0.0042
     97  CD2       10.6210    5.0270   18.3880 C.ar  380  PHE380     -0.0042
     98  CE1       11.4370    7.0440   16.6850 C.ar  380  PHE380     -0.0003
     99  CE2        9.8030    6.1450   18.1680 C.ar  380  PHE380     -0.0003
    100  CZ        10.2190    7.1440   17.3190 C.ar  380  PHE380     -0.0000
    101  N         17.6710    1.5350   15.8630 N.3   382  TYR382     -0.1227
    102  CA        18.9910    2.1820   15.8270 C.3   382  TYR382      0.1736
    103  C         19.3270    2.8140   17.2020 C.2   382  TYR382      0.2595
    104  O         20.4990    2.8870   17.5630 O.2   382  TYR382     -0.2718
    105  CB        19.0410    3.2380   14.7060 C.3   382  TYR382      0.0548
    106  CG        18.1840    4.4550   14.9810 C.ar  382  TYR382     -0.0200
    107  CD1       16.8160    4.4390   14.7290 C.ar  382  TYR382     -0.0009
    108  CD2       18.7370    5.6170   15.5130 C.ar  382  TYR382     -0.0009
    109  CE1       16.0170    5.5500   15.0000 C.ar  382  TYR382      0.0417
    110  CE2       17.9510    6.7340   15.7830 C.ar  382  TYR382      0.0417
    111  CZ        16.5890    6.6910   15.5320 C.ar  382  TYR382      0.1957
    112  OH        15.7930    7.7740   15.7860 O.3   382  TYR382     -0.2866
    113  N         18.2890    3.2630   17.9610 N.am  383  GLN383     -0.1979
    114  CA        18.4480    3.8590   19.2890 C.3   383  GLN383      0.1601
    115  C         19.0610    2.8690   20.2810 C.2   383  GLN383      0.2287
    116  O         19.8390    3.2800   21.1460 O.2   383  GLN383     -0.2864
    117  CB        17.1100    4.3890   19.8250 C.3   383  GLN383      0.0394
    118  CG        16.5800    5.6020   19.0520 C.3   383  GLN383      0.0908
    119  CD        15.4670    6.3310   19.7660 C.2   383  GLN383      0.2608
    120  OE1       15.4090    6.4110   20.9940 O.2   383  GLN383     -0.2717
    121  NE2       14.5720    6.9100   19.0000 N.am  383  GLN383     -0.0878
    122  N         22.7700    2.5220   19.5320 N.3   386  PHE386     -0.1241
    123  CA        23.4490    3.7230   20.0410 C.3   386  PHE386      0.1605
    124  C         23.7380    3.6760   21.5550 C.2   386  PHE386      0.2264
    125  O         24.4570    4.5480   22.0640 O.2   386  PHE386     -0.2867
    126  CB        22.5790    4.9710   19.7210 C.3   386  PHE386      0.0534
    127  CG        22.5670    5.4550   18.2880 C.ar  386  PHE386     -0.0203
    128  CD1       23.3880    4.8690   17.3260 C.ar  386  PHE386     -0.0042
    129  CD2       21.7670    6.5270   17.9080 C.ar  386  PHE386     -0.0042
    130  CE1       23.3990    5.3380   16.0130 C.ar  386  PHE386     -0.0003
    131  CE2       21.7810    7.0020   16.5930 C.ar  386  PHE386     -0.0003
    132  CZ        22.5900    6.3980   15.6490 C.ar  386  PHE386     -0.0000
    133  N         23.9020    9.8700    5.8040 N.3   407  LEU407     -0.1245
    134  CA        22.8040   10.4360    6.6050 C.3   407  LEU407      0.1561
    135  C         22.0080   11.5310    5.8880 C.2   407  LEU407      0.2260
    136  O         20.7740   11.4670    5.8330 O.2   407  LEU407     -0.2867
    137  CB        23.3480   10.9730    7.9480 C.3   407  LEU407      0.0270
    138  CG        23.9140    9.9450    8.9370 C.3   407  LEU407      0.0019
    139  CD1       24.7380   10.6360    9.9850 C.3   407  LEU407      0.0001
    140  CD2       22.8210    9.1260    9.5850 C.3   407  LEU407      0.0001
    141  N         16.6120    2.3610    9.0930 N.3   418  MET418     -0.1245
    142  CA        16.9410    2.3960   10.5230 C.3   418  MET418      0.1570
    143  C         16.2730    1.2860   11.3330 C.2   418  MET418      0.2261
    144  O         16.3290    1.2750   12.5730 O.2   418  MET418     -0.2867
    145  CB        16.7400    3.7840   11.1290 C.3   418  MET418      0.0387
    146  CG        18.0350    4.5470   11.2310 C.3   418  MET418      0.0595
    147  SD        18.0090    6.2320   10.5950 S.3   418  MET418     -0.1393
    148  CE        16.6400    6.1530    9.4330 C.3   418  MET418      0.0692
    149  N         21.4220   10.1500   23.6140 N.3   465  TYR465     -0.1241
    150  CA        20.5790    8.9460   23.5640 C.3   465  TYR465      0.1605
    151  C         20.7090    8.0440   24.7910 C.2   465  TYR465      0.2264
    152  O         19.9240    7.0990   24.9450 O.2   465  TYR465     -0.2867
    153  CB        21.0200    8.0910   22.3550 C.3   465  TYR465      0.0534
    154  CG        20.6570    8.6540   21.0030 C.ar  465  TYR465     -0.0201
    155  CD1       19.4480    8.3320   20.3980 C.ar  465  TYR465     -0.0009
    156  CD2       21.5520    9.4570   20.2950 C.ar  465  TYR465     -0.0009
    157  CE1       19.1360    8.7860   19.1200 C.ar  465  TYR465      0.0417
    158  CE2       21.2520    9.9190   19.0170 C.ar  465  TYR465      0.0417
    159  CZ        20.0390    9.5780   18.4330 C.ar  465  TYR465      0.1957
    160  OH        19.7060   10.0460   17.1970 O.3   465  TYR465     -0.2866
    161  N         17.9710    7.8680   28.7710 N.3   468  MET468     -0.1245
    162  CA        16.5480    7.5100   28.7200 C.3   468  MET468      0.1570
    163  C         15.8390    7.4810   30.0660 C.2   468  MET468      0.2261
    164  O         14.8450    8.1840   30.2260 O.2   468  MET468     -0.2867
    165  CB        16.3110    6.2020   27.9620 C.3   468  MET468      0.0387
    166  CG        16.6860    6.2920   26.5190 C.3   468  MET468      0.0595
    167  SD        16.5050    4.7670   25.5850 S.3   468  MET468     -0.1393
    168  CE        16.9290    3.5150   26.8350 C.3   468  MET468      0.0692
    169  N         16.0200   10.9720   31.8290 N.3   471  ASN471     -0.1240
    170  CA        15.0780   11.8710   31.1410 C.3   471  ASN471      0.1653
    171  C         13.6350   11.5440   31.4550 C.2   471  ASN471      0.2266
    172  O         12.8350   12.4560   31.5810 O.2   471  ASN471     -0.2867
    173  CB        15.2960   11.8750   29.6240 C.3   471  ASN471      0.1155
    174  CG        16.6180   12.4730   29.1990 C.2   471  ASN471      0.2627
    175  OD1       17.3320   13.0980   29.9880 O.2   471  ASN471     -0.2716
    176  ND2       16.9610   12.2960   27.9370 N.am  471  ASN471     -0.0877
    177  N          9.2910   12.3850    6.8040 N.3   495  ASP495     -0.1239
    178  CA        10.2490   12.0100    7.8480 C.3   495  ASP495      0.1674
    179  C          9.6920   10.6620    8.3450 C.2   495  ASP495      0.2266
    180  O          8.5830   10.6180    8.8840 O.2   495  ASP495     -0.2867
    181  CB        10.3290   13.0280    9.0110 C.3   495  ASP495      0.1410
    182  CG        11.4530   12.7330   10.0070 C.2   495  ASP495      0.3668
    183  OD1       11.8270   11.5500   10.1510 O.co2 495  ASP495     -0.2456
    184  OD2       11.9770   13.6990   10.6260 O.co2 495  ASP495     -0.2456
    185  N         11.0750    8.5960   10.6230 N.3   497  VAL497     -0.1231
    186  CA        11.4080    8.3420   12.0220 C.3   497  VAL497      0.1692
    187  C         10.4520    9.2120   12.8690 C.2   497  VAL497      0.2591
    188  O          9.6730    8.6690   13.6660 O.2   497  VAL497     -0.2718
    189  CB        12.9110    8.5900   12.3350 C.3   497  VAL497      0.0266
    190  CG1       13.1960    8.4310   13.8260 C.3   497  VAL497      0.0020
    191  CG2       13.7960    7.6550   11.5160 C.3   497  VAL497      0.0020
    192  N         10.4660   10.5460   12.6380 N.am  498  LEU498     -0.1980
    193  CA         9.5910   11.5210   13.3140 C.3   498  LEU498      0.1596
    194  C          8.3840   11.8230   12.4200 C.2   498  LEU498      0.2287
    195  O          8.2740   12.8860   11.8020 O.2   498  LEU498     -0.2864
    196  CB        10.3690   12.8020   13.6900 C.3   498  LEU498      0.0297
    197  CG        11.6510   12.6410   14.5310 C.3   498  LEU498      0.0022
    198  CD1       12.3220   13.9920   14.7440 C.3   498  LEU498      0.0001
    199  CD2       11.3500   12.0190   15.9050 C.3   498  LEU498      0.0001
    200  N          2.7170   10.9890   14.7560 N.3   502  MET502     -0.1245
    201  CA         3.2430   10.9770   16.1200 C.3   502  MET502      0.1570
    202  C          2.9070   12.2560   16.9030 C.2   502  MET502      0.2261
    203  O          2.9330   12.2320   18.1320 O.2   502  MET502     -0.2867
    204  CB         4.7500   10.7640   16.1000 C.3   502  MET502      0.0387
    205  CG         5.1520    9.3120   16.0290 C.3   502  MET502      0.0595
    206  SD         6.9370    9.1160   15.7690 S.3   502  MET502     -0.1393
    207  CE         7.5250    9.9810   17.1330 C.3   502  MET502      0.0692
    208  N         13.6050   14.0570    6.7690 N.3   523  HIS523     -0.1226
    209  CA        14.0930   14.3680    8.1110 C.3   523  HIS523      0.1752
    210  C         14.8790   15.6770    8.2320 C.2   523  HIS523      0.2596
    211  O         14.7800   16.3260    9.2700 O.2   523  HIS523     -0.2718
    212  CB        14.9390   13.2130    8.6910 C.3   523  HIS523      0.0759
    213  CG        15.4450   13.4930   10.0830 C.ar  523  HIS523      0.0818
    214  ND1       14.5810   13.5510   11.1700 N.ar  523  HIS523     -0.2268
    215  CD2       16.6940   13.8020   10.5080 C.ar  523  HIS523      0.1154
    216  CE1       15.3330   13.8700   12.2130 C.ar  523  HIS523      0.1986
    217  NE2       16.6090   14.0270   11.8660 N.ar  523  HIS523     -0.2212
    218  N         15.7150   16.0150    7.2250 N.am  524  TRP524     -0.1976
    219  CA        16.6410   17.1610    7.2780 C.3   524  TRP524      0.1640
    220  C         15.9630   18.4040    6.7560 C.2   524  TRP524      0.2290
    221  O         16.4160   19.0130    5.7820 O.2   524  TRP524     -0.2864
    222  CB        17.9580   16.8220    6.5470 C.3   524  TRP524      0.0576
    223  CG        18.4430   15.4270    6.8420 C.ar  524  TRP524      0.0006
    224  CD1       18.2040   14.3060    6.1030 C.ar  524  TRP524      0.0946
    225  CD2       19.1160   14.9880    8.0320 C.ar  524  TRP524      0.0152
    226  NE1       18.6980   13.1970    6.7470 N.ar  524  TRP524     -0.2442
    227  CE2       19.2610   13.5840    7.9370 C.ar  524  TRP524      0.0810
    228  CE3       19.6010   15.6440    9.1820 C.ar  524  TRP524      0.0012
    229  CZ2       19.8900   12.8290    8.9280 C.ar  524  TRP524      0.0191
    230  CZ3       20.2170   14.8940   10.1640 C.ar  524  TRP524      0.0001
    231  CH2       20.3450   13.5010   10.0410 C.ar  524  TRP524      0.0015
@<TRIPOS>BOND
     1   221   220    2
     2   133   134    1
     3   136   135    2
     4   135   134    1
     5   224   226   ar
     6   224   223   ar
     7   222   223    1
     8   222   219    1
     9   134   137    1
    10   226   227   ar
    11   220   219    1
    12   208   209    1
    13   177   178    1
    14   223   225   ar
    15   218   219    1
    16   218   210   am
    17   178   179    1
    18   178   181    1
    19   227   225   ar
    20   227   229   ar
    21   137   138    1
    22   225   228   ar
    23   209   210    1
    24   209   212    1
    25   210   211    2
    26   179   180    2
    27   212   213    1
    28   229   231   ar
    29   138   140    1
    30   138   139    1
    31   181   182    1
    32   141   142    1
    33   228   230   ar
    34   148   147    1
    35   182   183   ar
    36   182   184   ar
    37   231   230   ar
    38   213   215   ar
    39   213   214   ar
    40   215   217   ar
    41   142   145    1
    42   142   143    1
    43   147   146    1
    44   185   186    1
    45   145   146    1
    46   214   216   ar
    47   143   144    2
    48   191   189    1
    49   195   194    2
    50   217   216   ar
    51   186   189    1
    52   186   187    1
    53   189   190    1
    54   194   193    1
    55   192   187   am
    56   192   193    1
    57   187   188    2
    58   193   196    1
    59   196   197    1
    60     4     3    2
    61     3     2    1
    62   197   198    1
    63   197   199    1
    64   105   106    1
    65   105   102    1
    66   107   106   ar
    67   107   109   ar
    68   200   201    1
    69   106   108   ar
    70   109   111   ar
    71    18    17   ar
    72    16    17    1
    73    16    13    1
    74     9     7   ar
    75     9    11   ar
    76    17    19   ar
    77   108   110   ar
    78   111   110   ar
    79   111   112    1
    80    54    55    1
    81     7     6   ar
    82    12    13    1
    83   132   130   ar
    84   132   131   ar
    85     2     1    1
    86     2     5    1
    87   206   205    1
    88   206   207    1
    89    90    91    1
    90   102   101    1
    91   102   103    1
    92   130   128   ar
    93   205   204    1
    94    13    14    1
    95   204   201    1
    96   201   202    1
    97    11    10   ar
    98     6     5    1
    99     6     8   ar
   100   131   129   ar
   101    98    96   ar
   102    98   100   ar
   103    91    92    1
   104    91    94    1
   105    55    56    1
   106    55    58    1
   107   202   203    2
   108    96    95   ar
   109    59    58    1
   110   160   159    1
   111   103   104    2
   112   103   113   am
   113    10     8   ar
   114    92    93    2
   115   100    99   ar
   116   128   127   ar
   117    67    61    1
   118    67    66    1
   119    56    61   am
   120    56    57    2
   121    14    20   am
   122    14    15    2
   123    58    60    1
   124    95    94    1
   125    95    97   ar
   126    61    62    1
   127   129   127   ar
   128    66    65    1
   129   113   114    1
   130    20    21    1
   131    65    62    1
   132    99    97   ar
   133   127   126    1
   134   159   158   ar
   135   159   157   ar
   136    62    63    1
   137   121   119   am
   138   158   156   ar
   139   118   119    1
   140   118   117    1
   141   157   155   ar
   142   114   117    1
   143   114   115    1
   144    26    28   ar
   145    26    25   ar
   146    21    24    1
   147    21    22    1
   148   122   123    1
   149   126   123    1
   150   119   120    2
   151    24    25    1
   152    28    29   ar
   153    63    64    2
   154   123   124    1
   155    22    23    2
   156    25    27   ar
   157   115   116    2
   158   156   154   ar
   159    85    84    2
   160   155   154   ar
   161    75    73    1
   162    34    35    1
   163   154   153    1
   164    29    27   ar
   165    29    31   ar
   166    27    30   ar
   167    73    72    1
   168   124   125    2
   169    84    83    1
   170    88    86    1
   171    31    33   ar
   172    35    38    1
   173    35    36    1
   174   153   150    1
   175    38    39    1
   176    83    86    1
   177    83    82    1
   178    79    78    2
   179    30    32   ar
   180    86    87    1
   181    87    89    1
   182    72    74    1
   183    72    69    1
   184    68    69    1
   185    33    32   ar
   186    40    39    1
   187    40    41    1
   188    36    37    2
   189    78    82   am
   190    78    77    1
   191   150   149    1
   192   150   151    1
   193    69    70    1
   194   151   152    2
   195    77    80    1
   196    77    76    1
   197    70    71    2
   198    80    81    1
   199   167   166    1
   200   167   168    1
   201    42    43    1
   202   166   165    1
   203    51    49   ar
   204    51    52   ar
   205    49    47   ar
   206    53    52    1
   207    52    50   ar
   208    43    46    1
   209    43    44    1
   210   176   174   am
   211   165   162    1
   212    47    46    1
   213    47    48   ar
   214    44    45    2
   215   162   161    1
   216   162   163    1
   217    50    48   ar
   218   174   173    1
   219   174   175    2
   220   173   170    1
   221   163   164    2
   222   170   171    1
   223   170   169    1
   224   171   172    2
