@<TRIPOS>MOLECULE
tmp/5aljA00.pdb
 181 178 0 0 0
SMALL
GASTEIGER

@<TRIPOS>ATOM
      1  N         20.1070  -15.7100  -16.5300 N.3   253  PHE253     -0.1228
      2  CA        21.1820  -14.7420  -16.3720 C.3   253  PHE253      0.1721
      3  C         21.3180  -14.2660  -14.9350 C.2   253  PHE253      0.2437
      4  O         20.3100  -13.8280  -14.3650 O.2   253  PHE253     -0.2733
      5  CB        20.9020  -13.5130  -17.2810 C.3   253  PHE253      0.0547
      6  CG        21.8760  -12.3550  -17.1000 C.ar  253  PHE253     -0.0202
      7  CD1       21.6650  -11.3870  -16.1160 C.ar  253  PHE253     -0.0042
      8  CD2       22.9730  -12.2090  -17.9400 C.ar  253  PHE253     -0.0042
      9  CE1       22.5630  -10.3190  -15.9510 C.ar  253  PHE253     -0.0003
     10  CE2       23.8720  -11.1420  -17.7760 C.ar  253  PHE253     -0.0003
     11  CZ        23.6580  -10.2010  -16.7850 C.ar  253  PHE253     -0.0000
     12  N         22.5470  -14.1500  -14.3690 N.am  254  PRO254     -0.2729
     13  CA        23.8660  -14.5950  -14.8490 C.3   254  PRO254      0.1401
     14  C         24.1790  -15.8400  -14.0440 C.2   254  PRO254      0.2269
     15  O         24.7920  -15.8040  -12.9650 O.2   254  PRO254     -0.2865
     16  CB        24.7700  -13.4230  -14.4410 C.3   254  PRO254      0.0296
     17  CG        24.0330  -12.7700  -13.2060 C.3   254  PRO254      0.0237
     18  CD        22.7000  -13.4890  -13.0600 C.3   254  PRO254      0.0939
     19  N         14.1930  -17.9190  -16.2600 N.3   321  ASP321     -0.1225
     20  CA        14.6570  -16.6150  -16.7330 C.3   321  ASP321      0.1805
     21  C         14.9380  -16.6560  -18.2570 C.2   321  ASP321      0.2597
     22  O         14.0440  -17.0360  -18.9990 O.2   321  ASP321     -0.2718
     23  CB        15.8780  -16.1750  -15.8630 C.3   321  ASP321      0.1424
     24  CG        16.3840  -14.7920  -16.1620 C.2   321  ASP321      0.3668
     25  OD1       15.7760  -13.8300  -15.6700 O.co2 321  ASP321     -0.2456
     26  OD2       17.3620  -14.6720  -16.9350 O.co2 321  ASP321     -0.2456
     27  N         16.1580  -16.3200  -18.7350 N.am  322  TRP322     -0.1976
     28  CA        16.4760  -16.4220  -20.1610 C.3   322  TRP322      0.1640
     29  C         16.3780  -17.8790  -20.6790 C.2   322  TRP322      0.2290
     30  O         15.9830  -18.0720  -21.8160 O.2   322  TRP322     -0.2864
     31  CB        17.8320  -15.7820  -20.4810 C.3   322  TRP322      0.0576
     32  CG        17.7070  -14.3110  -20.7680 C.ar  322  TRP322      0.0006
     33  CD1       18.0090  -13.2900  -19.9160 C.ar  322  TRP322      0.0946
     34  CD2       17.1320  -13.7030  -21.9400 C.ar  322  TRP322      0.0152
     35  NE1       17.6830  -12.0810  -20.4900 N.ar  322  TRP322     -0.2442
     36  CE2       17.1650  -12.3030  -21.7420 C.ar  322  TRP322      0.0810
     37  CE3       16.5970  -14.2060  -23.1400 C.ar  322  TRP322      0.0012
     38  CZ2       16.7250  -11.3950  -22.7180 C.ar  322  TRP322      0.0191
     39  CZ3       16.1620  -13.3090  -24.1070 C.ar  322  TRP322      0.0001
     40  CH2       16.2270  -11.9200  -23.8940 C.ar  322  TRP322      0.0015
     41  N         12.7780  -18.3630  -21.5220 N.3   325  MET325     -0.1245
     42  CA        12.5180  -17.7750  -22.8260 C.3   325  MET325      0.1570
     43  C         12.9590  -18.7530  -23.9260 C.2   325  MET325      0.2261
     44  O         12.2230  -18.9370  -24.8810 O.2   325  MET325     -0.2867
     45  CB        13.2470  -16.4280  -22.9920 C.3   325  MET325      0.0387
     46  CG        12.8250  -15.6680  -24.2280 C.3   325  MET325      0.0595
     47  SD        11.2090  -14.8070  -24.0660 S.3   325  MET325     -0.1393
     48  CE        10.0980  -16.0680  -24.3420 C.3   325  MET325      0.0692
     49  N          9.4890  -17.0340  -16.3220 N.3   346  THR346     -0.1218
     50  CA         9.3800  -16.4320  -17.6580 C.3   346  THR346      0.1862
     51  C          8.0640  -16.7370  -18.2940 C.2   346  THR346      0.2287
     52  O          7.7940  -17.9030  -18.5650 O.2   346  THR346     -0.2866
     53  CB        10.5740  -16.8010  -18.5620 C.3   346  THR346      0.1770
     54  OG1       11.7510  -16.6760  -17.7810 O.3   346  THR346     -0.2211
     55  CG2       10.6610  -15.9350  -19.8440 C.3   346  THR346      0.0375
     56  N         11.7860   -2.7400  -16.8320 N.3   361  PHE361     -0.1241
     57  CA        12.8540   -3.0260  -17.7950 C.3   361  PHE361      0.1605
     58  C         13.7180   -1.8410  -18.2090 C.2   361  PHE361      0.2264
     59  O         13.7750   -1.4400  -19.3790 O.2   361  PHE361     -0.2867
     60  CB        12.3530   -3.8330  -18.9950 C.3   361  PHE361      0.0534
     61  CG        11.7640   -5.1820  -18.6660 C.ar  361  PHE361     -0.0203
     62  CD1       12.3880   -6.0310  -17.7580 C.ar  361  PHE361     -0.0042
     63  CD2       10.6090   -5.6260  -19.2980 C.ar  361  PHE361     -0.0042
     64  CE1       11.8460   -7.2830  -17.4650 C.ar  361  PHE361     -0.0003
     65  CE2       10.0720   -6.8820  -19.0080 C.ar  361  PHE361     -0.0003
     66  CZ        10.6940   -7.7020  -18.0930 C.ar  361  PHE361     -0.0000
     67  N         16.7780   -2.2200  -16.7370 N.3   363  TYR363     -0.1227
     68  CA        17.9110   -3.1600  -16.7040 C.3   363  TYR363      0.1736
     69  C         18.3680   -3.4760  -18.1350 C.2   363  TYR363      0.2595
     70  O         19.5530   -3.3440  -18.4430 O.2   363  TYR363     -0.2718
     71  CB        17.5230   -4.4970  -16.0260 C.3   363  TYR363      0.0548
     72  CG        17.2280   -4.4480  -14.5420 C.ar  363  TYR363     -0.0200
     73  CD1       18.2450   -4.2350  -13.6150 C.ar  363  TYR363     -0.0009
     74  CD2       15.9580   -4.7500  -14.0550 C.ar  363  TYR363     -0.0009
     75  CE1       17.9890   -4.2370  -12.2420 C.ar  363  TYR363      0.0417
     76  CE2       15.6900   -4.7600  -12.6840 C.ar  363  TYR363      0.0417
     77  CZ        16.7100   -4.5080  -11.7800 C.ar  363  TYR363      0.1957
     78  OH        16.4530   -4.5250  -10.4280 O.3   363  TYR363     -0.2866
     79  N         17.4130   -3.8610  -19.0080 N.am  364  GLN364     -0.1979
     80  CA        17.6570   -4.2140  -20.4050 C.3   364  GLN364      0.1601
     81  C         18.3000   -3.0960  -21.2590 C.2   364  GLN364      0.2287
     82  O         19.0760   -3.4190  -22.1590 O.2   364  GLN364     -0.2864
     83  CB        16.3900   -4.8260  -21.0480 C.3   364  GLN364      0.0394
     84  CG        15.8090   -4.0820  -22.2550 C.3   364  GLN364      0.0908
     85  CD        14.3030   -4.1760  -22.3210 C.2   364  GLN364      0.2608
     86  OE1       13.5830   -3.2530  -21.9250 O.2   364  GLN364     -0.2717
     87  NE2       13.7920   -5.2720  -22.8640 N.am  364  GLN364     -0.0878
     88  N         21.9330   -2.7360  -20.2940 N.3   367  PHE367     -0.1241
     89  CA        22.6540   -3.8940  -20.8130 C.3   367  PHE367      0.1605
     90  C         22.9390   -3.8070  -22.2970 C.2   367  PHE367      0.2264
     91  O         23.7160   -4.6170  -22.8020 O.2   367  PHE367     -0.2867
     92  CB        21.8780   -5.1930  -20.4800 C.3   367  PHE367      0.0534
     93  CG        21.8010   -5.6040  -19.0260 C.ar  367  PHE367     -0.0203
     94  CD1       22.6120   -5.0010  -18.0650 C.ar  367  PHE367     -0.0042
     95  CD2       20.9250   -6.6010  -18.6160 C.ar  367  PHE367     -0.0042
     96  CE1       22.5530   -5.3960  -16.7250 C.ar  367  PHE367     -0.0003
     97  CE2       20.8580   -6.9910  -17.2680 C.ar  367  PHE367     -0.0003
     98  CZ        21.6790   -6.3930  -16.3340 C.ar  367  PHE367     -0.0000
     99  N         23.3060   -9.7670   -6.2200 N.3   388  LEU388     -0.1245
    100  CA        22.2490  -10.3440   -7.0400 C.3   388  LEU388      0.1561
    101  C         21.4620  -11.4250   -6.3610 C.2   388  LEU388      0.2260
    102  O         20.2370  -11.3380   -6.3050 O.2   388  LEU388     -0.2867
    103  CB        22.8060  -10.8620   -8.3810 C.3   388  LEU388      0.0270
    104  CG        23.1750   -9.8460   -9.4390 C.3   388  LEU388      0.0019
    105  CD1       23.8540  -10.5370  -10.5930 C.3   388  LEU388      0.0001
    106  CD2       21.9640   -9.0940   -9.9430 C.3   388  LEU388      0.0001
    107  N         19.0270   -4.0260   -4.0910 N.3   397  LEU397     -0.1245
    108  CA        19.0370   -3.3340   -5.3890 C.3   397  LEU397      0.1561
    109  C         18.2260   -2.0420   -5.5380 C.2   397  LEU397      0.2260
    110  O         18.7810   -1.0660   -6.0370 O.2   397  LEU397     -0.2867
    111  CB        18.7530   -4.3040   -6.5440 C.3   397  LEU397      0.0270
    112  CG        19.8900   -5.2440   -6.9890 C.3   397  LEU397      0.0019
    113  CD1       19.6810   -5.6620   -8.4080 C.3   397  LEU397      0.0001
    114  CD2       21.3170   -4.6490   -6.7810 C.3   397  LEU397      0.0001
    115  N         24.1180   -0.4650  -11.7120 N.3   404  LEU404     -0.1245
    116  CA        23.3050   -1.4950  -11.0850 C.3   404  LEU404      0.1561
    117  C         23.5310   -1.4790   -9.5680 C.2   404  LEU404      0.2260
    118  O         22.6020   -1.7750   -8.8190 O.2   404  LEU404     -0.2867
    119  CB        23.7340   -2.8750  -11.6560 C.3   404  LEU404      0.0270
    120  CG        22.6760   -3.9100  -12.1030 C.3   404  LEU404      0.0019
    121  CD1       21.6430   -4.1830  -11.0350 C.3   404  LEU404      0.0001
    122  CD2       22.0340   -3.5470  -13.4250 C.3   404  LEU404      0.0001
    123  N         20.7390  -10.3440  -24.1010 N.3   442  TYR442     -0.1241
    124  CA        19.8550   -9.1470  -24.1300 C.3   442  TYR442      0.1605
    125  C         20.0680   -8.2750  -25.3690 C.2   442  TYR442      0.2264
    126  O         19.3430   -7.2910  -25.5590 O.2   442  TYR442     -0.2867
    127  CB        20.1980   -8.2300  -22.9630 C.3   442  TYR442      0.0534
    128  CG        19.8760   -8.7750  -21.5970 C.ar  442  TYR442     -0.0201
    129  CD1       18.6340   -8.5420  -21.0070 C.ar  442  TYR442     -0.0009
    130  CD2       20.8270   -9.4850  -20.8690 C.ar  442  TYR442     -0.0009
    131  CE1       18.3450   -9.0100  -19.7270 C.ar  442  TYR442      0.0417
    132  CE2       20.5450   -9.9700  -19.5970 C.ar  442  TYR442      0.0417
    133  CZ        19.3100   -9.7120  -19.0210 C.ar  442  TYR442      0.1957
    134  OH        19.0310  -10.2100  -17.7830 O.3   442  TYR442     -0.2866
    135  N         17.3510   -8.1030  -29.3030 N.3   445  MET445     -0.1245
    136  CA        15.9220   -7.7690  -29.2190 C.3   445  MET445      0.1570
    137  C         15.2130   -7.6900  -30.5580 C.2   445  MET445      0.2261
    138  O         14.1650   -8.3090  -30.7210 O.2   445  MET445     -0.2867
    139  CB        15.6470   -6.5350  -28.3280 C.3   445  MET445      0.0387
    140  CG        16.1630   -6.6640  -26.8810 C.3   445  MET445      0.0595
    141  SD        15.5360   -8.0620  -25.8500 S.3   445  MET445     -0.1393
    142  CE        16.1780   -7.5690  -24.2120 C.3   445  MET445      0.0692
    143  N         10.9480   -8.6100  -11.6020 N.3   474  VAL474     -0.1231
    144  CA        11.3450   -8.4780  -13.0110 C.3   474  VAL474      0.1692
    145  C         10.3040   -9.2690  -13.8160 C.2   474  VAL474      0.2591
    146  O          9.6300   -8.7050  -14.6730 O.2   474  VAL474     -0.2718
    147  CB        12.8020   -8.9670  -13.2790 C.3   474  VAL474      0.0266
    148  CG1       13.1910   -8.7910  -14.7440 C.3   474  VAL474      0.0020
    149  CG2       13.8050   -8.2580  -12.3810 C.3   474  VAL474      0.0020
    150  N         10.1500  -10.5680  -13.4980 N.am  475  LEU475     -0.1980
    151  CA         9.2320  -11.4940  -14.1780 C.3   475  LEU475      0.1596
    152  C          8.0510  -11.7360  -13.2440 C.2   475  LEU475      0.2287
    153  O          8.0170  -12.7130  -12.4840 O.2   475  LEU475     -0.2864
    154  CB         9.9770  -12.8070  -14.5730 C.3   475  LEU475      0.0297
    155  CG        11.2890  -12.6480  -15.3940 C.3   475  LEU475      0.0022
    156  CD1       12.0520  -13.9630  -15.4900 C.3   475  LEU475      0.0001
    157  CD2       11.0290  -12.0920  -16.7900 C.3   475  LEU475      0.0001
    158  N         13.0560  -13.8400   -7.3910 N.3   500  HIS500     -0.1226
    159  CA        13.4530  -14.1580   -8.7670 C.3   500  HIS500      0.1752
    160  C         14.2850  -15.4430   -8.9140 C.2   500  HIS500      0.2596
    161  O         14.1990  -16.0980   -9.9440 O.2   500  HIS500     -0.2718
    162  CB        14.1930  -12.9730   -9.4020 C.3   500  HIS500      0.0759
    163  CG        14.7850  -13.3060  -10.7360 C.ar  500  HIS500      0.0818
    164  ND1       14.0010  -13.3700  -11.8670 N.ar  500  HIS500     -0.2268
    165  CD2       16.0520  -13.6660  -11.0560 C.ar  500  HIS500      0.1154
    166  CE1       14.8100  -13.7630  -12.8380 C.ar  500  HIS500      0.1986
    167  NE2       16.0600  -13.9280  -12.4010 N.ar  500  HIS500     -0.2212
    168  N         15.0960  -15.7810   -7.9110 N.am  501  TRP501     -0.1976
    169  CA        16.0220  -16.9240   -7.9240 C.3   501  TRP501      0.1640
    170  C         15.3210  -18.1560   -7.4090 C.2   501  TRP501      0.2290
    171  O         15.7770  -18.7590   -6.4520 O.2   501  TRP501     -0.2864
    172  CB        17.2800  -16.5810   -7.1000 C.3   501  TRP501      0.0576
    173  CG        17.7960  -15.2050   -7.4090 C.ar  501  TRP501      0.0006
    174  CD1       17.5590  -14.0630   -6.6980 C.ar  501  TRP501      0.0946
    175  CD2       18.4630  -14.7970   -8.6120 C.ar  501  TRP501      0.0152
    176  NE1       18.0490  -12.9740   -7.3750 N.ar  501  TRP501     -0.2442
    177  CE2       18.6320  -13.3960   -8.5420 C.ar  501  TRP501      0.0810
    178  CE3       18.9890  -15.4870   -9.7190 C.ar  501  TRP501      0.0012
    179  CZ2       19.3120  -12.6710   -9.5330 C.ar  501  TRP501      0.0191
    180  CZ3       19.6180  -14.7610  -10.7200 C.ar  501  TRP501      0.0001
    181  CH2       19.7860  -13.3730  -10.6160 C.ar  501  TRP501      0.0015
@<TRIPOS>BOND
     1   138   137    2
     2   137   136    1
     3   135   136    1
     4   136   139    1
     5   139   140    1
     6   140   141    1
     7   141   142    1
     8   126   125    2
     9   125   124    1
    10    44    43    2
    11    48    47    1
    12    46    47    1
    13    46    45    1
    14   124   123    1
    15   124   127    1
    16    39    40   ar
    17    39    37   ar
    18    43    42    1
    19    40    38   ar
    20    37    34   ar
    21    45    42    1
    22   127   128    1
    23    87    85   am
    24    42    41    1
    25    91    90    2
    26    38    36   ar
    27    85    84    1
    28    85    86    2
    29    90    89    1
    30    84    83    1
    31    82    81    2
    32    34    36   ar
    33    34    32   ar
    34    30    29    2
    35    36    35   ar
    36   128   129   ar
    37   128   130   ar
    38    81    80    1
    39    83    80    1
    40   129   131   ar
    41   130   132   ar
    42    89    92    1
    43    89    88    1
    44    32    31    1
    45    32    33   ar
    46    29    28    1
    47    35    33   ar
    48    31    28    1
    49    92    93    1
    50    80    79    1
    51    28    27    1
    52    55    53    1
    53   131   133   ar
    54   132   133   ar
    55    59    58    2
    56    63    65   ar
    57    63    61   ar
    58    93    95   ar
    59    93    94   ar
    60   133   134    1
    61    65    66   ar
    62    79    69   am
    63    22    21    2
    64    60    61    1
    65    60    57    1
    66    27    21   am
    67    61    62   ar
    68    95    97   ar
    69    52    51    2
    70    53    54    1
    71    53    50    1
    72    70    69    2
    73    51    50    1
    74    21    20    1
    75    58    57    1
    76    69    68    1
    77    66    64   ar
    78    94    96   ar
    79     8    10   ar
    80     8     6   ar
    81    57    56    1
    82    10    11   ar
    83    62    64   ar
    84    50    49    1
    85     5     6    1
    86     5     2    1
    87    97    98   ar
    88     6     7   ar
    89    26    24   ar
    90   157   155    1
    91    11     9   ar
    92    67    68    1
    93    20    19    1
    94    20    23    1
    95    96    98   ar
    96    68    71    1
    97     1     2    1
    98     2     3    1
    99    24    23    1
   100    24    25   ar
   101     7     9   ar
   102    71    72    1
   103   156   155    1
   104   155   154    1
   105     3    12   am
   106     3     4    2
   107    13    16    1
   108    13    12    1
   109    13    14    1
   110   148   147    1
   111   146   145    2
   112   154   151    1
   113    72    74   ar
   114    72    73   ar
   115    16    17    1
   116    12    18    1
   117   151   150    1
   118   151   152    1
   119    74    76   ar
   120    14    15    2
   121   145   150   am
   122   145   144    1
   123    73    75   ar
   124   122   120    1
   125   147   144    1
   126   147   149    1
   127   152   153    2
   128    17    18    1
   129   144   143    1
   130   166   167   ar
   131   166   164   ar
   132    76    77   ar
   133   167   165   ar
   134    75    77   ar
   135   120   119    1
   136   120   121    1
   137   164   163   ar
   138    77    78    1
   139   115   116    1
   140   119   116    1
   141   116   117    1
   142   165   163   ar
   143   163   162    1
   144   180   181   ar
   145   180   178   ar
   146   181   179   ar
   147   105   104    1
   148   161   160    2
   149   106   104    1
   150   178   175   ar
   151   117   118    2
   152   179   177   ar
   153   104   103    1
   154   162   159    1
   155   160   159    1
   156   160   168   am
   157   159   158    1
   158   175   177   ar
   159   175   173   ar
   160   177   176   ar
   161   113   112    1
   162   103   100    1
   163   169   168    1
   164   169   170    1
   165   169   172    1
   166   173   172    1
   167   173   174   ar
   168   170   171    2
   169   176   174   ar
   170   100   101    1
   171   100    99    1
   172   112   114    1
   173   112   111    1
   174   111   108    1
   175   101   102    2
   176   110   109    2
   177   109   108    1
   178   108   107    1
