@<TRIPOS>MOLECULE
tmp/5alkA00.pdb
 168 164 0 0 0
SMALL
GASTEIGER

@<TRIPOS>ATOM
      1  N         20.4620   15.8130   16.1040 N.3   266  PHE266     -0.1228
      2  CA        21.5320   14.8230   15.9700 C.3   266  PHE266      0.1721
      3  C         21.7430   14.3000   14.5580 C.2   266  PHE266      0.2437
      4  O         20.7970   13.7480   13.9940 O.2   266  PHE266     -0.2733
      5  CB        21.2870   13.6260   16.9200 C.3   266  PHE266      0.0547
      6  CG        22.3440   12.5460   16.8180 C.ar  266  PHE266     -0.0202
      7  CD1       22.2290   11.5190   15.8800 C.ar  266  PHE266     -0.0042
      8  CD2       23.4660   12.5710   17.6410 C.ar  266  PHE266     -0.0042
      9  CE1       23.2200   10.5480   15.7600 C.ar  266  PHE266     -0.0003
     10  CE2       24.4550   11.5960   17.5260 C.ar  266  PHE266     -0.0003
     11  CZ        24.3310   10.5980   16.5800 C.ar  266  PHE266     -0.0000
     12  N         22.9930   14.2730   14.0380 N.am  267  PRO267     -0.2729
     13  CA        24.2660   14.7910   14.5650 C.3   267  PRO267      0.1401
     14  C         24.5780   16.0540   13.7550 C.2   267  PRO267      0.2269
     15  O         25.1570   15.9920   12.6560 O.2   267  PRO267     -0.2865
     16  CB        25.2320   13.6340   14.2420 C.3   267  PRO267      0.0296
     17  CG        24.5570   12.8590   13.0610 C.3   267  PRO267      0.0237
     18  CD        23.2530   13.5780   12.7680 C.3   267  PRO267      0.0939
     19  N         14.7020   17.9890   15.9330 N.3   334  ASP334     -0.1239
     20  CA        15.1590   16.6700   16.3850 C.3   334  ASP334      0.1674
     21  C         15.4240   16.6980   17.9020 C.2   334  ASP334      0.2266
     22  O         14.4870   17.0030   18.6370 O.2   334  ASP334     -0.2867
     23  CB        16.3460   16.1540   15.5140 C.3   334  ASP334      0.1410
     24  CG        16.8110   14.7470   15.8280 C.2   334  ASP334      0.3668
     25  OD1       16.0720   13.8000   15.5180 O.co2 334  ASP334     -0.2456
     26  OD2       17.8650   14.6070   16.4770 O.co2 334  ASP334     -0.2456
     27  N         17.1610    2.1500   16.0350 N.3   382  TYR382     -0.1241
     28  CA        18.4640    2.8360   15.9860 C.3   382  TYR382      0.1605
     29  C         18.8400    3.4420   17.3570 C.2   382  TYR382      0.2264
     30  O         20.0270    3.5710   17.6580 O.2   382  TYR382     -0.2867
     31  CB        18.5030    3.9090   14.8660 C.3   382  TYR382      0.0534
     32  CG        17.7860    5.1930   15.2290 C.ar  382  TYR382     -0.0201
     33  CD1       16.4150    5.3280   15.0320 C.ar  382  TYR382     -0.0009
     34  CD2       18.4680    6.2560   15.8130 C.ar  382  TYR382     -0.0009
     35  CE1       15.7440    6.4860   15.4020 C.ar  382  TYR382      0.0417
     36  CE2       17.8020    7.4090   16.2110 C.ar  382  TYR382      0.0417
     37  CZ        16.4430    7.5250   15.9870 C.ar  382  TYR382      0.1957
     38  OH        15.7830    8.6630   16.3560 O.3   382  TYR382     -0.2866
     39  N         22.3350    2.7840   19.7070 N.3   386  PHE386     -0.1241
     40  CA        23.0370    3.9350   20.2650 C.3   386  PHE386      0.1605
     41  C         23.3400    3.8220   21.7460 C.2   386  PHE386      0.2264
     42  O         24.0880    4.6490   22.2590 O.2   386  PHE386     -0.2867
     43  CB        22.2140    5.2090   20.0140 C.3   386  PHE386      0.0534
     44  CG        22.2770    5.7370   18.6070 C.ar  386  PHE386     -0.0203
     45  CD1       23.0240    5.0760   17.6340 C.ar  386  PHE386     -0.0042
     46  CD2       21.6150    6.9090   18.2590 C.ar  386  PHE386     -0.0042
     47  CE1       23.1190    5.5760   16.3540 C.ar  386  PHE386     -0.0003
     48  CE2       21.6950    7.4080   16.9660 C.ar  386  PHE386     -0.0003
     49  CZ        22.4470    6.7370   16.0190 C.ar  386  PHE386     -0.0000
     50  N         23.7670   10.1080    5.7410 N.3   407  LEU407     -0.1245
     51  CA        22.6800   10.6320    6.5620 C.3   407  LEU407      0.1561
     52  C         21.9010   11.7410    5.8960 C.2   407  LEU407      0.2260
     53  O         20.6760   11.6630    5.8140 O.2   407  LEU407     -0.2867
     54  CB        23.2000   11.1000    7.9360 C.3   407  LEU407      0.0270
     55  CG        23.7180   10.0280    8.8780 C.3   407  LEU407      0.0019
     56  CD1       24.4010   10.6390   10.0720 C.3   407  LEU407      0.0001
     57  CD2       22.6260    9.0760    9.2960 C.3   407  LEU407      0.0001
     58  N         20.3710   13.1890    3.3340 N.3   409  ARG409     -0.1245
     59  CA        19.7140   12.9680    2.0530 C.3   409  ARG409      0.1563
     60  C         18.2220   13.1510    2.1610 C.2   409  ARG409      0.2260
     61  O         17.6470   12.9160    3.2250 O.2   409  ARG409     -0.2867
     62  CB        20.0630   11.6090    1.4030 C.3   409  ARG409      0.0307
     63  CG        20.7450   10.5640    2.2810 C.3   409  ARG409      0.0489
     64  CD        21.1230    9.3600    1.4420 C.3   409  ARG409      0.2205
     65  NE        22.4210    9.5220    0.7690 N.pl3 409  ARG409     -0.0865
     66  CZ        22.5860    9.6000   -0.5500 C.cat 409  ARG409      0.5346
     67  NH1       21.5490    9.5200   -1.3620 N.pl3 409  ARG409      0.1354
     68  NH2       23.7990    9.7490   -1.0610 N.pl3 409  ARG409      0.1354
     69  N         16.8830    7.6810   -0.3280 N.3   414  SER414     -0.1217
     70  CA        16.9880    6.6340    0.6960 C.3   414  SER414      0.1889
     71  C         18.1470    5.6620    0.4720 C.2   414  SER414      0.2288
     72  O         18.2410    5.0440   -0.5860 O.2   414  SER414     -0.2866
     73  CB        15.6670    5.8770    0.8450 C.3   414  SER414      0.2089
     74  OG        14.6230    6.3580    0.0090 O.3   414  SER414     -0.2183
     75  N         19.4790    4.2640    3.7300 N.3   416  LEU416     -0.1245
     76  CA        19.3750    3.5820    5.0130 C.3   416  LEU416      0.1561
     77  C         18.1300    2.7270    5.1620 C.2   416  LEU416      0.2260
     78  O         17.0650    3.0330    4.6210 O.2   416  LEU416     -0.2867
     79  CB        19.4830    4.5780    6.1850 C.3   416  LEU416      0.0270
     80  CG        20.7560    5.4330    6.2390 C.3   416  LEU416      0.0019
     81  CD1       20.6780    6.4440    7.3410 C.3   416  LEU416      0.0001
     82  CD2       21.9970    4.5870    6.3980 C.3   416  LEU416      0.0001
     83  N         16.5050    1.7420    8.2840 N.3   418  MET418     -0.1245
     84  CA        16.2380    1.9770    9.7090 C.3   418  MET418      0.1570
     85  C         15.6510    0.7850   10.4860 C.2   418  MET418      0.2261
     86  O         15.5350    0.8400   11.7130 O.2   418  MET418     -0.2867
     87  CB        15.3490    3.2120    9.8850 C.3   418  MET418      0.0387
     88  CG        15.9320    4.1940   10.8340 C.3   418  MET418      0.0595
     89  SD        17.3570    5.0110   10.1150 S.3   418  MET418     -0.1393
     90  CE        16.9850    6.4800   10.5690 C.3   418  MET418      0.0692
     91  N         24.1620    1.2720   11.3080 N.3   427  LEU427     -0.1245
     92  CA        23.3980    2.1870   10.4480 C.3   427  LEU427      0.1561
     93  C         23.7290    2.0730    8.9640 C.2   427  LEU427      0.2260
     94  O         22.8170    2.1790    8.1520 O.2   427  LEU427     -0.2867
     95  CB        23.6120    3.6630   10.8880 C.3   427  LEU427      0.0270
     96  CG        22.5430    4.3550   11.7470 C.3   427  LEU427      0.0019
     97  CD1       21.1420    4.2140   11.1380 C.3   427  LEU427      0.0001
     98  CD2       22.5700    3.8650   13.1700 C.3   427  LEU427      0.0001
     99  N         21.1840   10.4960   23.5320 N.3   465  TYR465     -0.1241
    100  CA        20.2790    9.3290   23.4680 C.3   465  TYR465      0.1605
    101  C         20.4900    8.3650   24.6320 C.2   465  TYR465      0.2264
    102  O         19.7740    7.3680   24.7320 O.2   465  TYR465     -0.2867
    103  CB        20.5720    8.5140   22.1990 C.3   465  TYR465      0.0534
    104  CG        20.0620    9.1110   20.9110 C.ar  465  TYR465     -0.0201
    105  CD1       18.7560    8.8870   20.4850 C.ar  465  TYR465     -0.0009
    106  CD2       20.9030    9.8450   20.0810 C.ar  465  TYR465     -0.0009
    107  CE1       18.3010    9.3800   19.2650 C.ar  465  TYR465      0.0417
    108  CE2       20.4570   10.3470   18.8610 C.ar  465  TYR465      0.0417
    109  CZ        19.1540   10.1210   18.4670 C.ar  465  TYR465      0.1957
    110  OH        18.7090   10.6450   17.2940 O.3   465  TYR465     -0.2866
    111  N          9.1300   12.3140    7.1500 N.3   495  ASP495     -0.1225
    112  CA        10.0460   11.9030    8.2130 C.3   495  ASP495      0.1805
    113  C          9.4740   10.5450    8.6510 C.2   495  ASP495      0.2598
    114  O          8.3180   10.4790    9.0690 O.2   495  ASP495     -0.2718
    115  CB        10.1070   12.9030    9.3900 C.3   495  ASP495      0.1424
    116  CG        11.2320   12.6100   10.3740 C.2   495  ASP495      0.3668
    117  OD1       11.5320   11.4240   10.5940 O.co2 495  ASP495     -0.2456
    118  OD2       11.8000   13.5710   10.9260 O.co2 495  ASP495     -0.2456
    119  N         10.2240    9.4560    8.4160 N.am  496  PHE496     -0.1962
    120  CA         9.7100    8.1220    8.7050 C.3   496  PHE496      0.1771
    121  C          9.9820    7.6070   10.1030 C.2   496  PHE496      0.2619
    122  O          9.6890    6.4530   10.3980 O.2   496  PHE496     -0.2715
    123  CB        10.0510    7.1110    7.5890 C.3   496  PHE496      0.0574
    124  CG         9.5820    7.5240    6.2160 C.ar  496  PHE496     -0.0200
    125  CD1        8.2580    7.9080    6.0000 C.ar  496  PHE496     -0.0042
    126  CD2       10.4720    7.5740    5.1470 C.ar  496  PHE496     -0.0042
    127  CE1        7.8290    8.3170    4.7360 C.ar  496  PHE496     -0.0003
    128  CE2       10.0430    7.9730    3.8800 C.ar  496  PHE496     -0.0003
    129  CZ         8.7240    8.3440    3.6840 C.ar  496  PHE496     -0.0000
    130  N         10.5270    8.4570   10.9780 N.am  497  VAL497     -0.1963
    131  CA        10.7520    8.1150   12.3870 C.3   497  VAL497      0.1727
    132  C          9.8230    9.0590   13.1810 C.2   497  VAL497      0.2616
    133  O          8.9440    8.5950   13.9090 O.2   497  VAL497     -0.2715
    134  CB        12.2530    8.2370   12.8040 C.3   497  VAL497      0.0290
    135  CG1       12.4410    8.1330   14.3150 C.3   497  VAL497      0.0023
    136  CG2       13.1190    7.2030   12.0950 C.3   497  VAL497      0.0023
    137  N          9.9620   10.3800   12.9430 N.am  498  LEU498     -0.1977
    138  CA         9.1470   11.4220   13.5730 C.3   498  LEU498      0.1596
    139  C          8.0140   11.7560   12.6380 C.2   498  LEU498      0.2287
    140  O          7.9710   12.8100   11.9950 O.2   498  LEU498     -0.2864
    141  CB        10.0000   12.6510   13.9360 C.3   498  LEU498      0.0297
    142  CG        11.2510   12.3390   14.7580 C.3   498  LEU498      0.0022
    143  CD1       12.2060   13.5050   14.7500 C.3   498  LEU498      0.0001
    144  CD2       10.9010   11.8720   16.1740 C.3   498  LEU498      0.0001
    145  N         13.5090   14.0690    7.1100 N.3   523  HIS523     -0.1226
    146  CA        13.9590   14.3930    8.4630 C.3   523  HIS523      0.1752
    147  C         14.7800   15.6800    8.5600 C.2   523  HIS523      0.2596
    148  O         14.6490   16.4090    9.5400 O.2   523  HIS523     -0.2718
    149  CB        14.7630   13.2250    9.0510 C.3   523  HIS523      0.0759
    150  CG        15.3210   13.5340   10.4050 C.ar  523  HIS523      0.0818
    151  ND1       14.4960   13.6200   11.5150 N.ar  523  HIS523     -0.2268
    152  CD2       16.5800   13.8750   10.7650 C.ar  523  HIS523      0.1154
    153  CE1       15.2810   13.9750   12.5120 C.ar  523  HIS523      0.1986
    154  NE2       16.5440   14.1310   12.1110 N.ar  523  HIS523     -0.2212
    155  N         15.6540   15.9310    7.5690 N.am  524  TRP524     -0.1976
    156  CA        16.5580   17.0860    7.5200 C.3   524  TRP524      0.1640
    157  C         15.8310   18.3180    6.9940 C.2   524  TRP524      0.2290
    158  O         16.3000   18.9770    6.0620 O.2   524  TRP524     -0.2864
    159  CB        17.8270   16.7420    6.7140 C.3   524  TRP524      0.0576
    160  CG        18.3840   15.3990    7.0850 C.ar  524  TRP524      0.0006
    161  CD1       18.2110   14.2310    6.4020 C.ar  524  TRP524      0.0946
    162  CD2       19.0120   15.0480    8.3250 C.ar  524  TRP524      0.0152
    163  NE1       18.7450   13.1820    7.1110 N.ar  524  TRP524     -0.2442
    164  CE2       19.2680   13.6550    8.2820 C.ar  524  TRP524      0.0810
    165  CE3       19.4350   15.7770    9.4440 C.ar  524  TRP524      0.0012
    166  CZ2       19.9240   12.9810    9.3080 C.ar  524  TRP524      0.0191
    167  CZ3       20.1000   15.1030   10.4570 C.ar  524  TRP524      0.0001
    168  CH2       20.3300   13.7210   10.3860 C.ar  524  TRP524      0.0015
@<TRIPOS>BOND
     1    67    66    1
     2    68    66    1
     3    72    71    2
     4    66    65    2
     5    69    70    1
     6    74    73    1
     7    71    70    1
     8    70    73    1
     9    65    64    1
    10    62    59    1
    11    62    63    1
    12    64    63    1
    13    59    60    1
    14    59    58    1
    15    60    61    2
    16   129   128   ar
    17   129   127   ar
    18    75    76    1
    19   128   126   ar
    20    78    77    2
    21   127   125   ar
    22    76    77    1
    23    76    79    1
    24   126   124   ar
    25    50    51    1
    26    53    52    2
    27    52    51    1
    28   125   124   ar
    29   158   157    2
    30    79    80    1
    31   124   123    1
    32    80    82    1
    33    80    81    1
    34   161   160   ar
    35   161   163   ar
    36    51    54    1
    37   159   160    1
    38   159   156    1
    39   157   156    1
    40   160   162   ar
    41   145   146    1
    42   163   164   ar
    43   111   112    1
    44   156   155    1
    45   155   147   am
    46   123   120    1
    47    54    55    1
    48    94    93    2
    49   112   113    1
    50   112   115    1
    51   164   162   ar
    52   164   166   ar
    53    83    84    1
    54   162   165   ar
    55   119   113   am
    56   119   120    1
    57   146   147    1
    58   146   149    1
    59   147   148    2
    60   113   114    2
    61   120   121    1
    62    55    57    1
    63    55    56    1
    64    93    92    1
    65   149   150    1
    66   166   168   ar
    67   115   116    1
    68   165   167   ar
    69    84    87    1
    70    84    85    1
    71    87    88    1
    72   121   122    2
    73   121   130   am
    74    89    90    1
    75    89    88    1
    76   116   117   ar
    77   116   118   ar
    78   168   167   ar
    79   150   152   ar
    80   150   151   ar
    81    92    95    1
    82    92    91    1
    83    85    86    2
    84   152   154   ar
    85    95    96    1
    86   130   131    1
    87    97    96    1
    88   151   153   ar
    89    96    98    1
    90   140   139    2
    91   136   134    1
    92   154   153   ar
    93   131   134    1
    94   131   132    1
    95   139   138    1
    96    15    14    2
    97    18    17    1
    98    18    12    1
    99   134   135    1
   100   137   132   am
   101   137   138    1
   102    17    16    1
   103   132   133    2
   104   138   141    1
   105    14    13    1
   106   141   142    1
   107     4     3    2
   108    12     3   am
   109    12    13    1
   110    16    13    1
   111     3     2    1
   112   143   142    1
   113   142   144    1
   114    31    32    1
   115    31    28    1
   116    33    32   ar
   117    33    35   ar
   118    32    34   ar
   119    35    37   ar
   120    23    24    1
   121    23    20    1
   122    25    24   ar
   123     9     7   ar
   124     9    11   ar
   125    34    36   ar
   126    24    26   ar
   127     7     6   ar
   128    19    20    1
   129     2     1    1
   130     2     5    1
   131    28    27    1
   132    28    29    1
   133    37    36   ar
   134    37    38    1
   135    49    47   ar
   136    49    48   ar
   137    47    45   ar
   138    20    21    1
   139    11    10   ar
   140     6     5    1
   141     6     8   ar
   142    48    46   ar
   143   110   109    1
   144    29    30    2
   145    10     8   ar
   146    45    44   ar
   147    21    22    2
   148    46    44   ar
   149   109   108   ar
   150   109   107   ar
   151    44    43    1
   152   108   106   ar
   153   107   105   ar
   154    39    40    1
   155    43    40    1
   156   106   104   ar
   157    40    41    1
   158   105   104   ar
   159   104   103    1
   160    41    42    2
   161   103   100    1
   162   100    99    1
   163   100   101    1
   164   101   102    2
