@<TRIPOS>MOLECULE
tmp/5allA00.pdb
 138 138 0 0 0
SMALL
GASTEIGER

@<TRIPOS>ATOM
      1  N         20.4210   15.6570   16.1240 N.3   266  PHE266     -0.1228
      2  CA        21.4870   14.6890   15.9900 C.3   266  PHE266      0.1721
      3  C         21.6080   14.1870   14.5620 C.2   266  PHE266      0.2437
      4  O         20.6080   13.7360   14.0080 O.2   266  PHE266     -0.2733
      5  CB        21.2330   13.4830   16.9310 C.3   266  PHE266      0.0547
      6  CG        22.2160   12.3450   16.7620 C.ar  266  PHE266     -0.0202
      7  CD1       22.0140   11.3660   15.7930 C.ar  266  PHE266     -0.0042
      8  CD2       23.3410   12.2480   17.5730 C.ar  266  PHE266     -0.0042
      9  CE1       22.9420   10.3340   15.6120 C.ar  266  PHE266     -0.0003
     10  CE2       24.2510   11.1960   17.4160 C.ar  266  PHE266     -0.0003
     11  CZ        24.0530   10.2540   16.4280 C.ar  266  PHE266     -0.0000
     12  N         22.8240   14.0840   13.9900 N.am  267  PRO267     -0.2729
     13  CA        24.1450   14.5150   14.4840 C.3   267  PRO267      0.1401
     14  C         24.4680   15.8070   13.7290 C.2   267  PRO267      0.2269
     15  O         25.0240   15.7710   12.6170 O.2   267  PRO267     -0.2865
     16  CB        25.0410   13.3380   14.0550 C.3   267  PRO267      0.0296
     17  CG        24.2640   12.6410   12.8630 C.3   267  PRO267      0.0237
     18  CD        22.9760   13.4290   12.6770 C.3   267  PRO267      0.0939
     19  N         14.5820   17.9100   15.8870 N.3   334  ASP334     -0.1225
     20  CA        15.0230   16.5910   16.3450 C.3   334  ASP334      0.1805
     21  C         15.3210   16.6140   17.8620 C.2   334  ASP334      0.2597
     22  O         14.4120   16.9470   18.6220 O.2   334  ASP334     -0.2718
     23  CB        16.1890   16.0780   15.4450 C.3   334  ASP334      0.1424
     24  CG        16.6450   14.6780   15.7810 C.2   334  ASP334      0.3668
     25  OD1       15.9110   13.7260   15.4560 O.co2 334  ASP334     -0.2456
     26  OD2       17.6810   14.5440   16.4680 O.co2 334  ASP334     -0.2456
     27  N         16.5730   16.3150   18.3170 N.am  335  TRP335     -0.1976
     28  CA        16.9150   16.3910   19.7410 C.3   335  TRP335      0.1640
     29  C         16.7400   17.8170   20.3080 C.2   335  TRP335      0.2290
     30  O         16.2960   17.9700   21.4470 O.2   335  TRP335     -0.2864
     31  CB        18.3080   15.8190   20.0370 C.3   335  TRP335      0.0576
     32  CG        18.2650   14.3860   20.4860 C.ar  335  TRP335      0.0006
     33  CD1       18.7440   13.3060   19.8090 C.ar  335  TRP335      0.0946
     34  CD2       17.6330   13.8690   21.6740 C.ar  335  TRP335      0.0152
     35  NE1       18.4970   12.1530   20.5220 N.ar  335  TRP335     -0.2442
     36  CE2       17.8080   12.4670   21.6650 C.ar  335  TRP335      0.0810
     37  CE3       16.9560   14.4570   22.7590 C.ar  335  TRP335      0.0012
     38  CZ2       17.3210   11.6390   22.6900 C.ar  335  TRP335      0.0191
     39  CZ3       16.4860   13.6380   23.7810 C.ar  335  TRP335      0.0001
     40  CH2       16.6600   12.2470   23.7370 C.ar  335  TRP335      0.0015
     41  N         17.3930    1.7370   15.9260 N.3   382  TYR382     -0.1241
     42  CA        18.6990    2.4060   15.8640 C.3   382  TYR382      0.1605
     43  C         19.1150    2.9920   17.2440 C.2   382  TYR382      0.2264
     44  O         20.3040    3.0200   17.5620 O.2   382  TYR382     -0.2867
     45  CB        18.7060    3.4910   14.7580 C.3   382  TYR382      0.0534
     46  CG        18.0760    4.8080   15.1680 C.ar  382  TYR382     -0.0201
     47  CD1       18.8370    5.8070   15.7740 C.ar  382  TYR382     -0.0009
     48  CD2       16.7230    5.0550   14.9590 C.ar  382  TYR382     -0.0009
     49  CE1       18.2580    7.0020   16.1960 C.ar  382  TYR382      0.0417
     50  CE2       16.1380    6.2610   15.3500 C.ar  382  TYR382      0.0417
     51  CZ        16.9140    7.2340   15.9640 C.ar  382  TYR382      0.1957
     52  OH        16.3600    8.4250   16.3700 O.3   382  TYR382     -0.2866
     53  N         22.4720    2.5360   19.7370 N.3   386  PHE386     -0.1241
     54  CA        23.1730    3.7100   20.2530 C.3   386  PHE386      0.1605
     55  C         23.4420    3.6440   21.7580 C.2   386  PHE386      0.2264
     56  O         24.1670    4.4960   22.2700 O.2   386  PHE386     -0.2867
     57  CB        22.3580    4.9810   19.9250 C.3   386  PHE386      0.0534
     58  CG        22.4170    5.5140   18.5100 C.ar  386  PHE386     -0.0203
     59  CD1       23.1240    4.8400   17.5210 C.ar  386  PHE386     -0.0042
     60  CD2       21.7770    6.6990   18.1720 C.ar  386  PHE386     -0.0042
     61  CE1       23.1930    5.3440   16.2220 C.ar  386  PHE386     -0.0003
     62  CE2       21.8550    7.2090   16.8740 C.ar  386  PHE386     -0.0003
     63  CZ        22.5530    6.5230   15.9040 C.ar  386  PHE386     -0.0000
     64  N         23.7250    9.8410    5.9120 N.3   407  LEU407     -0.1245
     65  CA        22.6300   10.4080    6.7090 C.3   407  LEU407      0.1561
     66  C         21.8370   11.5050    6.0160 C.2   407  LEU407      0.2260
     67  O         20.6110   11.4200    5.9450 O.2   407  LEU407     -0.2867
     68  CB        23.1390   10.9040    8.0740 C.3   407  LEU407      0.0270
     69  CG        23.6540    9.8450    9.0370 C.3   407  LEU407      0.0019
     70  CD1       24.4970   10.4710   10.0990 C.3   407  LEU407      0.0001
     71  CD2       22.5150    9.0280    9.6430 C.3   407  LEU407      0.0001
     72  N         16.4620    1.5820    8.2340 N.3   418  MET418     -0.1245
     73  CA        16.2750    1.7780    9.6790 C.3   418  MET418      0.1570
     74  C         15.8040    0.4920   10.3900 C.2   418  MET418      0.2261
     75  O         15.9170    0.3920   11.6160 O.2   418  MET418     -0.2867
     76  CB        15.3170    2.9540    9.9630 C.3   418  MET418      0.0387
     77  CG        15.9080    4.3280    9.6550 C.3   418  MET418      0.0595
     78  SD        17.1520    4.8950   10.8480 S.3   418  MET418     -0.1393
     79  CE        18.5770    4.8870    9.8320 C.3   418  MET418      0.0692
     80  N         24.4100    0.8080   11.3220 N.3   427  LEU427     -0.1245
     81  CA        23.6410    1.7350   10.4880 C.3   427  LEU427      0.1561
     82  C         23.9740    1.6810    9.0040 C.2   427  LEU427      0.2260
     83  O         23.0690    1.8530    8.1890 O.2   427  LEU427     -0.2867
     84  CB        23.8530    3.1860   10.9650 C.3   427  LEU427      0.0270
     85  CG        23.0680    3.6780   12.1780 C.3   427  LEU427      0.0019
     86  CD1       23.5880    5.0290   12.6230 C.3   427  LEU427      0.0001
     87  CD2       21.5790    3.7870   11.8730 C.3   427  LEU427      0.0001
     88  N         21.1100   10.3800   23.5850 N.3   465  TYR465     -0.1241
     89  CA        20.2740    9.1720   23.5080 C.3   465  TYR465      0.1605
     90  C         20.4720    8.2200   24.6880 C.2   465  TYR465      0.2264
     91  O         19.7340    7.2390   24.8080 O.2   465  TYR465     -0.2867
     92  CB        20.6470    8.3880   22.2370 C.3   465  TYR465      0.0534
     93  CG        20.0360    8.9020   20.9550 C.ar  465  TYR465     -0.0201
     94  CD1       18.7140    8.6030   20.6250 C.ar  465  TYR465     -0.0009
     95  CD2       20.7950    9.6120   20.0310 C.ar  465  TYR465     -0.0009
     96  CE1       18.1640    9.0100   19.4100 C.ar  465  TYR465      0.0417
     97  CE2       20.2580   10.0220   18.8120 C.ar  465  TYR465      0.0417
     98  CZ        18.9410    9.7160   18.5070 C.ar  465  TYR465      0.1957
     99  OH        18.3880   10.1380   17.3290 O.3   465  TYR465     -0.2866
    100  N         10.8930    8.5450   10.7420 N.3   497  VAL497     -0.1231
    101  CA        11.2240    8.3040   12.1530 C.3   497  VAL497      0.1692
    102  C         10.3040    9.1900   13.0190 C.2   497  VAL497      0.2591
    103  O          9.6030    8.6780   13.8960 O.2   497  VAL497     -0.2718
    104  CB        12.7330    8.5060   12.4640 C.3   497  VAL497      0.0266
    105  CG1       13.0300    8.2970   13.9510 C.3   497  VAL497      0.0020
    106  CG2       13.5960    7.5810   11.6070 C.3   497  VAL497      0.0020
    107  N         10.2970   10.5120   12.7450 N.am  498  LEU498     -0.1980
    108  CA         9.4550   11.4870   13.4410 C.3   498  LEU498      0.1596
    109  C          8.2580   11.7940   12.5440 C.2   498  LEU498      0.2287
    110  O          8.1830   12.8440   11.9020 O.2   498  LEU498     -0.2864
    111  CB        10.2540   12.7550   13.8370 C.3   498  LEU498      0.0297
    112  CG        11.4970   12.5320   14.7280 C.3   498  LEU498      0.0022
    113  CD1       12.3150   13.8110   14.8660 C.3   498  LEU498      0.0001
    114  CD2       11.1120   12.0030   16.1190 C.3   498  LEU498      0.0001
    115  N         13.4840   13.9600    7.0210 N.3   523  HIS523     -0.1226
    116  CA        13.9220   14.2820    8.3800 C.3   523  HIS523      0.1752
    117  C         14.7350   15.5660    8.4960 C.2   523  HIS523      0.2596
    118  O         14.5640   16.2820    9.4750 O.2   523  HIS523     -0.2718
    119  CB        14.6740   13.1110    9.0340 C.3   523  HIS523      0.0759
    120  CG        15.1010   13.4040   10.4420 C.ar  523  HIS523      0.0818
    121  ND1       16.4020   13.7850   10.7380 N.ar  523  HIS523     -0.2268
    122  CD2       14.3700   13.4330   11.5800 C.ar  523  HIS523      0.1154
    123  CE1       16.4190   14.0120   12.0380 C.ar  523  HIS523      0.1986
    124  NE2       15.2220   13.8120   12.5880 N.ar  523  HIS523     -0.2212
    125  N         15.6010   15.8570    7.5060 N.am  524  TRP524     -0.1976
    126  CA        16.5030   17.0220    7.4810 C.3   524  TRP524      0.1640
    127  C         15.7860   18.2530    6.9320 C.2   524  TRP524      0.2290
    128  O         16.2450   18.9020    5.9900 O.2   524  TRP524     -0.2864
    129  CB        17.8100   16.6810    6.7350 C.3   524  TRP524      0.0576
    130  CG        18.2840   15.2860    7.0290 C.ar  524  TRP524      0.0006
    131  CD1       18.0580   14.1740    6.2720 C.ar  524  TRP524      0.0946
    132  CD2       18.9080   14.8260    8.2420 C.ar  524  TRP524      0.0152
    133  NE1       18.5370   13.0550    6.9140 N.ar  524  TRP524     -0.2442
    134  CE2       19.0870   13.4280    8.1150 C.ar  524  TRP524      0.0810
    135  CE3       19.3710   15.4640    9.4080 C.ar  524  TRP524      0.0012
    136  CZ2       19.7040   12.6570    9.1100 C.ar  524  TRP524      0.0191
    137  CZ3       19.9890   14.7010   10.3890 C.ar  524  TRP524      0.0001
    138  CH2       20.1460   13.3150   10.2380 C.ar  524  TRP524      0.0015
@<TRIPOS>BOND
     1    64    65    1
     2    67    66    2
     3   128   127    2
     4    66    65    1
     5   131   133   ar
     6   131   130   ar
     7    65    68    1
     8   129   130    1
     9   129   126    1
    10   133   134   ar
    11   127   126    1
    12   115   116    1
    13   130   132   ar
    14   126   125    1
    15   125   117   am
    16    68    69    1
    17   134   132   ar
    18   134   136   ar
    19    83    82    2
    20    72    73    1
    21   132   135   ar
    22   116   117    1
    23   116   119    1
    24   117   118    2
    25    82    81    1
    26   119   120    1
    27    69    71    1
    28    69    70    1
    29   136   138   ar
    30   135   137   ar
    31    77    76    1
    32    77    78    1
    33    73    76    1
    34    73    74    1
    35    79    78    1
    36   138   137   ar
    37    74    75    2
    38   120   121   ar
    39   120   122   ar
    40    81    84    1
    41    81    80    1
    42   121   123   ar
    43   100   101    1
    44    84    85    1
    45   122   124   ar
    46   106   104    1
    47    87    85    1
    48   110   109    2
    49   123   124   ar
    50   101   104    1
    51   101   102    1
    52    85    86    1
    53   104   105    1
    54   109   108    1
    55    15    14    2
    56    18    17    1
    57    18    12    1
    58   107   102   am
    59   107   108    1
    60    17    16    1
    61   102   103    2
    62   108   111    1
    63    14    13    1
    64   111   112    1
    65    12    13    1
    66    12     3   am
    67     4     3    2
    68    16    13    1
    69     3     2    1
    70   112   113    1
    71   112   114    1
    72    45    46    1
    73    45    42    1
    74    48    46   ar
    75    48    50   ar
    76    46    47   ar
    77    50    51   ar
    78    23    24    1
    79    23    20    1
    80    25    24   ar
    81     9     7   ar
    82     9    11   ar
    83    47    49   ar
    84    24    26   ar
    85     7     6   ar
    86    42    41    1
    87    42    43    1
    88    19    20    1
    89    63    61   ar
    90    63    62   ar
    91    51    49   ar
    92    51    52    1
    93     2     1    1
    94     2     5    1
    95    61    59   ar
    96    20    21    1
    97    11    10   ar
    98     6     5    1
    99     6     8   ar
   100    62    60   ar
   101    43    44    2
   102    99    98    1
   103    10     8   ar
   104    59    58   ar
   105    21    27   am
   106    21    22    2
   107    60    58   ar
   108    27    28    1
   109    98    97   ar
   110    98    96   ar
   111    58    57    1
   112    97    95   ar
   113    96    94   ar
   114    53    54    1
   115    28    31    1
   116    28    29    1
   117    33    32   ar
   118    33    35   ar
   119    57    54    1
   120    95    93   ar
   121    31    32    1
   122    54    55    1
   123    29    30    2
   124    32    34   ar
   125    35    36   ar
   126    94    93   ar
   127    93    92    1
   128    36    34   ar
   129    36    38   ar
   130    34    37   ar
   131    55    56    2
   132    92    89    1
   133    38    40   ar
   134    37    39   ar
   135    89    88    1
   136    89    90    1
   137    40    39   ar
   138    90    91    2
