@<TRIPOS>MOLECULE
tmp/5almA00.pdb
 203 198 0 0 0
SMALL
GASTEIGER

@<TRIPOS>ATOM
      1  N         20.3120   15.6470   16.1690 N.3   266  PHE266     -0.1228
      2  CA        21.4010   14.6970   16.0580 C.3   266  PHE266      0.1721
      3  C         21.5590   14.1880   14.6360 C.2   266  PHE266      0.2437
      4  O         20.5580   13.7710   14.0500 O.2   266  PHE266     -0.2733
      5  CB        21.1400   13.5070   17.0090 C.3   266  PHE266      0.0547
      6  CG        22.1540   12.3890   16.9200 C.ar  266  PHE266     -0.0202
      7  CD1       22.0330   11.3900   15.9620 C.ar  266  PHE266     -0.0042
      8  CD2       23.2180   12.3240   17.8070 C.ar  266  PHE266     -0.0042
      9  CE1       22.9900   10.3780   15.8530 C.ar  266  PHE266     -0.0003
     10  CE2       24.1630   11.2940   17.7190 C.ar  266  PHE266     -0.0003
     11  CZ        24.0450   10.3310   16.7400 C.ar  266  PHE266     -0.0000
     12  N         22.7990   14.0600   14.1100 N.am  267  PRO267     -0.2729
     13  CA        24.1040   14.5120   14.6250 C.3   267  PRO267      0.1401
     14  C         24.4090   15.7870   13.8580 C.2   267  PRO267      0.2269
     15  O         24.9460   15.7400   12.7500 O.2   267  PRO267     -0.2865
     16  CB        25.0340   13.3660   14.1940 C.3   267  PRO267      0.0296
     17  CG        24.3080   12.6780   13.0030 C.3   267  PRO267      0.0237
     18  CD        22.9980   13.4170   12.8020 C.3   267  PRO267      0.0939
     19  N         14.4260   17.9510   15.8730 N.3   334  ASP334     -0.1225
     20  CA        14.9240   16.6410   16.3060 C.3   334  ASP334      0.1805
     21  C         15.2040   16.6050   17.8210 C.2   334  ASP334      0.2597
     22  O         14.2850   16.8980   18.5760 O.2   334  ASP334     -0.2718
     23  CB        16.1200   16.2220   15.4120 C.3   334  ASP334      0.1424
     24  CG        16.6100   14.8370   15.7110 C.2   334  ASP334      0.3668
     25  OD1       15.9190   13.8900   15.3430 O.co2 334  ASP334     -0.2456
     26  OD2       17.6060   14.7110   16.4530 O.co2 334  ASP334     -0.2456
     27  N         16.4460   16.2950   18.2860 N.am  335  TRP335     -0.1976
     28  CA        16.7470   16.3200   19.7240 C.3   335  TRP335      0.1640
     29  C         16.5710   17.7550   20.2930 C.2   335  TRP335      0.2290
     30  O         16.1190   17.9140   21.4310 O.2   335  TRP335     -0.2864
     31  CB        18.1500   15.7690   20.0300 C.3   335  TRP335      0.0576
     32  CG        18.1620   14.3580   20.5330 C.ar  335  TRP335      0.0006
     33  CD1       18.7480   13.2890   19.9310 C.ar  335  TRP335      0.0946
     34  CD2       17.5660   13.8630   21.7420 C.ar  335  TRP335      0.0152
     35  NE1       18.5600   12.1550   20.6900 N.ar  335  TRP335     -0.2442
     36  CE2       17.8380   12.4800   21.8070 C.ar  335  TRP335      0.0810
     37  CE3       16.8570   14.4640   22.7960 C.ar  335  TRP335      0.0012
     38  CZ2       17.4040   11.6800   22.8690 C.ar  335  TRP335      0.0191
     39  CZ3       16.4220   13.6720   23.8430 C.ar  335  TRP335      0.0001
     40  CH2       16.7050   12.2980   23.8810 C.ar  335  TRP335      0.0015
     41  N         13.0250   18.2450   21.1140 N.3   338  MET338     -0.1245
     42  CA        12.6930   17.6510   22.4070 C.3   338  MET338      0.1570
     43  C         13.0910   18.5980   23.5540 C.2   338  MET338      0.2261
     44  O         12.3130   18.7650   24.4970 O.2   338  MET338     -0.2867
     45  CB        13.3830   16.2930   22.5860 C.3   338  MET338      0.0387
     46  CG        12.8530   15.5000   23.7500 C.3   338  MET338      0.0595
     47  SD        11.5350   14.3740   23.2630 S.3   338  MET338     -0.1393
     48  CE        10.0580   15.4270   23.4940 C.3   338  MET338      0.0692
     49  N          9.7920   16.9670   15.7530 N.3   359  THR359     -0.1218
     50  CA         9.6580   16.3740   17.0810 C.3   359  THR359      0.1862
     51  C          8.3660   16.7570   17.7480 C.2   359  THR359      0.2287
     52  O          8.1640   17.9350   18.0400 O.2   359  THR359     -0.2866
     53  CB        10.8320   16.7330   17.9860 C.3   359  THR359      0.1770
     54  OG1       12.0080   16.5410   17.2460 O.3   359  THR359     -0.2211
     55  CG2       10.8760   15.8770   19.2670 C.3   359  THR359      0.0375
     56  N          5.7240   14.5030   23.4700 N.3   362  ILE362     -0.1245
     57  CA         5.1440   13.2740   24.0070 C.3   362  ILE362      0.1561
     58  C          5.4340   13.2610   25.4990 C.2   362  ILE362      0.2260
     59  O          6.6040   13.3390   25.8930 O.2   362  ILE362     -0.2867
     60  CB         5.5710   11.9340   23.3330 C.3   362  ILE362      0.0252
     61  CG1        5.9630   12.0980   21.8560 C.3   362  ILE362      0.0019
     62  CG2        4.4800   10.8650   23.5140 C.3   362  ILE362      0.0019
     63  CD1        7.5120   12.1510   21.6190 C.3   362  ILE362      0.0001
     64  N          8.7930    1.2330   26.3650 N.3   373  SER373     -0.1202
     65  CA         8.2050    2.1340   25.3810 C.3   373  SER373      0.2020
     66  C          8.8490    1.9350   24.0120 C.2   373  SER373      0.2618
     67  O          8.1260    1.9100   23.0120 O.2   373  SER373     -0.2717
     68  CB         8.2840    3.5790   25.8540 C.3   373  SER373      0.2103
     69  OG         7.5570    3.7370   27.0620 O.3   373  SER373     -0.2182
     70  N         10.1980    1.7370   23.9680 N.am  374  ILE374     -0.1979
     71  CA        10.9550    1.4520   22.7340 C.3   374  ILE374      0.1595
     72  C         10.4960    0.0720   22.1880 C.2   374  ILE374      0.2287
     73  O         10.5270   -0.1420   20.9760 O.2   374  ILE374     -0.2864
     74  CB        12.5190    1.5620   22.9160 C.3   374  ILE374      0.0276
     75  CG1       12.9980    2.9440   23.4790 C.3   374  ILE374      0.0022
     76  CG2       13.3040    1.1760   21.6450 C.3   374  ILE374      0.0022
     77  CD1       12.7210    4.2570   22.6350 C.3   374  ILE374      0.0001
     78  N         12.1360    3.0770   16.5390 N.3   380  PHE380     -0.1241
     79  CA        13.1290    3.4990   17.5310 C.3   380  PHE380      0.1605
     80  C         14.1230    2.4260   17.9770 C.2   380  PHE380      0.2264
     81  O         14.8140    2.6260   18.9790 O.2   380  PHE380     -0.2867
     82  CB        12.4260    4.1420   18.7520 C.3   380  PHE380      0.0534
     83  CG        11.5050    5.2990   18.4350 C.ar  380  PHE380     -0.0203
     84  CD1       11.9480    6.3750   17.6810 C.ar  380  PHE380     -0.0042
     85  CD2       10.2090    5.3290   18.9260 C.ar  380  PHE380     -0.0042
     86  CE1       11.0950    7.4380   17.3830 C.ar  380  PHE380     -0.0003
     87  CE2        9.3580    6.3990   18.6340 C.ar  380  PHE380     -0.0003
     88  CZ         9.8070    7.4450   17.8640 C.ar  380  PHE380     -0.0000
     89  N         17.0320    1.4300   16.5940 N.3   382  TYR382     -0.1227
     90  CA        18.4200    1.9090   16.4740 C.3   382  TYR382      0.1736
     91  C         18.9140    2.6060   17.7740 C.2   382  TYR382      0.2595
     92  O         20.1200    2.7190   17.9790 O.2   382  TYR382     -0.2718
     93  CB        18.5490    2.8740   15.2830 C.3   382  TYR382      0.0548
     94  CG        17.7650    4.1500   15.4810 C.ar  382  TYR382     -0.0200
     95  CD1       16.4070    4.2070   15.1880 C.ar  382  TYR382     -0.0009
     96  CD2       18.3640    5.2810   16.0300 C.ar  382  TYR382     -0.0009
     97  CE1       15.6690    5.3600   15.4230 C.ar  382  TYR382      0.0417
     98  CE2       17.6400    6.4460   16.2500 C.ar  382  TYR382      0.0417
     99  CZ        16.2900    6.4770   15.9510 C.ar  382  TYR382      0.1957
    100  OH        15.5600    7.6110   16.1750 O.3   382  TYR382     -0.2866
    101  N         17.9760    3.1280   18.6030 N.am  383  GLN383     -0.1979
    102  CA        18.2850    3.8060   19.8670 C.3   383  GLN383      0.1601
    103  C         18.8470    2.8220   20.8950 C.2   383  GLN383      0.2287
    104  O         19.6020    3.2310   21.7730 O.2   383  GLN383     -0.2864
    105  CB        17.0610    4.5400   20.4250 C.3   383  GLN383      0.0394
    106  CG        16.4760    5.5860   19.4820 C.3   383  GLN383      0.0908
    107  CD        15.5020    6.5350   20.1440 C.2   383  GLN383      0.2608
    108  OE1       15.3380    6.5670   21.3660 O.2   383  GLN383     -0.2717
    109  NE2       14.8520    7.3550   19.3400 N.am  383  GLN383     -0.0878
    110  N         22.4420    2.4910   20.2270 N.3   386  PHE386     -0.1241
    111  CA        23.1270    3.6830   20.7170 C.3   386  PHE386      0.1605
    112  C         23.4240    3.6140   22.2030 C.2   386  PHE386      0.2264
    113  O         24.1710    4.4550   22.6980 O.2   386  PHE386     -0.2867
    114  CB        22.2820    4.9340   20.4100 C.3   386  PHE386      0.0534
    115  CG        22.2110    5.3750   18.9680 C.ar  386  PHE386     -0.0203
    116  CD1       22.9250    4.7100   17.9800 C.ar  386  PHE386     -0.0042
    117  CD2       21.4620    6.4790   18.6040 C.ar  386  PHE386     -0.0042
    118  CE1       22.8760    5.1370   16.6580 C.ar  386  PHE386     -0.0003
    119  CE2       21.4150    6.9080   17.2800 C.ar  386  PHE386     -0.0003
    120  CZ        22.1250    6.2370   16.3150 C.ar  386  PHE386     -0.0000
    121  N         23.6560    9.9000    5.9640 N.3   407  LEU407     -0.1245
    122  CA        22.5370   10.4290    6.7490 C.3   407  LEU407      0.1561
    123  C         21.7750   11.5190    6.0500 C.2   407  LEU407      0.2260
    124  O         20.5510   11.4460    5.9530 O.2   407  LEU407     -0.2867
    125  CB        23.0330   10.9770    8.1060 C.3   407  LEU407      0.0270
    126  CG        23.6370   10.0020    9.0990 C.3   407  LEU407      0.0019
    127  CD1       24.4510   10.7540   10.1460 C.3   407  LEU407      0.0001
    128  CD2       22.5880    9.1730    9.7710 C.3   407  LEU407      0.0001
    129  N         16.6090    2.3490    8.9210 N.3   418  MET418     -0.1245
    130  CA        17.0780    2.4870   10.3090 C.3   418  MET418      0.1570
    131  C         16.3540    1.4000   11.0830 C.2   418  MET418      0.2261
    132  O         15.9390    1.5550   12.2430 O.2   418  MET418     -0.2867
    133  CB        16.8500    3.8950   10.8580 C.3   418  MET418      0.0387
    134  CG        18.1390    4.7450   10.8330 C.3   418  MET418      0.0595
    135  SD        17.9280    6.5380   11.1320 S.3   418  MET418     -0.1393
    136  CE        16.5050    6.8520   10.1100 C.3   418  MET418      0.0692
    137  N         21.0950   10.2250   24.0780 N.3   465  TYR465     -0.1241
    138  CA        20.2420    9.0250   24.0710 C.3   465  TYR465      0.1605
    139  C         20.4210    8.1290   25.2750 C.2   465  TYR465      0.2264
    140  O         19.6430    7.1840   25.4460 O.2   465  TYR465     -0.2867
    141  CB        20.6140    8.1470   22.8670 C.3   465  TYR465      0.0534
    142  CG        20.2700    8.7070   21.5160 C.ar  465  TYR465     -0.0201
    143  CD1       19.0290    8.4600   20.9350 C.ar  465  TYR465     -0.0009
    144  CD2       21.2220    9.3890   20.7640 C.ar  465  TYR465     -0.0009
    145  CE1       18.7410    8.8930   19.6410 C.ar  465  TYR465      0.0417
    146  CE2       20.9370    9.8470   19.4850 C.ar  465  TYR465      0.0417
    147  CZ        19.7010    9.5800   18.9220 C.ar  465  TYR465      0.1957
    148  OH        19.4350    9.9970   17.6520 O.3   465  TYR465     -0.2866
    149  N         17.7320    7.8690   29.2110 N.3   468  MET468     -0.1245
    150  CA        16.3280    7.4240   29.1580 C.3   468  MET468      0.1570
    151  C         15.5730    7.4010   30.4760 C.2   468  MET468      0.2261
    152  O         14.5520    8.0660   30.5820 O.2   468  MET468     -0.2867
    153  CB        16.1680    6.0960   28.4060 C.3   468  MET468      0.0387
    154  CG        16.6680    6.1710   26.9800 C.3   468  MET468      0.0595
    155  SD        15.8150    5.0350   25.8830 S.3   468  MET468     -0.1393
    156  CE        16.5750    5.4660   24.3100 C.3   468  MET468      0.0692
    157  N         10.7690    8.5360   10.8200 N.3   497  VAL497     -0.1231
    158  CA        11.0730    8.2840   12.2330 C.3   497  VAL497      0.1692
    159  C         10.1580    9.1510   13.0990 C.2   497  VAL497      0.2591
    160  O          9.4470    8.6320   13.9620 O.2   497  VAL497     -0.2718
    161  CB        12.5750    8.4620   12.5730 C.3   497  VAL497      0.0266
    162  CG1       12.8410    8.2270   14.0570 C.3   497  VAL497      0.0020
    163  CG2       13.4220    7.5220   11.7290 C.3   497  VAL497      0.0020
    164  N         10.1700   10.4660   12.8490 N.am  498  LEU498     -0.1980
    165  CA         9.3130   11.4260   13.5430 C.3   498  LEU498      0.1596
    166  C          8.1320   11.7000   12.6010 C.2   498  LEU498      0.2287
    167  O          8.0750   12.7300   11.9270 O.2   498  LEU498     -0.2864
    168  CB        10.1110   12.7060   13.9150 C.3   498  LEU498      0.0297
    169  CG        11.3190   12.4630   14.8510 C.3   498  LEU498      0.0022
    170  CD1       12.1290   13.7310   15.0660 C.3   498  LEU498      0.0001
    171  CD2       10.8840   11.9010   16.1920 C.3   498  LEU498      0.0001
    172  N          2.4970   11.0310   15.0290 N.3   502  MET502     -0.1245
    173  CA         3.0500   10.9860   16.3810 C.3   502  MET502      0.1570
    174  C          2.6850   12.2670   17.1520 C.2   502  MET502      0.2261
    175  O          2.7460   12.2770   18.3740 O.2   502  MET502     -0.2867
    176  CB         4.5720   10.8540   16.3120 C.3   502  MET502      0.0387
    177  CG         5.0540    9.4390   16.1670 C.3   502  MET502      0.0595
    178  SD         6.8650    9.3250   16.0890 S.3   502  MET502     -0.1393
    179  CE         7.3080   10.0200   17.7110 C.3   502  MET502      0.0692
    180  N         13.4250   13.9620    6.9830 N.3   523  HIS523     -0.1226
    181  CA        13.8480   14.2670    8.3520 C.3   523  HIS523      0.1752
    182  C         14.6710   15.5590    8.4930 C.2   523  HIS523      0.2596
    183  O         14.5440   16.2510    9.5010 O.2   523  HIS523     -0.2718
    184  CB        14.5970   13.0700    8.9760 C.3   523  HIS523      0.0759
    185  CG        15.1490   13.3650   10.3400 C.ar  523  HIS523      0.0818
    186  ND1       14.3260   13.4410   11.4490 N.ar  523  HIS523     -0.2268
    187  CD2       16.4090   13.6940   10.7090 C.ar  523  HIS523      0.1154
    188  CE1       15.1170   13.7760   12.4530 C.ar  523  HIS523      0.1986
    189  NE2       16.3780   13.9370   12.0500 N.ar  523  HIS523     -0.2212
    190  N         15.4970   15.8820    7.4860 N.am  524  TRP524     -0.1976
    191  CA        16.4100   17.0320    7.4940 C.3   524  TRP524      0.1640
    192  C         15.7170   18.2750    6.9850 C.2   524  TRP524      0.2290
    193  O         16.1750   18.9350    6.0530 O.2   524  TRP524     -0.2864
    194  CB        17.6820   16.6740    6.7220 C.3   524  TRP524      0.0576
    195  CG        18.1590   15.2920    7.0380 C.ar  524  TRP524      0.0006
    196  CD1       17.9720   14.1770    6.2780 C.ar  524  TRP524      0.0946
    197  CD2       18.7990   14.8520    8.2440 C.ar  524  TRP524      0.0152
    198  NE1       18.4610   13.0740    6.9280 N.ar  524  TRP524     -0.2442
    199  CE2       18.9880   13.4570    8.1310 C.ar  524  TRP524      0.0810
    200  CE3       19.2360   15.5010    9.4120 C.ar  524  TRP524      0.0012
    201  CZ2       19.6080   12.7000    9.1270 C.ar  524  TRP524      0.0191
    202  CZ3       19.8580   14.7490   10.3920 C.ar  524  TRP524      0.0001
    203  CH2       20.0570   13.3690   10.2360 C.ar  524  TRP524      0.0015
@<TRIPOS>BOND
     1   124   123    2
     2   121   122    1
     3   123   122    1
     4   193   192    2
     5   196   198   ar
     6   196   195   ar
     7   194   195    1
     8   194   191    1
     9   122   125    1
    10   198   199   ar
    11   180   181    1
    12   192   191    1
    13   195   197   ar
    14   190   191    1
    15   190   182   am
    16   125   126    1
    17   199   197   ar
    18   199   201   ar
    19   197   200   ar
    20   181   182    1
    21   181   184    1
    22   182   183    2
    23   129   130    1
    24   184   185    1
    25   126   128    1
    26   126   127    1
    27   201   203   ar
    28   200   202   ar
    29   136   135    1
    30   203   202   ar
    31   130   133    1
    32   130   131    1
    33   185   187   ar
    34   185   186   ar
    35   187   189   ar
    36   157   158    1
    37   134   133    1
    38   134   135    1
    39   131   132    2
    40   186   188   ar
    41   163   161    1
    42   167   166    2
    43   189   188   ar
    44   158   161    1
    45   158   159    1
    46   161   162    1
    47   166   165    1
    48    15    14    2
    49    18    17    1
    50    18    12    1
    51   164   159   am
    52   164   165    1
    53    17    16    1
    54   159   160    2
    55   165   168    1
    56    14    13    1
    57   168   169    1
    58     4     3    2
    59    12    13    1
    60    12     3   am
    61    16    13    1
    62     3     2    1
    63   169   170    1
    64   169   171    1
    65   172   173    1
    66    95    97   ar
    67    95    94   ar
    68    93    94    1
    69    93    90    1
    70    25    24   ar
    71    23    24    1
    72    23    20    1
    73    97    99   ar
    74    94    96   ar
    75    24    26   ar
    76    49    50    1
    77     9     7   ar
    78     9    11   ar
    79    19    20    1
    80    99   100    1
    81    99    98   ar
    82     7     6   ar
    83    96    98   ar
    84     2     1    1
    85     2     5    1
    86   178   177    1
    87   178   179    1
    88   177   176    1
    89    20    21    1
    90   176   173    1
    91   120   118   ar
    92   120   119   ar
    93   173   174    1
    94    90    89    1
    95    90    91    1
    96    78    79    1
    97   118   116   ar
    98    11    10   ar
    99     6     5    1
   100     6     8   ar
   101    50    51    1
   102    50    53    1
   103   174   175    2
   104    54    53    1
   105   119   117   ar
   106    86    84   ar
   107    86    88   ar
   108    79    80    1
   109    79    82    1
   110   148   147    1
   111    84    83   ar
   112    10     8   ar
   113    51    52    2
   114    91    92    2
   115    91   101   am
   116    21    27   am
   117    21    22    2
   118    88    87   ar
   119    80    81    2
   120   116   115   ar
   121    53    55    1
   122    27    28    1
   123    83    82    1
   124    83    85   ar
   125   101   102    1
   126   117   115   ar
   127    87    85   ar
   128   147   146   ar
   129   147   145   ar
   130   115   114    1
   131   109   107   am
   132   106   107    1
   133   106   105    1
   134   146   144   ar
   135   145   143   ar
   136    28    31    1
   137    28    29    1
   138   102   105    1
   139   102   103    1
   140    33    32   ar
   141    33    35   ar
   142    31    32    1
   143   107   108    2
   144   110   111    1
   145    29    30    2
   146   114   111    1
   147    32    34   ar
   148    35    36   ar
   149   111   112    1
   150   144   142   ar
   151   103   104    2
   152   143   142   ar
   153    73    72    2
   154    41    42    1
   155   142   141    1
   156    63    61    1
   157    76    74    1
   158    34    36   ar
   159    34    37   ar
   160    36    38   ar
   161    61    60    1
   162    72    71    1
   163   112   113    2
   164    42    45    1
   165    42    43    1
   166    45    46    1
   167    77    75    1
   168    71    74    1
   169    71    70    1
   170    37    39   ar
   171   141   138    1
   172    38    40   ar
   173    74    75    1
   174    67    66    2
   175    47    48    1
   176    47    46    1
   177    60    62    1
   178    60    57    1
   179    56    57    1
   180    43    44    2
   181    39    40   ar
   182    70    66   am
   183    57    58    1
   184    66    65    1
   185   138   137    1
   186   138   139    1
   187   156   155    1
   188   139   140    2
   189    65    68    1
   190    65    64    1
   191    58    59    2
   192    68    69    1
   193   155   154    1
   194   154   153    1
   195   153   150    1
   196   150   149    1
   197   150   151    1
   198   151   152    2
