@<TRIPOS>MOLECULE
tmp/5alnA00.pdb
 195 189 0 0 0
SMALL
GASTEIGER

@<TRIPOS>ATOM
      1  N         20.1780   15.5420   16.1840 N.3   266  PHE266     -0.1228
      2  CA        21.2670   14.5870   16.0840 C.3   266  PHE266      0.1721
      3  C         21.4560   14.0260   14.6730 C.2   266  PHE266      0.2437
      4  O         20.4720   13.5440   14.0960 O.2   266  PHE266     -0.2733
      5  CB        21.0500   13.4300   17.0800 C.3   266  PHE266      0.0547
      6  CG        22.0650   12.3120   16.9570 C.ar  266  PHE266     -0.0202
      7  CD1       21.8900   11.2870   16.0300 C.ar  266  PHE266     -0.0042
      8  CD2       23.2090   12.2980   17.7500 C.ar  266  PHE266     -0.0042
      9  CE1       22.8510   10.2740   15.8900 C.ar  266  PHE266     -0.0003
     10  CE2       24.1520   11.2670   17.6330 C.ar  266  PHE266     -0.0003
     11  CZ        23.9670   10.2660   16.7010 C.ar  266  PHE266     -0.0000
     12  N         22.6960   13.9570   14.1200 N.am  267  PRO267     -0.2729
     13  CA        23.9910   14.4160   14.6510 C.3   267  PRO267      0.1401
     14  C         24.3320   15.6810   13.8640 C.2   267  PRO267      0.2269
     15  O         24.9280   15.6250   12.7760 O.2   267  PRO267     -0.2865
     16  CB        24.9250   13.2460   14.2930 C.3   267  PRO267      0.0296
     17  CG        24.2660   12.5590   13.0570 C.3   267  PRO267      0.0237
     18  CD        22.9110   13.2560   12.8380 C.3   267  PRO267      0.0939
     19  N         14.3660   17.6770   15.9570 N.3   334  ASP334     -0.1239
     20  CA        14.8060   16.3430   16.4290 C.3   334  ASP334      0.1674
     21  C         15.0850   16.3650   17.9670 C.2   334  ASP334      0.2266
     22  O         14.1570   16.6670   18.7200 O.2   334  ASP334     -0.2867
     23  CB        15.9890   15.8220   15.5520 C.3   334  ASP334      0.1410
     24  CG        16.5230   14.4530   15.9330 C.2   334  ASP334      0.3668
     25  OD1       15.9180   13.4460   15.5170 O.co2 334  ASP334     -0.2456
     26  OD2       17.5460   14.3930   16.6640 O.co2 334  ASP334     -0.2456
     27  N         16.7800    1.7440   15.9520 N.3   382  TYR382     -0.1241
     28  CA        18.1230    2.3160   15.7600 C.3   382  TYR382      0.1605
     29  C         18.6270    3.0120   17.0520 C.2   382  TYR382      0.2264
     30  O         19.8310    3.0510   17.2930 O.2   382  TYR382     -0.2867
     31  CB        18.1470    3.2740   14.5470 C.3   382  TYR382      0.0534
     32  CG        17.4920    4.6150   14.7940 C.ar  382  TYR382     -0.0201
     33  CD1       16.1070    4.7560   14.7500 C.ar  382  TYR382     -0.0009
     34  CD2       18.2560    5.7470   15.0640 C.ar  382  TYR382     -0.0009
     35  CE1       15.4980    5.9830   14.9940 C.ar  382  TYR382      0.0417
     36  CE2       17.6580    6.9800   15.3110 C.ar  382  TYR382      0.0417
     37  CZ        16.2780    7.0960   15.2680 C.ar  382  TYR382      0.1957
     38  OH        15.6880    8.3090   15.5220 O.3   382  TYR382     -0.2866
     39  N         22.1420    2.6800   19.6990 N.3   386  PHE386     -0.1241
     40  CA        22.8610    3.8020   20.3150 C.3   386  PHE386      0.1605
     41  C         23.1500    3.6380   21.8000 C.2   386  PHE386      0.2264
     42  O         23.9650    4.3840   22.3340 O.2   386  PHE386     -0.2867
     43  CB        22.0770    5.1100   20.0910 C.3   386  PHE386      0.0534
     44  CG        21.9740    5.5870   18.6640 C.ar  386  PHE386     -0.0203
     45  CD1       22.7480    5.0130   17.6600 C.ar  386  PHE386     -0.0042
     46  CD2       21.1280    6.6380   18.3260 C.ar  386  PHE386     -0.0042
     47  CE1       22.6710    5.4730   16.3490 C.ar  386  PHE386     -0.0003
     48  CE2       21.0400    7.0870   17.0090 C.ar  386  PHE386     -0.0003
     49  CZ        21.8210    6.5100   16.0300 C.ar  386  PHE386     -0.0000
     50  N         30.0940    5.3380   13.3780 N.3   396  LEU396     -0.1245
     51  CA        29.8610    6.7160   12.9310 C.3   396  LEU396      0.1561
     52  C         31.1580    7.4950   12.7230 C.2   396  LEU396      0.2260
     53  O         31.2360    8.2890   11.7890 O.2   396  LEU396     -0.2867
     54  CB        28.8770    7.4550   13.8700 C.3   396  LEU396      0.0270
     55  CG        27.4560    6.8640   13.9350 C.3   396  LEU396      0.0019
     56  CD1       26.7330    7.3030   15.1810 C.3   396  LEU396      0.0001
     57  CD2       26.6540    7.1750   12.6850 C.3   396  LEU396      0.0001
     58  N         23.6320    9.8200    5.8350 N.3   407  LEU407     -0.1245
     59  CA        22.5200   10.3420    6.6460 C.3   407  LEU407      0.1561
     60  C         21.6990   11.4270    5.9880 C.2   407  LEU407      0.2260
     61  O         20.4720   11.3440    5.9760 O.2   407  LEU407     -0.2867
     62  CB        23.0300   10.8470    8.0040 C.3   407  LEU407      0.0270
     63  CG        23.6240    9.8130    8.9390 C.3   407  LEU407      0.0019
     64  CD1       24.1690   10.4760   10.1760 C.3   407  LEU407      0.0001
     65  CD2       22.6150    8.7770    9.3050 C.3   407  LEU407      0.0001
     66  N         20.1290   12.8220    3.3250 N.3   409  ARG409     -0.1245
     67  CA        19.5370   12.4740    2.0260 C.3   409  ARG409      0.1563
     68  C         18.0400   12.7540    2.0890 C.2   409  ARG409      0.2260
     69  O         17.4590   12.6630    3.1660 O.2   409  ARG409     -0.2867
     70  CB        19.7510   10.9700    1.7120 C.3   409  ARG409      0.0307
     71  CG        21.1740   10.4430    1.9400 C.3   409  ARG409      0.0489
     72  CD        21.4360    9.0870    1.2910 C.3   409  ARG409      0.2205
     73  NE        21.3790    9.1610   -0.1710 N.pl3 409  ARG409     -0.0865
     74  CZ        22.4030    9.5060   -0.9440 C.cat 409  ARG409      0.5346
     75  NH1       23.5850    9.7910   -0.4060 N.pl3 409  ARG409      0.1354
     76  NH2       22.2560    9.5670   -2.2580 N.pl3 409  ARG409      0.1354
     77  N         13.8420   12.0840    1.1640 N.3   411  SER411     -0.1217
     78  CA        12.9970   10.8870    1.3580 C.3   411  SER411      0.1889
     79  C         13.0640    9.8220    0.2380 C.2   411  SER411      0.2288
     80  O         12.8770    8.6360    0.5110 O.2   411  SER411     -0.2866
     81  CB        11.5520   11.2690    1.6630 C.3   411  SER411      0.2089
     82  OG        11.0170   12.1500    0.6880 O.3   411  SER411     -0.2183
     83  N         16.9920    7.6720    0.2140 N.3   414  SER414     -0.1217
     84  CA        17.4140    6.8980    1.3490 C.3   414  SER414      0.1889
     85  C         18.1320    5.6160    1.0130 C.2   414  SER414      0.2288
     86  O         17.8020    4.9270    0.0400 O.2   414  SER414     -0.2866
     87  CB        16.3380    6.8270    2.4170 C.3   414  SER414      0.2089
     88  OG        16.1880    8.1400    2.9470 O.3   414  SER414     -0.2183
     89  N         19.6250    3.8210    3.8440 N.3   416  LEU416     -0.1245
     90  CA        19.6400    3.1790    5.1450 C.3   416  LEU416      0.1561
     91  C         18.5070    2.2050    5.4190 C.2   416  LEU416      0.2260
     92  O         17.3430    2.4990    5.1430 O.2   416  LEU416     -0.2867
     93  CB        19.6210    4.2840    6.2180 C.3   416  LEU416      0.0270
     94  CG        20.8930    4.6520    6.9870 C.3   416  LEU416      0.0019
     95  CD1       22.1480    4.4720    6.1390 C.3   416  LEU416      0.0001
     96  CD2       20.8260    6.0840    7.4480 C.3   416  LEU416      0.0001
     97  N         16.6410    1.1420    8.3280 N.3   418  MET418     -0.1245
     98  CA        16.3770    1.5690    9.7040 C.3   418  MET418      0.1570
     99  C         15.9140    0.3820   10.5560 C.2   418  MET418      0.2261
    100  O         15.8870    0.4630   11.7830 O.2   418  MET418     -0.2867
    101  CB        15.3930    2.7540    9.7380 C.3   418  MET418      0.0387
    102  CG        15.8050    3.8700   10.7040 C.3   418  MET418      0.0595
    103  SD        17.5400    4.4060   10.6200 S.3   418  MET418     -0.1393
    104  CE        17.5320    5.2790    9.1110 C.3   418  MET418      0.0692
    105  N         24.1980    0.5570   11.2650 N.3   427  LEU427     -0.1245
    106  CA        23.4380    1.4970   10.4360 C.3   427  LEU427      0.1561
    107  C         23.7880    1.4000    8.9530 C.2   427  LEU427      0.2260
    108  O         22.9040    1.5690    8.1140 O.2   427  LEU427     -0.2867
    109  CB        23.7740    2.9490   10.8780 C.3   427  LEU427      0.0270
    110  CG        22.8550    3.7630   11.8130 C.3   427  LEU427      0.0019
    111  CD1       21.5520    3.0890   12.1240 C.3   427  LEU427      0.0001
    112  CD2       23.5810    4.1850   13.0510 C.3   427  LEU427      0.0001
    113  N         20.8680   10.1510   23.8960 N.3   465  TYR465     -0.1241
    114  CA        19.9700    8.9660   23.8740 C.3   465  TYR465      0.1605
    115  C         20.1890    8.0440   25.0660 C.2   465  TYR465      0.2264
    116  O         19.4690    7.0480   25.2190 O.2   465  TYR465     -0.2867
    117  CB        20.2440    8.1110   22.6160 C.3   465  TYR465      0.0534
    118  CG        19.9110    8.7680   21.2990 C.ar  465  TYR465     -0.0201
    119  CD1       18.6570    8.6050   20.7120 C.ar  465  TYR465     -0.0009
    120  CD2       20.8760    9.4750   20.5900 C.ar  465  TYR465     -0.0009
    121  CE1       18.3630    9.1650   19.4710 C.ar  465  TYR465      0.0417
    122  CE2       20.5890   10.0570   19.3620 C.ar  465  TYR465      0.0417
    123  CZ        19.3330    9.8940   18.8020 C.ar  465  TYR465      0.1957
    124  OH        19.0600   10.4810   17.5990 O.3   465  TYR465     -0.2866
    125  N          7.0700   13.0450    5.0650 N.3   494  LYS494     -0.1231
    126  CA         7.9310   11.9020    4.8300 C.3   494  LYS494      0.1693
    127  C          9.0140   11.6160    5.8660 C.2   494  LYS494      0.2592
    128  O         10.0060   10.9380    5.5500 O.2   494  LYS494     -0.2718
    129  CB         8.4240   11.8950    3.3770 C.3   494  LYS494      0.0285
    130  CG         7.2780   11.6340    2.3990 C.3   494  LYS494      0.0035
    131  CD         7.7200   11.6680    0.9570 C.3   494  LYS494      0.0206
    132  CE         6.5560   11.4170    0.0310 C.3   494  LYS494      0.1093
    133  NZ         6.9850   11.4110   -1.3920 N.3   494  LYS494     -0.1314
    134  N          8.8200   12.0900    7.1240 N.am  495  ASP495     -0.1960
    135  CA         9.7520   11.6990    8.1820 C.3   495  ASP495      0.1840
    136  C          9.2100   10.3560    8.6530 C.2   495  ASP495      0.2622
    137  O          8.1560   10.3110    9.2710 O.2   495  ASP495     -0.2715
    138  CB         9.8380   12.7060    9.3570 C.3   495  ASP495      0.1450
    139  CG        10.9480   12.3780   10.3420 C.2   495  ASP495      0.3671
    140  OD1       11.2720   11.1710   10.5040 O.co2 495  ASP495     -0.2456
    141  OD2       11.4730   13.3180   10.9830 O.co2 495  ASP495     -0.2456
    142  N          9.9130    9.2650    8.3240 N.am  496  PHE496     -0.1960
    143  CA         9.4750    7.9130    8.6550 C.3   496  PHE496      0.1771
    144  C          9.6790    7.4530   10.0870 C.2   496  PHE496      0.2619
    145  O          9.1600    6.4020   10.4620 O.2   496  PHE496     -0.2715
    146  CB         9.9230    6.9010    7.5820 C.3   496  PHE496      0.0574
    147  CG         9.4170    7.2810    6.2050 C.ar  496  PHE496     -0.0200
    148  CD1        8.0600    7.5180    5.9830 C.ar  496  PHE496     -0.0042
    149  CD2       10.2940    7.4390    5.1430 C.ar  496  PHE496     -0.0042
    150  CE1        7.5930    7.8890    4.7180 C.ar  496  PHE496     -0.0003
    151  CE2        9.8240    7.8130    3.8750 C.ar  496  PHE496     -0.0003
    152  CZ         8.4780    8.0350    3.6730 C.ar  496  PHE496     -0.0000
    153  N         10.3710    8.2690   10.9080 N.am  497  VAL497     -0.1963
    154  CA        10.6160    7.9980   12.3260 C.3   497  VAL497      0.1727
    155  C          9.7190    8.9110   13.1900 C.2   497  VAL497      0.2616
    156  O          8.9530    8.4200   14.0200 O.2   497  VAL497     -0.2715
    157  CB        12.1220    8.1230   12.6700 C.3   497  VAL497      0.0290
    158  CG1       12.3560    8.1320   14.1760 C.3   497  VAL497      0.0023
    159  CG2       12.9290    7.0040   12.0080 C.3   497  VAL497      0.0023
    160  N          9.8370   10.2330   12.9920 N.am  498  LEU498     -0.1977
    161  CA         9.0500   11.2530   13.6910 C.3   498  LEU498      0.1596
    162  C          7.8640   11.5580   12.7690 C.2   498  LEU498      0.2287
    163  O          7.8000   12.6180   12.1420 O.2   498  LEU498     -0.2864
    164  CB         9.9250   12.4970   13.9730 C.3   498  LEU498      0.0297
    165  CG        11.2180   12.2360   14.7600 C.3   498  LEU498      0.0022
    166  CD1       12.1360   13.4460   14.7220 C.3   498  LEU498      0.0001
    167  CD2       10.9220   11.8290   16.2040 C.3   498  LEU498      0.0001
    168  N         11.4340   15.0970    4.2080 N.3   522  GLY522     -0.1210
    169  CA        12.0450   14.0430    5.0010 C.3   522  GLY522      0.1956
    170  C         12.3570   14.5040    6.4200 C.2   522  GLY522      0.2612
    171  O         11.7380   15.4440    6.9340 O.2   522  GLY522     -0.2717
    172  N         13.3130   13.8270    7.0700 N.am  523  HIS523     -0.1961
    173  CA        13.7460   14.1180    8.4330 C.3   523  HIS523      0.1787
    174  C         14.6060   15.3900    8.5560 C.2   523  HIS523      0.2620
    175  O         14.5290   16.0620    9.5800 O.2   523  HIS523     -0.2715
    176  CB        14.5120   12.9170    9.0130 C.3   523  HIS523      0.0785
    177  CG        15.0820   13.1820   10.3730 C.ar  523  HIS523      0.0821
    178  ND1       14.2710   13.2420   11.4940 N.ar  523  HIS523     -0.2267
    179  CD2       16.3560   13.4650   10.7360 C.ar  523  HIS523      0.1154
    180  CE1       15.0780   13.5450   12.4960 C.ar  523  HIS523      0.1986
    181  NE2       16.3390   13.6990   12.0850 N.ar  523  HIS523     -0.2212
    182  N         15.4510   15.6910    7.5480 N.am  524  TRP524     -0.1974
    183  CA        16.3910   16.8280    7.5590 C.3   524  TRP524      0.1640
    184  C         15.6960   18.0740    7.0560 C.2   524  TRP524      0.2290
    185  O         16.1450   18.7110    6.1080 O.2   524  TRP524     -0.2864
    186  CB        17.6630   16.4700    6.7690 C.3   524  TRP524      0.0576
    187  CG        18.1230   15.0740    7.0700 C.ar  524  TRP524      0.0006
    188  CD1       17.8770   13.9570    6.3260 C.ar  524  TRP524      0.0946
    189  CD2       18.7430   14.6200    8.2810 C.ar  524  TRP524      0.0152
    190  NE1       18.3330   12.8420    6.9790 N.ar  524  TRP524     -0.2442
    191  CE2       18.8810   13.2180    8.1790 C.ar  524  TRP524      0.0810
    192  CE3       19.2230   15.2660    9.4360 C.ar  524  TRP524      0.0012
    193  CZ2       19.4920   12.4500    9.1790 C.ar  524  TRP524      0.0191
    194  CZ3       19.8150   14.5050   10.4300 C.ar  524  TRP524      0.0001
    195  CH2       19.9590   13.1150   10.2910 C.ar  524  TRP524      0.0015
@<TRIPOS>BOND
     1    76    74    1
     2   133   132    1
     3    74    75    1
     4    74    73    2
     5    73    72    1
     6   132   131    1
     7    86    85    2
     8    83    84    1
     9    79    80    2
    10    79    78    1
    11    82    81    1
    12   131   130    1
    13    85    84    1
    14    77    78    1
    15    72    71    1
    16    84    87    1
    17    78    81    1
    18    70    71    1
    19    70    67    1
    20    67    68    1
    21    67    66    1
    22    68    69    2
    23   130   129    1
    24    87    88    1
    25   129   126    1
    26   152   151   ar
    27   152   150   ar
    28    89    90    1
    29   151   149   ar
    30   168   169    1
    31   150   148   ar
    32   126   125    1
    33   126   127    1
    34   169   170    1
    35    92    91    2
    36   149   147   ar
    37    90    91    1
    38    90    93    1
    39   128   127    2
    40    58    59    1
    41   127   134   am
    42    61    60    2
    43   148   147   ar
    44    60    59    1
    45   185   184    2
    46    95    94    1
    47   147   146    1
    48    93    94    1
    49   188   190   ar
    50   188   187   ar
    51   170   171    2
    52   170   172   am
    53    59    62    1
    54   186   187    1
    55   186   183    1
    56   190   191   ar
    57    94    96    1
    58   184   183    1
    59   187   189   ar
    60   172   173    1
    61   134   135    1
    62   182   183    1
    63   182   174   am
    64   146   143    1
    65    62    63    1
    66   108   107    2
    67   191   189   ar
    68   191   193   ar
    69   135   136    1
    70   135   138    1
    71   189   192   ar
    72   142   136   am
    73   142   143    1
    74    97    98    1
    75   173   174    1
    76   173   176    1
    77   174   175    2
    78   136   137    2
    79   143   144    1
    80    63    65    1
    81    63    64    1
    82   107   106    1
    83   176   177    1
    84   104   103    1
    85   193   195   ar
    86   138   139    1
    87   192   194   ar
    88    98   101    1
    89    98    99    1
    90   101   102    1
    91   144   145    2
    92   144   153   am
    93   195   194   ar
    94   139   140   ar
    95   139   141   ar
    96   177   179   ar
    97   177   178   ar
    98   106   109    1
    99   106   105    1
   100    99   100    2
   101   103   102    1
   102   179   181   ar
   103   109   110    1
   104   153   154    1
   105   178   180   ar
   106    53    52    2
   107   110   111    1
   108   110   112    1
   109   159   157    1
   110   181   180   ar
   111   163   162    2
   112   154   157    1
   113   154   155    1
   114   157   158    1
   115    57    55    1
   116    52    51    1
   117   162   161    1
   118    15    14    2
   119    18    17    1
   120    18    12    1
   121    51    50    1
   122    51    54    1
   123   160   155   am
   124   160   161    1
   125    17    16    1
   126   155   156    2
   127   161   164    1
   128    14    13    1
   129    54    55    1
   130    55    56    1
   131   164   165    1
   132     4     3    2
   133    12    13    1
   134    12     3   am
   135    16    13    1
   136    31    32    1
   137    31    28    1
   138     3     2    1
   139   166   165    1
   140    33    32   ar
   141    33    35   ar
   142   165   167    1
   143    32    34   ar
   144    35    37   ar
   145    34    36   ar
   146    37    36   ar
   147    37    38    1
   148    25    24   ar
   149    23    24    1
   150    23    20    1
   151    28    27    1
   152    28    29    1
   153     9     7   ar
   154     9    11   ar
   155    24    26   ar
   156    19    20    1
   157     7     6   ar
   158    49    47   ar
   159    49    48   ar
   160     2     1    1
   161     2     5    1
   162    47    45   ar
   163    20    21    1
   164    11    10   ar
   165     6     5    1
   166     6     8   ar
   167    48    46   ar
   168    29    30    2
   169   124   123    1
   170    10     8   ar
   171    45    44   ar
   172    21    22    2
   173    46    44   ar
   174    44    43    1
   175   123   122   ar
   176   123   121   ar
   177   122   120   ar
   178   121   119   ar
   179    39    40    1
   180    43    40    1
   181    40    41    1
   182   120   118   ar
   183   119   118   ar
   184   118   117    1
   185    41    42    2
   186   117   114    1
   187   114   113    1
   188   114   115    1
   189   115   116    2
