@<TRIPOS>MOLECULE
tmp/5aloA00.pdb
 188 184 0 0 0
SMALL
GASTEIGER

@<TRIPOS>ATOM
      1  N        -18.2410  -15.8250   30.0420 N.3   309  MET309     -0.1245
      2  CA       -17.4490  -17.0390   29.7590 C.3   309  MET309      0.1570
      3  C        -17.5150  -18.1040   30.8750 C.2   309  MET309      0.2261
      4  O        -17.6340  -19.2950   30.5670 O.2   309  MET309     -0.2867
      5  CB       -15.9920  -16.6870   29.4010 C.3   309  MET309      0.0387
      6  CG       -15.8090  -16.2550   27.9520 C.3   309  MET309      0.0595
      7  SD       -16.1390  -17.6020   26.7710 S.3   309  MET309     -0.1393
      8  CE       -17.2720  -16.8500   25.7540 C.3   309  MET309      0.0692
      9  N        -16.4200  -16.2600   18.6720 N.3   335  TRP335     -0.1241
     10  CA       -16.7340  -16.3700   20.0980 C.3   335  TRP335      0.1605
     11  C        -16.5990  -17.8160   20.6260 C.2   335  TRP335      0.2264
     12  O        -16.2260  -18.0110   21.7840 O.2   335  TRP335     -0.2867
     13  CB       -18.1350  -15.8420   20.3980 C.3   335  TRP335      0.0550
     14  CG       -18.1170  -14.4430   20.9190 C.ar  335  TRP335      0.0003
     15  CD1      -18.6200  -13.3390   20.3060 C.ar  335  TRP335      0.0946
     16  CD2      -17.4700  -13.9830   22.1120 C.ar  335  TRP335      0.0152
     17  NE1      -18.3760  -12.2250   21.0700 N.ar  335  TRP335     -0.2442
     18  CE2      -17.6840  -12.5920   22.1930 C.ar  335  TRP335      0.0810
     19  CE3      -16.7570  -14.6180   23.1410 C.ar  335  TRP335      0.0012
     20  CZ2      -17.1830  -11.8160   23.2440 C.ar  335  TRP335      0.0191
     21  CZ3      -16.2810  -13.8510   24.1930 C.ar  335  TRP335      0.0001
     22  CH2      -16.4960  -12.4690   24.2400 C.ar  335  TRP335      0.0015
     23  N        -13.0140  -18.3160   21.4530 N.3   338  MET338     -0.1245
     24  CA       -12.7280  -17.7570   22.7670 C.3   338  MET338      0.1570
     25  C        -13.1600  -18.7170   23.8770 C.2   338  MET338      0.2261
     26  O        -12.4190  -18.8870   24.8450 O.2   338  MET338     -0.2867
     27  CB       -13.3830  -16.3950   22.9780 C.3   338  MET338      0.0387
     28  CG       -12.7420  -15.6270   24.1360 C.3   338  MET338      0.0595
     29  SD       -11.2010  -14.7430   23.6840 S.3   338  MET338     -0.1393
     30  CE        -9.9990  -16.0170   23.7040 C.3   338  MET338      0.0692
     31  N        -10.7240  -20.8520   26.9320 N.3   342  TYR342     -0.1241
     32  CA       -11.0770  -20.8350   28.3470 C.3   342  TYR342      0.1605
     33  C        -11.4500  -22.2250   28.8830 C.2   342  TYR342      0.2264
     34  O        -11.0850  -22.5390   30.0220 O.2   342  TYR342     -0.2867
     35  CB       -11.9930  -19.6340   28.7280 C.3   342  TYR342      0.0534
     36  CG       -11.1760  -18.3600   28.6220 C.ar  342  TYR342     -0.0201
     37  CD1      -10.3290  -17.9640   29.6590 C.ar  342  TYR342     -0.0009
     38  CD2      -11.0720  -17.6760   27.4100 C.ar  342  TYR342     -0.0009
     39  CE1       -9.4400  -16.8900   29.5060 C.ar  342  TYR342      0.0417
     40  CE2      -10.1790  -16.6130   27.2430 C.ar  342  TYR342      0.0417
     41  CZ        -9.3770  -16.2100   28.2980 C.ar  342  TYR342      0.1957
     42  OH        -8.5390  -15.1250   28.1390 O.3   342  TYR342     -0.2866
     43  N         -5.3180  -14.5710   23.7800 N.3   362  ILE362     -0.1231
     44  CA        -4.5940  -13.3860   24.2600 C.3   362  ILE362      0.1678
     45  C         -4.8360  -13.2310   25.7570 C.2   362  ILE362      0.2434
     46  O         -5.9780  -13.1060   26.2030 O.2   362  ILE362     -0.2733
     47  CB        -4.7500  -12.0580   23.4200 C.3   362  ILE362      0.0265
     48  CG1       -4.1680  -12.2290   21.9770 C.3   362  ILE362      0.0019
     49  CG2       -4.0810  -10.8390   24.1360 C.3   362  ILE362      0.0020
     50  CD1       -4.5140  -11.0840   20.9990 C.3   362  ILE362      0.0001
     51  N         -3.7580  -13.3110   26.5480 N.am  363  PRO363     -0.2718
     52  CA        -3.9020  -13.2340   28.0070 C.3   363  PRO363      0.1535
     53  C         -4.3620  -11.8760   28.4920 C.2   363  PRO363      0.2598
     54  O         -4.0360  -10.8550   27.8750 O.2   363  PRO363     -0.2715
     55  CB        -2.4980  -13.5540   28.5090 C.3   363  PRO363      0.0310
     56  CG        -1.8530  -14.2230   27.3600 C.3   363  PRO363      0.0237
     57  CD        -2.3480  -13.5300   26.1810 C.3   363  PRO363      0.0939
     58  N         -5.1550  -11.8800   29.5760 N.am  364  ALA364     -0.1964
     59  CA        -5.6850  -10.6790   30.1950 C.3   364  ALA364      0.1728
     60  C         -4.5700   -9.7890   30.7440 C.2   364  ALA364      0.2616
     61  O         -3.6330  -10.2870   31.3730 O.2   364  ALA364     -0.2715
     62  CB        -6.6530  -11.0550   31.3150 C.3   364  ALA364      0.0334
     63  N         -4.6570   -8.4780   30.4810 N.am  365  ASN365     -0.1972
     64  CA        -3.7170   -7.5160   31.0600 C.3   365  ASN365      0.1688
     65  C         -4.3840   -7.0680   32.3760 C.2   365  ASN365      0.2292
     66  O         -5.4300   -6.4270   32.3210 O.2   365  ASN365     -0.2864
     67  CB        -3.4730   -6.3220   30.1220 C.3   365  ASN365      0.1181
     68  CG        -2.4820   -5.2890   30.6370 C.2   365  ASN365      0.2629
     69  OD1       -2.0290   -5.3080   31.7930 O.2   365  ASN365     -0.2716
     70  ND2       -2.1170   -4.3600   29.7690 N.am  365  ASN365     -0.0877
     71  N        -10.4660   -4.0850   29.9630 N.3   370  PRO370     -0.2116
     72  CA       -10.6730   -4.5620   28.5810 C.3   370  PRO370      0.1372
     73  C        -11.1880   -3.4500   27.6590 C.2   370  PRO370      0.2244
     74  O        -10.7590   -3.3790   26.5090 O.2   370  PRO370     -0.2868
     75  CB       -11.6790   -5.7080   28.7330 C.3   370  PRO370      0.0268
     76  CG       -12.3390   -5.4770   30.0330 C.3   370  PRO370      0.0207
     77  CD       -11.3370   -4.8010   30.9180 C.3   370  PRO370      0.0892
     78  N         -8.2170   -1.5640   26.3410 N.3   373  SER373     -0.1202
     79  CA        -7.5500   -2.4480   25.3790 C.3   373  SER373      0.2020
     80  C         -8.2560   -2.4720   24.0170 C.2   373  SER373      0.2618
     81  O         -7.5830   -2.3590   22.9910 O.2   373  SER373     -0.2717
     82  CB        -7.4390   -3.8600   25.9500 C.3   373  SER373      0.2103
     83  OG        -6.9950   -3.8450   27.2980 O.3   373  SER373     -0.2182
     84  N         -9.6080   -2.5850   24.0150 N.am  374  ILE374     -0.1979
     85  CA       -10.4540   -2.6030   22.8100 C.3   374  ILE374      0.1595
     86  C        -10.3760   -1.2720   22.0690 C.2   374  ILE374      0.2287
     87  O        -10.3150   -1.2650   20.8370 O.2   374  ILE374     -0.2864
     88  CB       -11.9150   -3.0570   23.1380 C.3   374  ILE374      0.0276
     89  CG1      -11.9820   -4.5800   23.2680 C.3   374  ILE374      0.0022
     90  CG2      -12.9610   -2.5730   22.1150 C.3   374  ILE374      0.0022
     91  CD1      -12.5200   -5.0580   24.5640 C.3   374  ILE374      0.0001
     92  N         -7.3490   -0.5840   19.5740 N.3   377  ASN377     -0.1240
     93  CA        -7.4950   -1.1650   18.2400 C.3   377  ASN377      0.1653
     94  C         -8.8050   -0.7090   17.5680 C.2   377  ASN377      0.2266
     95  O         -9.8860   -1.1060   18.0050 O.2   377  ASN377     -0.2867
     96  CB        -7.3860   -2.6910   18.2920 C.3   377  ASN377      0.1155
     97  CG        -7.0720   -3.3560   16.9700 C.2   377  ASN377      0.2627
     98  OD1       -6.9390   -2.7140   15.9170 O.2   377  ASN377     -0.2716
     99  ND2       -6.9210   -4.6720   17.0000 N.am  377  ASN377     -0.0877
    100  N        -11.8480   -3.2730   16.5890 N.3   380  PHE380     -0.1241
    101  CA       -12.8670   -3.7080   17.5530 C.3   380  PHE380      0.1605
    102  C        -13.8780   -2.6280   17.9260 C.2   380  PHE380      0.2264
    103  O        -14.7130   -2.8650   18.7960 O.2   380  PHE380     -0.2867
    104  CB       -12.2030   -4.3190   18.8080 C.3   380  PHE380      0.0534
    105  CG       -11.4100   -5.5760   18.5270 C.ar  380  PHE380     -0.0203
    106  CD1      -12.0530   -6.7760   18.2430 C.ar  380  PHE380     -0.0042
    107  CD2      -10.0220   -5.5660   18.5670 C.ar  380  PHE380     -0.0042
    108  CE1      -11.3220   -7.9380   17.9800 C.ar  380  PHE380     -0.0003
    109  CE2       -9.2880   -6.7300   18.3050 C.ar  380  PHE380     -0.0003
    110  CZ        -9.9440   -7.9060   18.0050 C.ar  380  PHE380     -0.0000
    111  N        -17.7230   -3.3590   18.1560 N.3   383  GLN383     -0.1245
    112  CA       -18.1820   -4.0710   19.3480 C.3   383  GLN383      0.1566
    113  C        -18.6900   -3.1080   20.4300 C.2   383  GLN383      0.2260
    114  O        -19.4450   -3.5360   21.3080 O.2   383  GLN383     -0.2867
    115  CB       -17.0870   -4.9970   19.8940 C.3   383  GLN383      0.0367
    116  CG       -16.5230   -5.9140   18.8100 C.3   383  GLN383      0.0905
    117  CD       -15.5740   -6.9940   19.2570 C.2   383  GLN383      0.2608
    118  OE1      -15.0690   -7.0120   20.3860 O.2   383  GLN383     -0.2717
    119  NE2      -15.2720   -7.8980   18.3310 N.am  383  GLN383     -0.0878
    120  N        -23.1540  -12.1610   24.4910 N.3   464  TRP464     -0.1227
    121  CA       -21.7960  -12.7300   24.5120 C.3   464  TRP464      0.1737
    122  C        -20.7280  -11.6300   24.5720 C.2   464  TRP464      0.2595
    123  O        -19.6720  -11.8440   25.1760 O.2   464  TRP464     -0.2718
    124  CB       -21.5490  -13.6140   23.2860 C.3   464  TRP464      0.0564
    125  CG       -22.1480  -14.9890   23.3840 C.ar  464  TRP464      0.0003
    126  CD1      -23.4680  -15.3130   23.2900 C.ar  464  TRP464      0.0946
    127  CD2      -21.4300  -16.2330   23.3720 C.ar  464  TRP464      0.0152
    128  NE1      -23.6270  -16.6790   23.3400 N.ar  464  TRP464     -0.2442
    129  CE2      -22.3900  -17.2690   23.4080 C.ar  464  TRP464      0.0810
    130  CE3      -20.0620  -16.5730   23.3990 C.ar  464  TRP464      0.0012
    131  CZ2      -22.0310  -18.6240   23.4290 C.ar  464  TRP464      0.0191
    132  CZ3      -19.7080  -17.9200   23.4190 C.ar  464  TRP464      0.0001
    133  CH2      -20.6830  -18.9230   23.4200 C.ar  464  TRP464      0.0015
    134  N        -21.0210  -10.4450   23.9880 N.am  465  TYR465     -0.1976
    135  CA       -20.1490   -9.2500   23.9890 C.3   465  TYR465      0.1639
    136  C        -20.3260   -8.3570   25.2060 C.2   465  TYR465      0.2290
    137  O        -19.5670   -7.3980   25.3650 O.2   465  TYR465     -0.2864
    138  CB       -20.4880   -8.3510   22.7840 C.3   465  TYR465      0.0560
    139  CG       -20.1620   -8.9260   21.4280 C.ar  465  TYR465     -0.0198
    140  CD1      -18.8850   -8.8000   20.8820 C.ar  465  TYR465     -0.0009
    141  CD2      -21.1390   -9.5640   20.6690 C.ar  465  TYR465     -0.0009
    142  CE1      -18.5940   -9.2910   19.6110 C.ar  465  TYR465      0.0417
    143  CE2      -20.8570  -10.0660   19.4080 C.ar  465  TYR465      0.0417
    144  CZ       -19.5870   -9.9180   18.8790 C.ar  465  TYR465      0.1957
    145  OH       -19.3370  -10.4280   17.6370 O.3   465  TYR465     -0.2866
    146  N        -17.5270   -8.0880   29.1540 N.3   468  MET468     -0.1245
    147  CA       -16.1020   -7.7310   29.0810 C.3   468  MET468      0.1570
    148  C        -15.3930   -7.6760   30.4200 C.2   468  MET468      0.2261
    149  O        -14.3750   -8.3370   30.5760 O.2   468  MET468     -0.2867
    150  CB       -15.8600   -6.4480   28.2670 C.3   468  MET468      0.0387
    151  CG       -16.3180   -6.5550   26.8180 C.3   468  MET468      0.0595
    152  SD       -15.8390   -5.1550   25.7490 S.3   468  MET468     -0.1393
    153  CE       -16.7210   -3.7780   26.5760 C.3   468  MET468      0.0692
    154  N        -15.5300  -11.2390   32.2270 N.3   471  ASN471     -0.1225
    155  CA       -14.6310  -12.1700   31.5320 C.3   471  ASN471      0.1785
    156  C        -13.1970  -11.8600   31.8250 C.2   471  ASN471      0.2597
    157  O        -12.3930  -12.7820   31.9560 O.2   471  ASN471     -0.2718
    158  CB       -14.8640  -12.1640   30.0160 C.3   471  ASN471      0.1169
    159  CG       -16.1930  -12.7520   29.6160 C.2   471  ASN471      0.2627
    160  OD1      -16.8610  -13.4520   30.3840 O.2   471  ASN471     -0.2716
    161  ND2      -16.6220  -12.4710   28.4120 N.am  471  ASN471     -0.0877
    162  N        -12.8600  -10.5620   31.8970 N.am  472  TRP472     -0.1976
    163  CA       -11.5030  -10.0910   32.1600 C.3   472  TRP472      0.1640
    164  C        -11.0950  -10.4790   33.5690 C.2   472  TRP472      0.2290
    165  O        -10.0230  -11.0400   33.7490 O.2   472  TRP472     -0.2864
    166  CB       -11.4120   -8.5790   31.9110 C.3   472  TRP472      0.0576
    167  CG       -10.1370   -7.9440   32.3610 C.ar  472  TRP472      0.0006
    168  CD1       -8.9420   -7.9370   31.7000 C.ar  472  TRP472      0.0946
    169  CD2       -9.9480   -7.1660   33.5440 C.ar  472  TRP472      0.0152
    170  NE1       -8.0150   -7.2150   32.4110 N.ar  472  TRP472     -0.2442
    171  CE2       -8.6050   -6.7260   33.5460 C.ar  472  TRP472      0.0810
    172  CE3      -10.7860   -6.8010   34.6150 C.ar  472  TRP472      0.0012
    173  CZ2       -8.0730   -5.9510   34.5840 C.ar  472  TRP472      0.0191
    174  CZ3      -10.2580   -6.0370   35.6450 C.ar  472  TRP472      0.0001
    175  CH2       -8.9170   -5.6100   35.6180 C.ar  472  TRP472      0.0015
    176  N        -10.5910  -14.2280   33.6210 N.3   475  ALA475     -0.1245
    177  CA        -9.3550  -14.5750   32.9000 C.3   475  ALA475      0.1562
    178  C         -8.0720  -14.2850   33.7030 C.2   475  ALA475      0.2260
    179  O         -7.1000  -15.0330   33.5770 O.2   475  ALA475     -0.2867
    180  CB        -9.3110  -13.8850   31.5470 C.3   475  ALA475      0.0290
    181  N         -2.3550  -11.2170   15.3490 N.3   502  MET502     -0.1245
    182  CA        -2.8250  -11.1850   16.7440 C.3   502  MET502      0.1570
    183  C         -2.4540  -12.4770   17.4880 C.2   502  MET502      0.2261
    184  O         -2.4240  -12.4900   18.7180 O.2   502  MET502     -0.2867
    185  CB        -4.3370  -11.0280   16.7830 C.3   502  MET502      0.0387
    186  CG        -4.7930   -9.6230   16.6420 C.3   502  MET502      0.0595
    187  SD        -6.5980   -9.5570   16.5940 S.3   502  MET502     -0.1393
    188  CE        -6.9890  -10.0250   18.3260 C.3   502  MET502      0.0692
@<TRIPOS>BOND
     1   181   182    1
     2    98    97    2
     3   100   101    1
     4   187   186    1
     5   187   188    1
     6   186   185    1
     7   182   185    1
     8   182   183    1
     9    97    99   am
    10    97    96    1
    11   183   184    2
    12   101   102    1
    13   101   104    1
    14    94    95    2
    15    94    93    1
    16   145   144    1
    17   102   103    2
    18   108   110   ar
    19   108   106   ar
    20   110   109   ar
    21   111   112    1
    22    93    96    1
    23    93    92    1
    24   106   105   ar
    25   109   107   ar
    26   119   117   am
    27   105   107   ar
    28   105   104    1
    29     9    10    1
    30   116   117    1
    31   116   115    1
    32   144   143   ar
    33   144   142   ar
    34   117   118    2
    35   112   115    1
    36   112   113    1
    37   143   141   ar
    38   142   140   ar
    39    10    13    1
    40    10    11    1
    41    15    14   ar
    42    15    17   ar
    43    13    14    1
    44   113   114    2
    45    11    12    2
    46   141   139   ar
    47    87    86    2
    48   140   139   ar
    49    14    16   ar
    50    50    48    1
    51    17    18   ar
    52   139   138    1
    53    23    24    1
    54    48    47    1
    55    86    85    1
    56    16    18   ar
    57    16    19   ar
    58    90    88    1
    59    18    20   ar
    60    24    27    1
    61    24    25    1
    62   138   135    1
    63    85    88    1
    64    85    84    1
    65    27    28    1
    66    81    80    2
    67    88    89    1
    68    19    21   ar
    69    20    22   ar
    70    89    91    1
    71   124   125    1
    72   124   121    1
    73   126   128   ar
    74   126   125   ar
    75   128   129   ar
    76   127   125   ar
    77   127   130   ar
    78   127   129   ar
    79   130   132   ar
    80   129   131   ar
    81   132   133   ar
    82    47    49    1
    83    47    44    1
    84   133   131   ar
    85    29    30    1
    86    29    28    1
    87    43    44    1
    88    25    26    2
    89   134   135    1
    90   134   122   am
    91   135   136    1
    92    84    80   am
    93    80    79    1
    94    21    22   ar
    95    44    45    1
    96   120   121    1
    97   121   122    1
    98   122   123    2
    99   136   137    2
   100    79    82    1
   101    79    78    1
   102   152   153    1
   103   152   151    1
   104     8     7    1
   105    45    46    2
   106    45    51   am
   107    82    83    1
   108    57    51    1
   109    57    56    1
   110    74    73    2
   111    51    52    1
   112     7     6    1
   113   151   150    1
   114    31    32    1
   115    40    38   ar
   116    40    41   ar
   117    56    55    1
   118    38    36   ar
   119    73    72    1
   120    54    53    2
   121     6     5    1
   122    52    53    1
   123    52    55    1
   124    42    41    1
   125   150   147    1
   126    41    39   ar
   127    32    35    1
   128    32    33    1
   129   161   159   am
   130    53    58   am
   131    72    75    1
   132    72    71    1
   133    36    35    1
   134    36    37   ar
   135    75    76    1
   136    33    34    2
   137   147   146    1
   138   147   148    1
   139     5     2    1
   140    39    37   ar
   141    58    59    1
   142   159   158    1
   143   159   160    2
   144     2     1    1
   145     2     3    1
   146    70    68   am
   147    71    77    1
   148   158   155    1
   149    76    77    1
   150    67    68    1
   151    67    64    1
   152    59    60    1
   153    59    62    1
   154   148   149    2
   155    63    60   am
   156    63    64    1
   157     4     3    2
   158    68    69    2
   159    60    61    2
   160    64    65    1
   161   155   156    1
   162   155   154    1
   163   180   177    1
   164   168   167   ar
   165   168   170   ar
   166   156   162   am
   167   156   157    2
   168   162   163    1
   169   166   163    1
   170   166   167    1
   171   163   164    1
   172    66    65    2
   173   167   169   ar
   174   170   171   ar
   175   177   176    1
   176   177   178    1
   177   169   171   ar
   178   169   172   ar
   179   171   173   ar
   180   164   165    2
   181   179   178    2
   182   173   175   ar
   183   172   174   ar
   184   175   174   ar
