@<TRIPOS>MOLECULE
tmp/5alpA01.pdb
 204 200 0 0 0
SMALL
GASTEIGER

@<TRIPOS>ATOM
      1  N         20.4900  -15.8050  -15.9160 N.3   266  PHE266     -0.1228
      2  CA        21.5650  -14.8340  -15.8190 C.3   266  PHE266      0.1721
      3  C         21.7300  -14.3450  -14.3950 C.2   266  PHE266      0.2437
      4  O         20.7170  -13.9520  -13.8140 O.2   266  PHE266     -0.2733
      5  CB        21.2380  -13.6150  -16.7180 C.3   266  PHE266      0.0547
      6  CG        22.2420  -12.4830  -16.6120 C.ar  266  PHE266     -0.0202
      7  CD1       22.0900  -11.4810  -15.6560 C.ar  266  PHE266     -0.0042
      8  CD2       23.3370  -12.4150  -17.4750 C.ar  266  PHE266     -0.0042
      9  CE1       23.0220  -10.4290  -15.5590 C.ar  266  PHE266     -0.0003
     10  CE2       24.2690  -11.3690  -17.3820 C.ar  266  PHE266     -0.0003
     11  CZ        24.1070  -10.3860  -16.4210 C.ar  266  PHE266     -0.0000
     12  N         22.9780  -14.2030  -13.8680 N.am  267  PRO267     -0.2729
     13  CA        24.2830  -14.6290  -14.4190 C.3   267  PRO267      0.1401
     14  C         24.6140  -15.9050  -13.6610 C.2   267  PRO267      0.2269
     15  O         25.1550  -15.8650  -12.5610 O.2   267  PRO267     -0.2865
     16  CB        25.1990  -13.4550  -14.0260 C.3   267  PRO267      0.0296
     17  CG        24.5290  -12.8480  -12.7340 C.3   267  PRO267      0.0237
     18  CD        23.1820  -13.5770  -12.5480 C.3   267  PRO267      0.0939
     19  N         14.5660  -18.0470  -15.6600 N.3   334  ASP334     -0.1225
     20  CA        15.0590  -16.7480  -16.1080 C.3   334  ASP334      0.1805
     21  C         15.3190  -16.7310  -17.6320 C.2   334  ASP334      0.2597
     22  O         14.3990  -17.0620  -18.3780 O.2   334  ASP334     -0.2718
     23  CB        16.2620  -16.2920  -15.2110 C.3   334  ASP334      0.1424
     24  CG        16.7270  -14.8840  -15.5010 C.2   334  ASP334      0.3668
     25  OD1       15.9920  -13.9460  -15.1740 O.co2 334  ASP334     -0.2456
     26  OD2       17.7400  -14.7320  -16.2020 O.co2 334  ASP334     -0.2456
     27  N         16.5300  -16.3450  -18.1150 N.am  335  TRP335     -0.1976
     28  CA        16.8460  -16.3750  -19.5510 C.3   335  TRP335      0.1640
     29  C         16.7200  -17.7990  -20.1330 C.2   335  TRP335      0.2290
     30  O         16.3490  -17.9410  -21.2920 O.2   335  TRP335     -0.2864
     31  CB        18.2450  -15.8130  -19.8410 C.3   335  TRP335      0.0576
     32  CG        18.2210  -14.3690  -20.2290 C.ar  335  TRP335      0.0006
     33  CD1       18.6870  -13.3220  -19.4950 C.ar  335  TRP335      0.0946
     34  CD2       17.6410  -13.8120  -21.4180 C.ar  335  TRP335      0.0152
     35  NE1       18.4370  -12.1420  -20.1520 N.ar  335  TRP335     -0.2442
     36  CE2       17.8130  -12.4080  -21.3400 C.ar  335  TRP335      0.0810
     37  CE3       17.0330  -14.3610  -22.5650 C.ar  335  TRP335      0.0012
     38  CZ2       17.4020  -11.5430  -22.3650 C.ar  335  TRP335      0.0191
     39  CZ3       16.6160  -13.5030  -23.5750 C.ar  335  TRP335      0.0001
     40  CH2       16.8140  -12.1110  -23.4800 C.ar  335  TRP335      0.0015
     41  N         13.0960  -18.3230  -20.9890 N.3   338  MET338     -0.1245
     42  CA        12.7880  -17.7170  -22.2660 C.3   338  MET338      0.1570
     43  C         13.2000  -18.6720  -23.4100 C.2   338  MET338      0.2261
     44  O         12.4380  -18.8330  -24.3650 O.2   338  MET338     -0.2867
     45  CB        13.4810  -16.3460  -22.4190 C.3   338  MET338      0.0387
     46  CG        13.1010  -15.6480  -23.7090 C.3   338  MET338      0.0595
     47  SD        11.4940  -14.7900  -23.6840 S.3   338  MET338     -0.1393
     48  CE        10.3170  -16.1200  -23.6300 C.3   338  MET338      0.0692
     49  N          9.8930  -17.0610  -15.6970 N.3   359  THR359     -0.1204
     50  CA         9.7730  -16.4460  -17.0150 C.3   359  THR359      0.1979
     51  C          8.4740  -16.8170  -17.6860 C.2   359  THR359      0.2459
     52  O          8.2450  -18.0020  -17.9720 O.2   359  THR359     -0.2732
     53  CB        10.9750  -16.7580  -17.8980 C.3   359  THR359      0.1783
     54  OG1       12.1150  -16.5200  -17.1160 O.3   359  THR359     -0.2211
     55  CG2       11.0110  -15.9040  -19.1940 C.3   359  THR359      0.0376
     56  N          7.6200  -15.8080  -17.9430 N.am  360  PRO360     -0.2728
     57  CA         6.3530  -16.1040  -18.6160 C.3   360  PRO360      0.1401
     58  C          6.5330  -16.1830  -20.1320 C.2   360  PRO360      0.2269
     59  O          7.5580  -15.7450  -20.6640 O.2   360  PRO360     -0.2865
     60  CB         5.4800  -14.9050  -18.2400 C.3   360  PRO360      0.0296
     61  CG         6.4600  -13.7350  -18.1290 C.3   360  PRO360      0.0237
     62  CD         7.7700  -14.3510  -17.6630 C.3   360  PRO360      0.0939
     63  N         10.3900   -2.4740  -23.5750 N.3   374  ILE374     -0.1245
     64  CA        11.2810   -2.5350  -22.4100 C.3   374  ILE374      0.1561
     65  C         11.2620   -1.1970  -21.6470 C.2   374  ILE374      0.2260
     66  O         11.1780   -1.2000  -20.4140 O.2   374  ILE374     -0.2867
     67  CB        12.7050   -3.0520  -22.8100 C.3   374  ILE374      0.0252
     68  CG1       12.7320   -4.5940  -22.7990 C.3   374  ILE374      0.0019
     69  CG2       13.8290   -2.4880  -21.9270 C.3   374  ILE374      0.0019
     70  CD1       13.4120   -5.2230  -23.9840 C.3   374  ILE374      0.0001
     71  N         12.3720   -2.7410  -15.8340 N.3   380  PHE380     -0.1241
     72  CA        13.2830   -3.1630  -16.9080 C.3   380  PHE380      0.1605
     73  C         14.3810   -2.1510  -17.2950 C.2   380  PHE380      0.2264
     74  O         15.0310   -2.3490  -18.3320 O.2   380  PHE380     -0.2867
     75  CB        12.5190   -3.6640  -18.1600 C.3   380  PHE380      0.0534
     76  CG        11.6640   -4.9100  -18.0050 C.ar  380  PHE380     -0.0203
     77  CD1       12.0500   -5.9430  -17.1520 C.ar  380  PHE380     -0.0042
     78  CD2       10.5110   -5.0790  -18.7620 C.ar  380  PHE380     -0.0042
     79  CE1       11.2690   -7.0990  -17.0250 C.ar  380  PHE380     -0.0003
     80  CE2        9.7240   -6.2300  -18.6280 C.ar  380  PHE380     -0.0003
     81  CZ        10.1090   -7.2330  -17.7620 C.ar  380  PHE380     -0.0000
     82  N         17.3690   -1.5930  -15.8800 N.3   382  TYR382     -0.1227
     83  CA        18.6740   -2.2660  -15.8330 C.3   382  TYR382      0.1736
     84  C         19.0450   -2.8830  -17.2210 C.2   382  TYR382      0.2595
     85  O         20.2220   -2.9590  -17.5390 O.2   382  TYR382     -0.2718
     86  CB        18.6720   -3.3420  -14.7270 C.3   382  TYR382      0.0548
     87  CG        17.7570   -4.5020  -15.0630 C.ar  382  TYR382     -0.0200
     88  CD1       16.3870   -4.4210  -14.8420 C.ar  382  TYR382     -0.0009
     89  CD2       18.2500   -5.6440  -15.6910 C.ar  382  TYR382     -0.0009
     90  CE1       15.5350   -5.4670  -15.1920 C.ar  382  TYR382      0.0417
     91  CE2       17.4030   -6.6790  -16.0770 C.ar  382  TYR382      0.0417
     92  CZ        16.0470   -6.5920  -15.8160 C.ar  382  TYR382      0.1957
     93  OH        15.2040   -7.6150  -16.1770 O.3   382  TYR382     -0.2866
     94  N         18.0420   -3.3000  -18.0380 N.am  383  GLN383     -0.1979
     95  CA        18.2850   -3.8810  -19.3720 C.3   383  GLN383      0.1601
     96  C         18.9150   -2.8620  -20.3190 C.2   383  GLN383      0.2287
     97  O         19.7100   -3.2440  -21.1720 O.2   383  GLN383     -0.2864
     98  CB        17.0030   -4.4320  -19.9870 C.3   383  GLN383      0.0394
     99  CG        16.3760   -5.5700  -19.1950 C.3   383  GLN383      0.0908
    100  CD        15.3900   -6.3830  -19.9940 C.2   383  GLN383      0.2608
    101  OE1       15.5180   -6.5620  -21.2020 O.2   383  GLN383     -0.2717
    102  NE2       14.4160   -6.9530  -19.3240 N.am  383  GLN383     -0.0878
    103  N         22.5700   -2.6720  -19.5810 N.3   386  PHE386     -0.1241
    104  CA        23.2470   -3.8560  -20.1220 C.3   386  PHE386      0.1605
    105  C         23.5690   -3.7810  -21.6010 C.2   386  PHE386      0.2264
    106  O         24.3530   -4.6070  -22.0840 O.2   386  PHE386     -0.2867
    107  CB        22.4050   -5.1280  -19.8470 C.3   386  PHE386      0.0534
    108  CG        22.2980   -5.5850  -18.4090 C.ar  386  PHE386     -0.0203
    109  CD1       23.0380   -4.9680  -17.4030 C.ar  386  PHE386     -0.0042
    110  CD2       21.4780   -6.6540  -18.0650 C.ar  386  PHE386     -0.0042
    111  CE1       22.9460   -5.4010  -16.0820 C.ar  386  PHE386     -0.0003
    112  CE2       21.3770   -7.0820  -16.7390 C.ar  386  PHE386     -0.0003
    113  CZ        22.1250   -6.4640  -15.7540 C.ar  386  PHE386     -0.0000
    114  N         23.8400   -9.9060   -5.8350 N.3   407  LEU407     -0.1245
    115  CA        22.7620  -10.4460   -6.6730 C.3   407  LEU407      0.1561
    116  C         21.9360  -11.5140   -5.9780 C.2   407  LEU407      0.2260
    117  O         20.7080  -11.4260   -5.9130 O.2   407  LEU407     -0.2867
    118  CB        23.3710  -11.0110   -7.9840 C.3   407  LEU407      0.0270
    119  CG        23.9470   -9.9810   -8.9400 C.3   407  LEU407      0.0019
    120  CD1       24.6030  -10.6580  -10.1280 C.3   407  LEU407      0.0001
    121  CD2       22.8780   -8.9740   -9.3910 C.3   407  LEU407      0.0001
    122  N         16.1930   -2.1920   -9.1940 N.3   418  MET418     -0.1245
    123  CA        16.3870   -2.4210  -10.6240 C.3   418  MET418      0.1570
    124  C         15.8910   -1.2680  -11.5110 C.2   418  MET418      0.2261
    125  O         15.9520   -1.3370  -12.7460 O.2   418  MET418     -0.2867
    126  CB        15.7920   -3.7750  -11.0200 C.3   418  MET418      0.0387
    127  CG        16.7880   -4.6540  -11.7240 C.3   418  MET418      0.0595
    128  SD        18.0250   -5.4260  -10.6870 S.3   418  MET418     -0.1393
    129  CE        17.2630   -6.9190  -10.4620 C.3   418  MET418      0.0692
    130  N         24.6620   -0.8790  -11.2180 N.3   427  LEU427     -0.1245
    131  CA        23.9280   -1.8510  -10.4190 C.3   427  LEU427      0.1561
    132  C         24.2620   -1.7860   -8.9260 C.2   427  LEU427      0.2260
    133  O         23.3560   -1.9390   -8.1030 O.2   427  LEU427     -0.2867
    134  CB        24.2280   -3.2840  -10.9380 C.3   427  LEU427      0.0270
    135  CG        23.1480   -4.0590  -11.7150 C.3   427  LEU427      0.0019
    136  CD1       21.8030   -4.0820  -10.9980 C.3   427  LEU427      0.0001
    137  CD2       22.9820   -3.5320  -13.0790 C.3   427  LEU427      0.0001
    138  N         21.1950  -10.3110  -23.6130 N.3   465  TYR465     -0.1241
    139  CA        20.3620   -9.0950  -23.5500 C.3   465  TYR465      0.1605
    140  C         20.5180   -8.1920  -24.7520 C.2   465  TYR465      0.2264
    141  O         19.7630   -7.2340  -24.8970 O.2   465  TYR465     -0.2867
    142  CB        20.8140   -8.2590  -22.3350 C.3   465  TYR465      0.0534
    143  CG        20.3790   -8.7830  -20.9840 C.ar  465  TYR465     -0.0201
    144  CD1       19.1180   -8.4870  -20.4720 C.ar  465  TYR465     -0.0009
    145  CD2       21.2520   -9.5330  -20.1930 C.ar  465  TYR465     -0.0009
    146  CE1       18.7400   -8.9110  -19.1940 C.ar  465  TYR465      0.0417
    147  CE2       20.8850   -9.9600  -18.9200 C.ar  465  TYR465      0.0417
    148  CZ        19.6290   -9.6480  -18.4270 C.ar  465  TYR465      0.1957
    149  OH        19.2590  -10.1310  -17.2090 O.3   465  TYR465     -0.2866
    150  N         17.7880   -7.9200  -28.7540 N.3   468  MET468     -0.1245
    151  CA        16.3620   -7.5290  -28.7000 C.3   468  MET468      0.1570
    152  C         15.6560   -7.5410  -30.0310 C.2   468  MET468      0.2261
    153  O         14.6580   -8.2350  -30.1700 O.2   468  MET468     -0.2867
    154  CB        16.1690   -6.1580  -28.0490 C.3   468  MET468      0.0387
    155  CG        16.0850   -6.2210  -26.5590 C.3   468  MET468      0.0595
    156  SD        16.7350   -4.7180  -25.7960 S.3   468  MET468     -0.1393
    157  CE        15.6610   -3.5240  -26.4410 C.3   468  MET468      0.0692
    158  N         10.9760   -8.6840  -10.6450 N.3   497  VAL497     -0.1231
    159  CA        11.3810   -8.4310  -12.0300 C.3   497  VAL497      0.1692
    160  C         10.4260   -9.2490  -12.9220 C.2   497  VAL497      0.2591
    161  O          9.8310   -8.7120  -13.8640 O.2   497  VAL497     -0.2718
    162  CB        12.8660   -8.7910  -12.3060 C.3   497  VAL497      0.0266
    163  CG1       13.2080   -8.6120  -13.7790 C.3   497  VAL497      0.0020
    164  CG2       13.8050   -7.9640  -11.4340 C.3   497  VAL497      0.0020
    165  N         10.2980  -10.5470  -12.6060 N.am  498  LEU498     -0.1980
    166  CA         9.4170  -11.4890  -13.3090 C.3   498  LEU498      0.1596
    167  C          8.2190  -11.7330  -12.4010 C.2   498  LEU498      0.2287
    168  O          8.1360  -12.7450  -11.7020 O.2   498  LEU498     -0.2864
    169  CB        10.1790  -12.7920  -13.7020 C.3   498  LEU498      0.0297
    170  CG        11.5100  -12.5710  -14.4850 C.3   498  LEU498      0.0022
    171  CD1       12.2590  -13.8750  -14.7000 C.3   498  LEU498      0.0001
    172  CD2       11.2690  -11.8780  -15.8310 C.3   498  LEU498      0.0001
    173  N          2.4950  -10.9430  -14.8070 N.3   502  MET502     -0.1245
    174  CA         3.0380  -10.8790  -16.1720 C.3   502  MET502      0.1570
    175  C          2.6750  -12.1700  -16.9520 C.2   502  MET502      0.2261
    176  O          2.7160  -12.1670  -18.1780 O.2   502  MET502     -0.2867
    177  CB         4.5730  -10.7700  -16.1070 C.3   502  MET502      0.0387
    178  CG         5.1250   -9.3540  -16.1190 C.3   502  MET502      0.0595
    179  SD         6.9530   -9.2850  -15.9160 S.3   502  MET502     -0.1393
    180  CE         7.5110  -10.0670  -17.4860 C.3   502  MET502      0.0692
    181  N         13.4390  -14.0510   -6.8520 N.3   523  HIS523     -0.1226
    182  CA        13.9350  -14.3550   -8.1950 C.3   523  HIS523      0.1752
    183  C         14.7530  -15.6410   -8.2990 C.2   523  HIS523      0.2596
    184  O         14.7190  -16.2820   -9.3420 O.2   523  HIS523     -0.2718
    185  CB        14.7760  -13.1740   -8.7550 C.3   523  HIS523      0.0759
    186  CG        15.2610  -13.4320  -10.1560 C.ar  523  HIS523      0.0818
    187  ND1       14.3730  -13.4520  -11.2330 N.ar  523  HIS523     -0.2268
    188  CD2       16.4830  -13.8370  -10.5910 C.ar  523  HIS523      0.1154
    189  CE1       15.0970  -13.8250  -12.2810 C.ar  523  HIS523      0.1986
    190  NE2       16.3700  -14.0600  -11.9450 N.ar  523  HIS523     -0.2212
    191  N         15.5230  -15.9910   -7.2480 N.am  524  TRP524     -0.1976
    192  CA        16.4680  -17.1300   -7.2440 C.3   524  TRP524      0.1640
    193  C         15.7810  -18.3900   -6.8000 C.2   524  TRP524      0.2290
    194  O         16.2500  -19.0890   -5.9050 O.2   524  TRP524     -0.2864
    195  CB        17.7280  -16.7760   -6.4350 C.3   524  TRP524      0.0576
    196  CG        18.2600  -15.4110   -6.7920 C.ar  524  TRP524      0.0006
    197  CD1       18.1430  -14.2700   -6.0520 C.ar  524  TRP524      0.0946
    198  CD2       18.9200  -15.0250   -8.0150 C.ar  524  TRP524      0.0152
    199  NE1       18.6650  -13.1980   -6.7410 N.ar  524  TRP524     -0.2442
    200  CE2       19.1610  -13.6330   -7.9430 C.ar  524  TRP524      0.0810
    201  CE3       19.3380  -15.7280   -9.1690 C.ar  524  TRP524      0.0012
    202  CZ2       19.7990  -12.9240   -8.9720 C.ar  524  TRP524      0.0191
    203  CZ3       19.9720  -15.0220  -10.1770 C.ar  524  TRP524      0.0001
    204  CH2       20.2290  -13.6460  -10.0590 C.ar  524  TRP524      0.0015
@<TRIPOS>BOND
     1   153   152    2
     2   152   151    1
     3   150   151    1
     4   151   154    1
     5   154   155    1
     6   155   156    1
     7   157   156    1
     8   141   140    2
     9   140   139    1
    10    44    43    2
    11    70    68    1
    12    46    47    1
    13    46    45    1
    14    47    48    1
    15   138   139    1
    16    39    40   ar
    17    39    37   ar
    18    63    64    1
    19   139   142    1
    20    40    38   ar
    21    43    42    1
    22    67    68    1
    23    67    64    1
    24    67    69    1
    25    37    34   ar
    26    45    42    1
    27    64    65    1
    28    38    36   ar
    29   142   143    1
    30    42    41    1
    31   106   105    2
    32    65    66    2
    33   105   104    1
    34    34    36   ar
    35    34    32   ar
    36    36    35   ar
    37    30    29    2
    38   101   100    2
    39    97    96    2
    40   143   144   ar
    41   143   145   ar
    42    59    58    2
    43   144   146   ar
    44    96    95    1
    45    32    31    1
    46    32    33   ar
    47   145   147   ar
    48    35    33   ar
    49    29    28    1
    50    58    57    1
    51   104   107    1
    52   104   103    1
    53   100   102   am
    54   100    99    1
    55    98    95    1
    56    98    99    1
    57   107   108    1
    58    31    28    1
    59    28    27    1
    60    95    94    1
    61   146   148   ar
    62    55    53    1
    63   147   148   ar
    64    78    80   ar
    65    78    76   ar
    66    80    81   ar
    67    57    60    1
    68    57    56    1
    69   148   149    1
    70   108   110   ar
    71   108   109   ar
    72    22    21    2
    73    74    73    2
    74    60    61    1
    75   176   175    2
    76    75    76    1
    77    75    72    1
    78    61    62    1
    79    27    21   am
    80   110   112   ar
    81    94    84   am
    82    76    77   ar
    83    52    51    2
    84    56    51   am
    85    56    62    1
    86    53    54    1
    87    53    50    1
    88    81    79   ar
    89    51    50    1
    90    21    20    1
    91    85    84    2
    92   180   179    1
    93     8    10   ar
    94     8     6   ar
    95   109   111   ar
    96    10    11   ar
    97    73    72    1
    98    84    83    1
    99    77    79   ar
   100    50    49    1
   101   175   174    1
   102    72    71    1
   103   112   113   ar
   104     5     6    1
   105     5     2    1
   106     6     7   ar
   107    11     9   ar
   108    26    24   ar
   109    93    92    1
   110   174   177    1
   111   174   173    1
   112   178   177    1
   113   178   179    1
   114    20    19    1
   115    20    23    1
   116   111   113   ar
   117    91    92   ar
   118    91    89   ar
   119     1     2    1
   120    82    83    1
   121    83    86    1
   122   172   170    1
   123     2     3    1
   124    92    90   ar
   125    89    87   ar
   126     7     9   ar
   127    24    23    1
   128    24    25   ar
   129    90    88   ar
   130    87    88   ar
   131    87    86    1
   132   171   170    1
   133   170   169    1
   134    13    16    1
   135    13    12    1
   136    13    14    1
   137     3    12   am
   138     3     4    2
   139    16    17    1
   140    12    18    1
   141   161   160    2
   142   163   162    1
   143   169   166    1
   144    14    15    2
   145   166   165    1
   146   166   167    1
   147   137   135    1
   148   160   165   am
   149   160   159    1
   150   125   124    2
   151    17    18    1
   152   167   168    2
   153   162   159    1
   154   162   164    1
   155   189   190   ar
   156   189   187   ar
   157   159   158    1
   158   190   188   ar
   159   127   126    1
   160   127   128    1
   161   135   136    1
   162   135   134    1
   163   124   123    1
   164   187   186   ar
   165   130   131    1
   166   126   123    1
   167   134   131    1
   168   128   129    1
   169   123   122    1
   170   188   186   ar
   171   131   132    1
   172   203   204   ar
   173   203   201   ar
   174   186   185    1
   175   120   119    1
   176   204   202   ar
   177   121   119    1
   178   184   183    2
   179   201   198   ar
   180   202   200   ar
   181   119   118    1
   182   132   133    2
   183   185   182    1
   184   183   182    1
   185   183   191   am
   186   182   181    1
   187   198   200   ar
   188   198   196   ar
   189   118   115    1
   190   200   199   ar
   191   191   192    1
   192   192   193    1
   193   192   195    1
   194   193   194    2
   195   196   195    1
   196   196   197   ar
   197   199   197   ar
   198   115   116    1
   199   115   114    1
   200   116   117    2
