@<TRIPOS>MOLECULE
tmp/5alqA00.pdb
 173 171 0 0 0
SMALL
GASTEIGER

@<TRIPOS>ATOM
      1  N         20.3160   15.6080   16.1100 N.3   254  PHE254     -0.1228
      2  CA        21.4170   14.6480   15.9540 C.3   254  PHE254      0.1721
      3  C         21.5830   14.1630   14.5110 C.2   254  PHE254      0.2437
      4  O         20.5910   13.7520   13.9160 O.2   254  PHE254     -0.2733
      5  CB        21.2040   13.4300   16.8820 C.3   254  PHE254      0.0547
      6  CG        22.2290   12.3210   16.7600 C.ar  254  PHE254     -0.0202
      7  CD1       22.0890   11.3200   15.8050 C.ar  254  PHE254     -0.0042
      8  CD2       23.3180   12.2600   17.6180 C.ar  254  PHE254     -0.0042
      9  CE1       23.0310   10.2960   15.6920 C.ar  254  PHE254     -0.0003
     10  CE2       24.2590   11.2310   17.5060 C.ar  254  PHE254     -0.0003
     11  CZ        24.1120   10.2620   16.5390 C.ar  254  PHE254     -0.0000
     12  N         22.8070   14.0780   13.9460 N.am  255  PRO255     -0.2729
     13  CA        24.1250   14.4970   14.4480 C.3   255  PRO255      0.1401
     14  C         24.4700   15.8020   13.7100 C.2   255  PRO255      0.2269
     15  O         25.1630   15.7880   12.6860 O.2   255  PRO255     -0.2865
     16  CB        25.0090   13.3230   14.0020 C.3   255  PRO255      0.0296
     17  CG        24.2780   12.7180   12.7550 C.3   255  PRO255      0.0237
     18  CD        22.9680   13.4800   12.6130 C.3   255  PRO255      0.0939
     19  N         14.4460   17.9760   15.8170 N.3   322  ASP322     -0.1225
     20  CA        14.9420   16.6780   16.2650 C.3   322  ASP322      0.1805
     21  C         15.1260   16.6420   17.7980 C.2   322  ASP322      0.2597
     22  O         14.1690   16.9370   18.5120 O.2   322  ASP322     -0.2718
     23  CB        16.2340   16.3630   15.4970 C.3   322  ASP322      0.1424
     24  CG        16.5970   14.9270   15.5150 C.2   322  ASP322      0.3668
     25  OD1       15.9460   14.1650   14.8100 O.co2 322  ASP322     -0.2456
     26  OD2       17.5260   14.5630   16.2660 O.co2 322  ASP322     -0.2456
     27  N         16.3430   16.3270   18.3040 N.am  323  TRP323     -0.1976
     28  CA        16.6460   16.3340   19.7390 C.3   323  TRP323      0.1640
     29  C         16.5150   17.7590   20.2930 C.2   323  TRP323      0.2290
     30  O         16.1320   17.9330   21.4480 O.2   323  TRP323     -0.2864
     31  CB        18.0440   15.7650   20.0220 C.3   323  TRP323      0.0576
     32  CG        18.0630   14.3350   20.4710 C.ar  323  TRP323      0.0006
     33  CD1       18.6930   13.2960   19.8550 C.ar  323  TRP323      0.0946
     34  CD2       17.4860   13.8020   21.6740 C.ar  323  TRP323      0.0152
     35  NE1       18.5430   12.1460   20.5930 N.ar  323  TRP323     -0.2442
     36  CE2       17.7970   12.4230   21.7100 C.ar  323  TRP323      0.0810
     37  CE3       16.7140   14.3470   22.7120 C.ar  323  TRP323      0.0012
     38  CZ2       17.3490   11.5810   22.7370 C.ar  323  TRP323      0.0191
     39  CZ3       16.2790   13.5130   23.7310 C.ar  323  TRP323      0.0001
     40  CH2       16.6080   12.1520   23.7450 C.ar  323  TRP323      0.0015
     41  N         12.9180   18.3820   21.1450 N.3   326  MET326     -0.1245
     42  CA        12.6300   17.7390   22.4320 C.3   326  MET326      0.1570
     43  C         12.9980   18.6920   23.5750 C.2   326  MET326      0.2261
     44  O         12.1450   18.9780   24.4120 O.2   326  MET326     -0.2867
     45  CB        13.4090   16.4120   22.5510 C.3   326  MET326      0.0387
     46  CG        12.9980   15.5520   23.7150 C.3   326  MET326      0.0595
     47  SD        11.4380   14.6840   23.4290 S.3   326  MET326     -0.1393
     48  CE        11.7100   13.2280   24.4620 C.3   326  MET326      0.0692
     49  N          9.7340   17.0330   15.7200 N.3   347  THR347     -0.1218
     50  CA         9.6170   16.4690   17.0740 C.3   347  THR347      0.1862
     51  C          8.2950   16.8050   17.7400 C.2   347  THR347      0.2287
     52  O          8.0630   17.9620   18.0960 O.2   347  THR347     -0.2866
     53  CB        10.8070   16.8550   17.9530 C.3   347  THR347      0.1770
     54  OG1       11.9810   16.7440   17.1630 O.3   347  THR347     -0.2211
     55  CG2       10.9200   15.9850   19.2030 C.3   347  THR347      0.0375
     56  N         12.3060    2.8990   16.1900 N.3   368  PHE368     -0.1241
     57  CA        13.2310    3.3280   17.2470 C.3   368  PHE368      0.1605
     58  C         14.3090    2.3160   17.6780 C.2   368  PHE368      0.2264
     59  O         14.9890    2.5480   18.6800 O.2   368  PHE368     -0.2867
     60  CB        12.4490    3.8580   18.4670 C.3   368  PHE368      0.0534
     61  CG        11.5340    5.0310   18.1860 C.ar  368  PHE368     -0.0203
     62  CD1       11.9290    6.0580   17.3320 C.ar  368  PHE368     -0.0042
     63  CD2       10.2970    5.1330   18.8090 C.ar  368  PHE368     -0.0042
     64  CE1       11.0870    7.1410   17.0750 C.ar  368  PHE368     -0.0003
     65  CE2        9.4600    6.2260   18.5590 C.ar  368  PHE368     -0.0003
     66  CZ         9.8630    7.2210   17.6940 C.ar  368  PHE368     -0.0000
     67  N         17.2500    1.7700   16.3880 N.3   370  TYR370     -0.1227
     68  CA        18.5690    2.4120   16.2880 C.3   370  TYR370      0.1736
     69  C         18.9690    3.0620   17.6170 C.2   370  TYR370      0.2595
     70  O         20.1630    3.2010   17.8860 O.2   370  TYR370     -0.2718
     71  CB        18.5930    3.4400   15.1410 C.3   370  TYR370      0.0548
     72  CG        17.7060    4.6320   15.4100 C.ar  370  TYR370     -0.0200
     73  CD1       16.3420    4.5790   15.1570 C.ar  370  TYR370     -0.0009
     74  CD2       18.2190    5.7900   15.9810 C.ar  370  TYR370     -0.0009
     75  CE1       15.5090    5.6550   15.4510 C.ar  370  TYR370      0.0417
     76  CE2       17.3930    6.8600   16.3040 C.ar  370  TYR370      0.0417
     77  CZ        16.0410    6.8000   16.0130 C.ar  370  TYR370      0.1957
     78  OH        15.2120    7.8600   16.2970 O.3   370  TYR370     -0.2866
     79  N         17.9660    3.4640   18.4340 N.am  371  GLN371     -0.1979
     80  CA        18.1630    4.0720   19.7510 C.3   371  GLN371      0.1601
     81  C         18.7560    3.0400   20.7090 C.2   371  GLN371      0.2287
     82  O         19.5690    3.4020   21.5630 O.2   371  GLN371     -0.2864
     83  CB        16.8540    4.6560   20.3150 C.3   371  GLN371      0.0394
     84  CG        16.2180    5.7280   19.4260 C.3   371  GLN371      0.0908
     85  CD        15.2600    6.6710   20.1230 C.2   371  GLN371      0.2608
     86  OE1       14.6720    6.3740   21.1680 O.2   371  GLN371     -0.2717
     87  NE2       15.0580    7.8320   19.5300 N.am  371  GLN371     -0.0878
     88  N         22.3830    2.5840   19.8680 N.3   374  PHE374     -0.1241
     89  CA        23.0910    3.7510   20.3950 C.3   374  PHE374      0.1605
     90  C         23.3750    3.6710   21.9090 C.2   374  PHE374      0.2264
     91  O         24.1190    4.5060   22.4240 O.2   374  PHE374     -0.2867
     92  CB        22.2970    5.0400   20.0730 C.3   374  PHE374      0.0534
     93  CG        22.2580    5.5250   18.6360 C.ar  374  PHE374     -0.0203
     94  CD1       23.0140    4.9040   17.6480 C.ar  374  PHE374     -0.0042
     95  CD2       21.4900    6.6260   18.2790 C.ar  374  PHE374     -0.0042
     96  CE1       23.0000    5.3780   16.3310 C.ar  374  PHE374     -0.0003
     97  CE2       21.4740    7.0940   16.9590 C.ar  374  PHE374     -0.0003
     98  CZ        22.2240    6.4650   15.9940 C.ar  374  PHE374     -0.0000
     99  N         23.5490    9.9130    5.7450 N.3   395  LEU395     -0.1245
    100  CA        22.4710   10.4610    6.5710 C.3   395  LEU395      0.1561
    101  C         21.7090   11.6050    5.9130 C.2   395  LEU395      0.2260
    102  O         20.4870   11.5290    5.8010 O.2   395  LEU395     -0.2867
    103  CB        22.9970   10.8940    7.9520 C.3   395  LEU395      0.0270
    104  CG        23.5560    9.8040    8.8580 C.3   395  LEU395      0.0019
    105  CD1       24.3970   10.4010    9.9430 C.3   395  LEU395      0.0001
    106  CD2       22.4580    8.9830    9.4700 C.3   395  LEU395      0.0001
    107  N         17.1940    2.0360    8.8470 N.3   406  MET406     -0.1245
    108  CA        16.9670    2.3470   10.2760 C.3   406  MET406      0.1570
    109  C         16.2350    1.2430   11.0660 C.2   406  MET406      0.2261
    110  O         16.1710    1.3090   12.2960 O.2   406  MET406     -0.2867
    111  CB        16.3770    3.7540   10.5170 C.3   406  MET406      0.0387
    112  CG        17.1450    4.5540   11.5520 C.3   406  MET406      0.0595
    113  SD        17.9920    6.0060   10.8880 S.3   406  MET406     -0.1393
    114  CE        19.3730    5.2270   10.0650 C.3   406  MET406      0.0692
    115  N         24.2920    0.8810   11.3270 N.3   415  LEU415     -0.1245
    116  CA        23.4850    1.7790   10.5030 C.3   415  LEU415      0.1561
    117  C         23.8520    1.6940    9.0220 C.2   415  LEU415      0.2260
    118  O         22.9860    1.8950    8.1680 O.2   415  LEU415     -0.2867
    119  CB        23.7190    3.2280   10.9720 C.3   415  LEU415      0.0270
    120  CG        22.6070    3.9120   11.7580 C.3   415  LEU415      0.0019
    121  CD1       22.6280    3.4990   13.2190 C.3   415  LEU415      0.0001
    122  CD2       22.7500    5.4140   11.6580 C.3   415  LEU415      0.0001
    123  N         21.0560   10.2110   23.8580 N.3   453  TYR453     -0.1241
    124  CA        20.2270    8.9950   23.8230 C.3   453  TYR453      0.1605
    125  C         20.4390    8.0970   25.0380 C.2   453  TYR453      0.2264
    126  O         19.6710    7.1510   25.2370 O.2   453  TYR453     -0.2867
    127  CB        20.6070    8.1420   22.6080 C.3   453  TYR453      0.0534
    128  CG        20.3170    8.7620   21.2660 C.ar  453  TYR453     -0.0201
    129  CD1       21.2590    9.5620   20.6310 C.ar  453  TYR453     -0.0009
    130  CD2       19.1410    8.4640   20.5800 C.ar  453  TYR453     -0.0009
    131  CE1       21.0160   10.1020   19.3740 C.ar  453  TYR453      0.0417
    132  CE2       18.8910    8.9900   19.3170 C.ar  453  TYR453      0.0417
    133  CZ        19.8320    9.8080   18.7200 C.ar  453  TYR453      0.1957
    134  OH        19.6110   10.3360   17.4830 O.3   453  TYR453     -0.2866
    135  N         10.6520    8.5400   10.6170 N.3   485  VAL485     -0.1231
    136  CA        10.9850    8.3100   12.0310 C.3   485  VAL485      0.1692
    137  C         10.0700    9.1950   12.8960 C.2   485  VAL485      0.2591
    138  O          9.3760    8.6880   13.7850 O.2   485  VAL485     -0.2718
    139  CB        12.4900    8.5410   12.3430 C.3   485  VAL485      0.0266
    140  CG1       12.7850    8.3680   13.8360 C.3   485  VAL485      0.0020
    141  CG2       13.3750    7.6220   11.5070 C.3   485  VAL485      0.0020
    142  N         10.0770   10.5170   12.6210 N.am  486  LEU486     -0.1980
    143  CA         9.2460   11.5010   13.3130 C.3   486  LEU486      0.1596
    144  C          8.0490   11.7970   12.4160 C.2   486  LEU486      0.2287
    145  O          7.9680   12.8530   11.7850 O.2   486  LEU486     -0.2864
    146  CB        10.0510   12.7740   13.6680 C.3   486  LEU486      0.0297
    147  CG        11.2740   12.5830   14.5750 C.3   486  LEU486      0.0022
    148  CD1       12.0420   13.8790   14.7340 C.3   486  LEU486      0.0001
    149  CD2       10.8830   12.0150   15.9370 C.3   486  LEU486      0.0001
    150  N         13.3920   14.0300    6.8970 N.3   511  HIS511     -0.1226
    151  CA        13.7890   14.3210    8.2730 C.3   511  HIS511      0.1752
    152  C         14.5670   15.6310    8.4210 C.2   511  HIS511      0.2596
    153  O         14.3760   16.3390    9.4100 O.2   511  HIS511     -0.2718
    154  CB        14.5880   13.1510    8.8640 C.3   511  HIS511      0.0759
    155  CG        15.1120   13.4280   10.2360 C.ar  511  HIS511      0.0818
    156  ND1       16.4310   13.7920   10.4420 N.ar  511  HIS511     -0.2268
    157  CD2       14.4640   13.4410   11.4210 C.ar  511  HIS511      0.1154
    158  CE1       16.5460   13.9870   11.7430 C.ar  511  HIS511      0.1986
    159  NE2       15.3880   13.7840   12.3710 N.ar  511  HIS511     -0.2212
    160  N         15.4440   15.9430    7.4510 N.am  512  TRP512     -0.1976
    161  CA        16.3140   17.1180    7.4500 C.3   512  TRP512      0.1640
    162  C         15.5860   18.3450    6.9000 C.2   512  TRP512      0.2290
    163  O         16.0270   18.9710    5.9360 O.2   512  TRP512     -0.2864
    164  CB        17.6250   16.8060    6.7050 C.3   512  TRP512      0.0576
    165  CG        18.1370   15.4210    6.9810 C.ar  512  TRP512      0.0006
    166  CD1       17.9690   14.3190    6.1980 C.ar  512  TRP512      0.0946
    167  CD2       18.7790   14.9670    8.1820 C.ar  512  TRP512      0.0152
    168  NE1       18.4950   13.2110    6.8200 N.ar  512  TRP512     -0.2442
    169  CE2       19.0090   13.5810    8.0360 C.ar  512  TRP512      0.0810
    170  CE3       19.2090   15.6030    9.3600 C.ar  512  TRP512      0.0012
    171  CZ2       19.6520   12.8180    9.0220 C.ar  512  TRP512      0.0191
    172  CZ3       19.8430   14.8460   10.3360 C.ar  512  TRP512      0.0001
    173  CH2       20.0640   13.4720   10.1590 C.ar  512  TRP512      0.0015
@<TRIPOS>BOND
     1    99   100    1
     2   102   101    2
     3   101   100    1
     4   163   162    2
     5   166   168   ar
     6   166   165   ar
     7   100   103    1
     8   164   165    1
     9   164   161    1
    10   168   169   ar
    11   150   151    1
    12   162   161    1
    13   165   167   ar
    14   161   160    1
    15   160   152   am
    16   103   104    1
    17   169   167   ar
    18   169   171   ar
    19   118   117    2
    20   167   170   ar
    21   151   152    1
    22   151   154    1
    23   152   153    2
    24   107   108    1
    25   104   106    1
    26   104   105    1
    27   154   155    1
    28   117   116    1
    29   171   173   ar
    30   170   172   ar
    31   114   113    1
    32   173   172   ar
    33   155   156   ar
    34   155   157   ar
    35   108   111    1
    36   108   109    1
    37   156   158   ar
    38   116   119    1
    39   116   115    1
    40   111   112    1
    41   135   136    1
    42   113   112    1
    43   119   120    1
    44   109   110    2
    45   157   159   ar
    46   141   139    1
    47   122   120    1
    48   158   159   ar
    49   120   121    1
    50   145   144    2
    51   136   139    1
    52   136   137    1
    53   139   140    1
    54   144   143    1
    55    18    17    1
    56    18    12    1
    57   142   137   am
    58   142   143    1
    59    15    14    2
    60    17    16    1
    61   137   138    2
    62   143   146    1
    63   146   147    1
    64    14    13    1
    65     4     3    2
    66    12    13    1
    67    12     3   am
    68    16    13    1
    69     3     2    1
    70   147   148    1
    71   147   149    1
    72    25    24   ar
    73    71    72    1
    74    71    68    1
    75    73    72   ar
    76    73    75   ar
    77    72    74   ar
    78    75    77   ar
    79    23    24    1
    80    23    20    1
    81    24    26   ar
    82     9     7   ar
    83     9    11   ar
    84    49    50    1
    85     7     6   ar
    86    19    20    1
    87     2     1    1
    88     2     5    1
    89    74    76   ar
    90    98    96   ar
    91    98    97   ar
    92    77    78    1
    93    77    76   ar
    94    56    57    1
    95    20    21    1
    96    68    67    1
    97    68    69    1
    98    96    94   ar
    99    11    10   ar
   100     6     5    1
   101     6     8   ar
   102    97    95   ar
   103    50    51    1
   104    50    53    1
   105    64    62   ar
   106    64    66   ar
   107    54    53    1
   108    57    58    1
   109    57    60    1
   110    62    61   ar
   111   134   133    1
   112    10     8   ar
   113    69    70    2
   114    69    79   am
   115    94    93   ar
   116    58    59    2
   117    66    65   ar
   118    51    52    2
   119    21    27   am
   120    21    22    2
   121    53    55    1
   122    61    60    1
   123    61    63   ar
   124    95    93   ar
   125    27    28    1
   126    79    80    1
   127    65    63   ar
   128    93    92    1
   129   133   132   ar
   130   133   131   ar
   131   132   130   ar
   132   131   129   ar
   133    84    85    1
   134    84    83    1
   135    87    85   am
   136    28    31    1
   137    28    29    1
   138    80    83    1
   139    80    81    1
   140    33    32   ar
   141    33    35   ar
   142    88    89    1
   143    31    32    1
   144    92    89    1
   145    85    86    2
   146    29    30    2
   147    89    90    1
   148    32    34   ar
   149   130   128   ar
   150    35    36   ar
   151   129   128   ar
   152    81    82    2
   153    41    42    1
   154   128   127    1
   155    34    36   ar
   156    34    37   ar
   157    36    38   ar
   158    90    91    2
   159    42    45    1
   160    42    43    1
   161    45    46    1
   162   127   124    1
   163    37    39   ar
   164    38    40   ar
   165    47    46    1
   166    47    48    1
   167    43    44    2
   168    39    40   ar
   169   124   123    1
   170   124   125    1
   171   125   126    2
