@<TRIPOS>MOLECULE
tmp/5alrA00.pdb
 189 185 0 0 0
SMALL
GASTEIGER

@<TRIPOS>ATOM
      1  N        -20.2740  -15.6660   16.3360 N.3   266  PHE266     -0.1228
      2  CA       -21.3400  -14.6680   16.2400 C.3   266  PHE266      0.1721
      3  C        -21.4770  -14.1030   14.8240 C.2   266  PHE266      0.2437
      4  O        -20.4760  -13.6090   14.3040 O.2   266  PHE266     -0.2733
      5  CB       -21.0510  -13.5090   17.2180 C.3   266  PHE266      0.0547
      6  CG       -21.9930  -12.3350   17.1100 C.ar  266  PHE266     -0.0202
      7  CD1      -23.1860  -12.3100   17.8260 C.ar  266  PHE266     -0.0042
      8  CD2      -21.6910  -11.2500   16.2860 C.ar  266  PHE266     -0.0042
      9  CE1      -24.0680  -11.2270   17.7130 C.ar  266  PHE266     -0.0003
     10  CE2      -22.5690  -10.1620   16.1800 C.ar  266  PHE266     -0.0003
     11  CZ       -23.7520  -10.1610   16.8950 C.ar  266  PHE266     -0.0000
     12  N        -22.6840  -14.0450   14.2020 N.am  267  PRO267     -0.2729
     13  CA       -24.0170  -14.5260   14.6210 C.3   267  PRO267      0.1401
     14  C        -24.3050  -15.8070   13.8400 C.2   267  PRO267      0.2269
     15  O        -24.8000  -15.7570   12.7090 O.2   267  PRO267     -0.2865
     16  CB       -24.9280  -13.3730   14.1620 C.3   267  PRO267      0.0296
     17  CG       -24.1340  -12.6480   13.0190 C.3   267  PRO267      0.0237
     18  CD       -22.8010  -13.3750   12.8960 C.3   267  PRO267      0.0939
     19  N        -14.4580  -17.9750   16.0310 N.3   334  ASP334     -0.1225
     20  CA       -14.8960  -16.6510   16.4600 C.3   334  ASP334      0.1805
     21  C        -15.1180  -16.6180   17.9850 C.2   334  ASP334      0.2597
     22  O        -14.1690  -16.8670   18.7130 O.2   334  ASP334     -0.2718
     23  CB       -16.1060  -16.2090   15.5960 C.3   334  ASP334      0.1424
     24  CG       -16.6220  -14.8340   15.8900 C.2   334  ASP334      0.3668
     25  OD1      -15.9380  -13.8660   15.5320 O.co2 334  ASP334     -0.2456
     26  OD2      -17.6800  -14.7300   16.5450 O.co2 334  ASP334     -0.2456
     27  N        -16.3430  -16.3530   18.4800 N.am  335  TRP335     -0.1976
     28  CA       -16.6350  -16.3750   19.9130 C.3   335  TRP335      0.1640
     29  C        -16.5030  -17.8080   20.4700 C.2   335  TRP335      0.2290
     30  O        -16.1320  -17.9780   21.6380 O.2   335  TRP335     -0.2864
     31  CB       -18.0000  -15.7460   20.2080 C.3   335  TRP335      0.0576
     32  CG       -17.9410  -14.2490   20.3270 C.ar  335  TRP335      0.0006
     33  CD1      -18.2720  -13.3330   19.3680 C.ar  335  TRP335      0.0946
     34  CD2      -17.4520  -13.4990   21.4460 C.ar  335  TRP335      0.0152
     35  NE1      -18.0470  -12.0580   19.8310 N.ar  335  TRP335     -0.2442
     36  CE2      -17.5690  -12.1270   21.1150 C.ar  335  TRP335      0.0810
     37  CE3      -16.9840  -13.8480   22.7200 C.ar  335  TRP335      0.0012
     38  CZ2      -17.2270  -11.1040   22.0150 C.ar  335  TRP335      0.0191
     39  CZ3      -16.6710  -12.8380   23.6200 C.ar  335  TRP335      0.0001
     40  CH2      -16.7640  -11.4840   23.2570 C.ar  335  TRP335      0.0015
     41  N        -12.8220  -18.3520   21.4690 N.3   338  MET338     -0.1245
     42  CA       -12.6040  -17.7220   22.7700 C.3   338  MET338      0.1570
     43  C        -12.9920  -18.6870   23.8950 C.2   338  MET338      0.2261
     44  O        -12.1930  -18.9340   24.8020 O.2   338  MET338     -0.2867
     45  CB       -13.4470  -16.4400   22.8510 C.3   338  MET338      0.0387
     46  CG       -13.2120  -15.6420   24.0910 C.3   338  MET338      0.0595
     47  SD       -12.3770  -14.0810   23.7650 S.3   338  MET338     -0.1393
     48  CE       -10.6680  -14.6850   23.3160 C.3   338  MET338      0.0692
     49  N         -9.6050  -17.0840   15.9610 N.3   359  THR359     -0.1218
     50  CA        -9.5430  -16.5360   17.3180 C.3   359  THR359      0.1862
     51  C         -8.2430  -16.8330   18.0270 C.2   359  THR359      0.2287
     52  O         -7.9880  -17.9850   18.3750 O.2   359  THR359     -0.2866
     53  CB       -10.7850  -16.9000   18.1390 C.3   359  THR359      0.1770
     54  OG1      -11.9260  -16.7550   17.3020 O.3   359  THR359     -0.2211
     55  CG2      -10.9310  -16.0480   19.3950 C.3   359  THR359      0.0375
     56  N        -12.4560   -2.1420   16.2300 N.3   376  PHE376     -0.1241
     57  CA       -13.5190   -2.7040   17.0700 C.3   376  PHE376      0.1605
     58  C        -14.5390   -1.6150   17.4740 C.2   376  PHE376      0.2264
     59  O        -14.8530   -1.4120   18.6600 O.2   376  PHE376     -0.2867
     60  CB       -12.9410   -3.4990   18.2720 C.3   376  PHE376      0.0534
     61  CG       -12.3250   -4.8590   17.9880 C.ar  376  PHE376     -0.0203
     62  CD1      -11.8280   -5.1740   16.7220 C.ar  376  PHE376     -0.0042
     63  CD2      -12.1930   -5.8020   18.9990 C.ar  376  PHE376     -0.0042
     64  CE1      -11.2430   -6.4150   16.4680 C.ar  376  PHE376     -0.0003
     65  CE2      -11.6040   -7.0430   18.7460 C.ar  376  PHE376     -0.0003
     66  CZ       -11.1360   -7.3400   17.4790 C.ar  376  PHE376     -0.0000
     67  N        -17.6980   -1.6460   16.2440 N.3   378  TYR378     -0.1227
     68  CA       -18.9000   -2.4710   16.3760 C.3   378  TYR378      0.1736
     69  C        -19.0960   -2.9880   17.8180 C.2   378  TYR378      0.2595
     70  O        -20.2360   -3.1510   18.2390 O.2   378  TYR378     -0.2718
     71  CB       -18.8630   -3.6340   15.3600 C.3   378  TYR378      0.0548
     72  CG       -17.6770   -4.5590   15.5380 C.ar  378  TYR378     -0.0200
     73  CD1      -17.7440   -5.6490   16.3990 C.ar  378  TYR378     -0.0009
     74  CD2      -16.4750   -4.3190   14.8800 C.ar  378  TYR378     -0.0009
     75  CE1      -16.6370   -6.4580   16.6250 C.ar  378  TYR378      0.0417
     76  CE2      -15.3730   -5.1490   15.0640 C.ar  378  TYR378      0.0417
     77  CZ       -15.4580   -6.2160   15.9440 C.ar  378  TYR378      0.1957
     78  OH       -14.3810   -7.0380   16.1520 O.3   378  TYR378     -0.2866
     79  N        -17.9930   -3.2420   18.5600 N.am  379  GLN379     -0.1979
     80  CA       -18.0020   -3.6920   19.9530 C.3   379  GLN379      0.1601
     81  C        -18.7940   -2.7060   20.8170 C.2   379  GLN379      0.2287
     82  O        -19.6880   -3.1220   21.5580 O.2   379  GLN379     -0.2864
     83  CB       -16.5710   -3.7990   20.4860 C.3   379  GLN379      0.0394
     84  CG       -15.7440   -4.8610   19.7970 C.3   379  GLN379      0.0908
     85  CD       -15.2960   -5.9100   20.7720 C.2   379  GLN379      0.2608
     86  OE1      -14.2260   -5.8150   21.3780 O.2   379  GLN379     -0.2717
     87  NE2      -16.1110   -6.9310   20.9560 N.am  379  GLN379     -0.0878
     88  N        -22.4690   -2.5570   20.1560 N.3   382  PHE382     -0.1241
     89  CA       -23.1530   -3.7290   20.6790 C.3   382  PHE382      0.1605
     90  C        -23.3770   -3.6400   22.1840 C.2   382  PHE382      0.2264
     91  O        -24.1210   -4.4580   22.7340 O.2   382  PHE382     -0.2867
     92  CB       -22.3610   -5.0100   20.3150 C.3   382  PHE382      0.0534
     93  CG       -22.2600   -5.4080   18.8540 C.ar  382  PHE382     -0.0203
     94  CD1      -23.0710   -4.8150   17.8900 C.ar  382  PHE382     -0.0042
     95  CD2      -21.3740   -6.3970   18.4480 C.ar  382  PHE382     -0.0042
     96  CE1      -22.9900   -5.2020   16.5460 C.ar  382  PHE382     -0.0003
     97  CE2      -21.2800   -6.7710   17.0990 C.ar  382  PHE382     -0.0003
     98  CZ       -22.0980   -6.1810   16.1610 C.ar  382  PHE382     -0.0000
     99  N        -30.1940   -5.4810   13.4320 N.3   392  LEU392     -0.1245
    100  CA       -29.9230   -6.8350   12.9340 C.3   392  LEU392      0.1561
    101  C        -31.1780   -7.6610   12.7200 C.2   392  LEU392      0.2260
    102  O        -31.1920   -8.4810   11.8070 O.2   392  LEU392     -0.2867
    103  CB       -28.8990   -7.5810   13.8190 C.3   392  LEU392      0.0270
    104  CG       -27.5020   -6.9610   13.8950 C.3   392  LEU392      0.0019
    105  CD1      -26.8330   -7.2680   15.2200 C.3   392  LEU392      0.0001
    106  CD2      -26.6360   -7.4190   12.7530 C.3   392  LEU392      0.0001
    107  N        -23.5140   -9.7510    5.9380 N.3   403  LEU403     -0.1245
    108  CA       -22.4410  -10.3090    6.7560 C.3   403  LEU403      0.1561
    109  C        -21.6750  -11.4360    6.0830 C.2   403  LEU403      0.2260
    110  O        -20.4570  -11.3510    5.9630 O.2   403  LEU403     -0.2867
    111  CB       -22.9650  -10.7780    8.1180 C.3   403  LEU403      0.0270
    112  CG       -23.4090   -9.7030    9.0780 C.3   403  LEU403      0.0019
    113  CD1      -24.2350  -10.2960   10.1640 C.3   403  LEU403      0.0001
    114  CD2      -22.2280   -8.9340    9.6360 C.3   403  LEU403      0.0001
    115  N        -19.6130   -4.8240    3.8420 N.3   412  LEU412     -0.1245
    116  CA       -19.8000   -4.3800    5.2200 C.3   412  LEU412      0.1561
    117  C        -18.5810   -3.6280    5.7660 C.2   412  LEU412      0.2260
    118  O        -17.4350   -4.0160    5.5070 O.2   412  LEU412     -0.2867
    119  CB       -20.1160   -5.5980    6.0980 C.3   412  LEU412      0.0270
    120  CG       -20.6710   -5.3140    7.4790 C.3   412  LEU412      0.0019
    121  CD1      -22.1270   -5.6690    7.5520 C.3   412  LEU412      0.0001
    122  CD2      -19.8850   -6.0570    8.5270 C.3   412  LEU412      0.0001
    123  N        -16.7390   -2.1520    9.3240 N.3   414  MET414     -0.1245
    124  CA       -16.5840   -2.3170   10.7790 C.3   414  MET414      0.1570
    125  C        -16.1050   -1.0010   11.4000 C.2   414  MET414      0.2261
    126  O        -16.2470   -0.7900   12.6090 O.2   414  MET414     -0.2867
    127  CB       -15.5690   -3.4290   11.0950 C.3   414  MET414      0.0387
    128  CG       -16.1990   -4.7440   11.5290 C.3   414  MET414      0.0595
    129  SD       -16.5370   -5.9520   10.2260 S.3   414  MET414     -0.1393
    130  CE       -14.9260   -6.0400    9.4100 C.3   414  MET414      0.0692
    131  N        -24.6840   -0.5580   11.5560 N.3   423  LEU423     -0.1245
    132  CA       -23.8000   -1.5400   10.9350 C.3   423  LEU423      0.1561
    133  C        -23.9550   -1.5310    9.4120 C.2   423  LEU423      0.2260
    134  O        -22.9600   -1.7080    8.7030 O.2   423  LEU423     -0.2867
    135  CB       -24.1300   -2.9540   11.4790 C.3   423  LEU423      0.0270
    136  CG       -22.9970   -3.8660   11.9990 C.3   423  LEU423      0.0019
    137  CD1      -21.8910   -4.0460   10.9880 C.3   423  LEU423      0.0001
    138  CD2      -22.4480   -3.4030   13.3290 C.3   423  LEU423      0.0001
    139  N        -21.0140  -10.1980   23.8630 N.3   461  TYR461     -0.1241
    140  CA       -20.2280   -8.9590   23.8060 C.3   461  TYR461      0.1605
    141  C        -20.4010   -8.0880   25.0630 C.2   461  TYR461      0.2264
    142  O        -19.6590   -7.1230   25.2340 O.2   461  TYR461     -0.2867
    143  CB       -20.7310   -8.1020   22.6320 C.3   461  TYR461      0.0534
    144  CG       -20.2870   -8.5580   21.2640 C.ar  461  TYR461     -0.0201
    145  CD1      -21.0510   -9.4550   20.5250 C.ar  461  TYR461     -0.0009
    146  CD2      -19.1350   -8.0440   20.6790 C.ar  461  TYR461     -0.0009
    147  CE1      -20.6490   -9.8710   19.2580 C.ar  461  TYR461      0.0417
    148  CE2      -18.7290   -8.4430   19.4070 C.ar  461  TYR461      0.0417
    149  CZ       -19.4860   -9.3590   18.7000 C.ar  461  TYR461      0.1957
    150  OH       -19.0700   -9.7400   17.4480 O.3   461  TYR461     -0.2866
    151  N        -11.0030   -8.7150   11.2400 N.3   493  VAL493     -0.1231
    152  CA       -11.3930   -8.5850   12.6490 C.3   493  VAL493      0.1692
    153  C        -10.3750   -9.3780   13.4830 C.2   493  VAL493      0.2591
    154  O         -9.7120   -8.8170   14.3610 O.2   493  VAL493     -0.2718
    155  CB       -12.8560   -9.0390   12.9200 C.3   493  VAL493      0.0266
    156  CG1      -13.1060   -9.2650   14.4100 C.3   493  VAL493      0.0020
    157  CG2      -13.8560   -8.0400   12.3640 C.3   493  VAL493      0.0020
    158  N        -10.2590  -10.6840   13.1880 N.am  494  LEU494     -0.1980
    159  CA        -9.3650  -11.6130   13.8730 C.3   494  LEU494      0.1596
    160  C         -8.1790  -11.8600   12.9510 C.2   494  LEU494      0.2287
    161  O         -8.1350  -12.8590   12.2280 O.2   494  LEU494     -0.2864
    162  CB       -10.1190  -12.9160   14.2570 C.3   494  LEU494      0.0297
    163  CG       -11.4430  -12.7580   15.0440 C.3   494  LEU494      0.0022
    164  CD1      -12.2140  -14.0530   15.0740 C.3   494  LEU494      0.0001
    165  CD2      -11.2080  -12.2610   16.4610 C.3   494  LEU494      0.0001
    166  N        -13.3600  -13.9820    7.2060 N.3   519  HIS519     -0.1226
    167  CA       -13.7530  -14.2300    8.5900 C.3   519  HIS519      0.1752
    168  C        -14.5800  -15.4950    8.7680 C.2   519  HIS519      0.2596
    169  O        -14.3910  -16.2170    9.7450 O.2   519  HIS519     -0.2718
    170  CB       -14.4860  -13.0110    9.1580 C.3   519  HIS519      0.0759
    171  CG       -15.1470  -13.2710   10.4710 C.ar  519  HIS519      0.0818
    172  ND1      -14.4180  -13.3240   11.6420 N.ar  519  HIS519     -0.2268
    173  CD2      -16.4480  -13.5290   10.7460 C.ar  519  HIS519      0.1154
    174  CE1      -15.2990  -13.5880   12.5920 C.ar  519  HIS519      0.1986
    175  NE2      -16.5330  -13.7150   12.0970 N.ar  519  HIS519     -0.2212
    176  N        -15.4990  -15.7500    7.8270 N.am  520  TRP520     -0.1976
    177  CA       -16.4130  -16.8900    7.8010 C.3   520  TRP520      0.1640
    178  C        -15.6840  -18.0930    7.2210 C.2   520  TRP520      0.2290
    179  O        -16.1390  -18.6950    6.2480 O.2   520  TRP520     -0.2864
    180  CB       -17.6780  -16.5240    7.0010 C.3   520  TRP520      0.0576
    181  CG       -18.1360  -15.1150    7.2590 C.ar  520  TRP520      0.0006
    182  CD1      -17.9010  -14.0220    6.4780 C.ar  520  TRP520      0.0946
    183  CD2      -18.7910  -14.6310    8.4410 C.ar  520  TRP520      0.0152
    184  NE1      -18.3890  -12.8910    7.0850 N.ar  520  TRP520     -0.2442
    185  CE2      -18.9480  -13.2350    8.2890 C.ar  520  TRP520      0.0810
    186  CE3      -19.2950  -15.2490    9.6000 C.ar  520  TRP520      0.0012
    187  CZ2      -19.5920  -12.4450    9.2510 C.ar  520  TRP520      0.0191
    188  CZ3      -19.9110  -14.4610   10.5630 C.ar  520  TRP520      0.0001
    189  CH2      -20.0490  -13.0770   10.3890 C.ar  520  TRP520      0.0015
@<TRIPOS>BOND
     1   115   116    1
     2   116   117    1
     3   116   119    1
     4   118   117    2
     5   107   108    1
     6   110   109    2
     7   109   108    1
     8   119   120    1
     9   179   178    2
    10   182   184   ar
    11   182   181   ar
    12   108   111    1
    13   180   181    1
    14   180   177    1
    15   184   185   ar
    16   166   167    1
    17   178   177    1
    18   181   183   ar
    19   120   121    1
    20   120   122    1
    21   177   176    1
    22   176   168   am
    23   111   112    1
    24   185   183   ar
    25   185   187   ar
    26   183   186   ar
    27   167   168    1
    28   167   170    1
    29   134   133    2
    30   168   169    2
    31   112   114    1
    32   112   113    1
    33   170   171    1
    34   187   189   ar
    35   123   124    1
    36   130   129    1
    37   133   132    1
    38   186   188   ar
    39   129   128    1
    40   189   188   ar
    41   171   173   ar
    42   171   172   ar
    43   173   175   ar
    44   124   127    1
    45   124   125    1
    46   132   135    1
    47   132   131    1
    48   137   136    1
    49   127   128    1
    50   151   152    1
    51   125   126    2
    52   135   136    1
    53   172   174   ar
    54   102   101    2
    55   136   138    1
    56   175   174   ar
    57   161   160    2
    58   157   155    1
    59   152   155    1
    60   152   153    1
    61    15    14    2
    62   101   100    1
    63   106   104    1
    64    18    17    1
    65    18    12    1
    66   155   156    1
    67   100    99    1
    68   100   103    1
    69   160   159    1
    70    17    16    1
    71   158   153   am
    72   158   159    1
    73   153   154    2
    74   103   104    1
    75    14    13    1
    76   159   162    1
    77   104   105    1
    78    16    13    1
    79    12    13    1
    80    12     3   am
    81   162   163    1
    82     4     3    2
    83     3     2    1
    84    74    76   ar
    85    74    72   ar
    86   163   164    1
    87   163   165    1
    88    76    77   ar
    89    71    72    1
    90    71    68    1
    91    25    24   ar
    92    72    73   ar
    93    23    24    1
    94    23    20    1
    95    24    26   ar
    96    77    78    1
    97    77    75   ar
    98    49    50    1
    99    19    20    1
   100    98    96   ar
   101    98    97   ar
   102    10     8   ar
   103    10    11   ar
   104    56    57    1
   105     2     1    1
   106     2     5    1
   107    67    68    1
   108     8     6   ar
   109    68    69    1
   110    73    75   ar
   111    20    21    1
   112    64    62   ar
   113    64    66   ar
   114    96    94   ar
   115    62    61   ar
   116    11     9   ar
   117    57    58    1
   118    57    60    1
   119    97    95   ar
   120     6     5    1
   121     6     7   ar
   122    54    53    1
   123    50    51    1
   124    50    53    1
   125   150   149    1
   126    58    59    2
   127    66    65   ar
   128     9     7   ar
   129    69    70    2
   130    69    79   am
   131    94    93   ar
   132    21    27   am
   133    21    22    2
   134    61    60    1
   135    61    63   ar
   136    51    52    2
   137    53    55    1
   138    95    93   ar
   139    27    28    1
   140    79    80    1
   141   149   147   ar
   142   149   148   ar
   143    65    63   ar
   144    93    92    1
   145   147   145   ar
   146    33    35   ar
   147    33    32   ar
   148   148   146   ar
   149    84    83    1
   150    84    85    1
   151    35    36   ar
   152    28    31    1
   153    28    29    1
   154    80    83    1
   155    80    81    1
   156    88    89    1
   157    31    32    1
   158    92    89    1
   159    32    34   ar
   160    29    30    2
   161   145   144   ar
   162   146   144   ar
   163    89    90    1
   164    85    87   am
   165    85    86    2
   166    81    82    2
   167    36    34   ar
   168    36    38   ar
   169   144   143    1
   170    34    37   ar
   171    41    42    1
   172    38    40   ar
   173    90    91    2
   174   143   140    1
   175    37    39   ar
   176    42    45    1
   177    42    43    1
   178    45    46    1
   179    40    39   ar
   180    48    47    1
   181    47    46    1
   182   140   139    1
   183   140   141    1
   184    43    44    2
   185   141   142    2
