@<TRIPOS>MOLECULE
tmp/5altA01.pdb
 150 142 0 0 0
SMALL
GASTEIGER

@<TRIPOS>ATOM
      1  N         14.5860   17.6520   15.7880 N.3   334  ASP334     -0.1225
      2  CA        15.0320   16.3340   16.2420 C.3   334  ASP334      0.1805
      3  C         15.3100   16.3820   17.7670 C.2   334  ASP334      0.2597
      4  O         14.3910   16.7150   18.5190 O.2   334  ASP334     -0.2718
      5  CB        16.2160   15.8370   15.3590 C.3   334  ASP334      0.1424
      6  CG        16.7390   14.4630   15.7080 C.2   334  ASP334      0.3668
      7  OD1       16.0800   13.4730   15.3420 O.co2 334  ASP334     -0.2456
      8  OD2       17.7740   14.3850   16.4190 O.co2 334  ASP334     -0.2456
      9  N         16.5590   16.1150   18.2240 N.am  335  TRP335     -0.1976
     10  CA        16.9100   16.2290   19.6400 C.3   335  TRP335      0.1640
     11  C         16.7160   17.6560   20.1680 C.2   335  TRP335      0.2290
     12  O         16.2440   17.8220   21.2910 O.2   335  TRP335     -0.2864
     13  CB        18.3140   15.6830   19.9490 C.3   335  TRP335      0.0576
     14  CG        18.2840   14.3150   20.5760 C.ar  335  TRP335      0.0006
     15  CD1       18.7840   13.1630   20.0430 C.ar  335  TRP335      0.0946
     16  CD2       17.6390   13.9430   21.8070 C.ar  335  TRP335      0.0152
     17  NE1       18.5240   12.1040   20.8820 N.ar  335  TRP335     -0.2442
     18  CE2       17.8190   12.5520   21.9690 C.ar  335  TRP335      0.0810
     19  CE3       16.9380   14.6520   22.8000 C.ar  335  TRP335      0.0012
     20  CZ2       17.2960   11.8500   23.0640 C.ar  335  TRP335      0.0191
     21  CZ3       16.4590   13.9620   23.9050 C.ar  335  TRP335      0.0001
     22  CH2       16.6470   12.5780   24.0320 C.ar  335  TRP335      0.0015
     23  N         13.0780   18.1180   21.0160 N.3   338  MET338     -0.1245
     24  CA        12.7880   17.4810   22.3010 C.3   338  MET338      0.1570
     25  C         13.1740   18.4350   23.4500 C.2   338  MET338      0.2261
     26  O         12.3680   18.6350   24.3500 O.2   338  MET338     -0.2867
     27  CB        13.5530   16.1490   22.4080 C.3   338  MET338      0.0387
     28  CG        13.1420   15.2810   23.5900 C.3   338  MET338      0.0595
     29  SD        11.5030   14.4850   23.5040 S.3   338  MET338     -0.1393
     30  CE        11.6040   13.7370   22.0970 C.3   338  MET338      0.0692
     31  N          9.9040   16.9060   15.5770 N.3   359  THR359     -0.1218
     32  CA         9.7850   16.3090   16.9070 C.3   359  THR359      0.1862
     33  C          8.4620   16.7000   17.5720 C.2   359  THR359      0.2287
     34  O          8.2370   17.8690   17.8530 O.2   359  THR359     -0.2866
     35  CB        10.9970   16.6710   17.7810 C.3   359  THR359      0.1770
     36  OG1       12.1550   16.4650   17.0030 O.3   359  THR359     -0.2211
     37  CG2       11.0670   15.8050   19.0650 C.3   359  THR359      0.0375
     38  N          6.5130   14.7040   23.1520 N.3   362  ILE362     -0.1245
     39  CA         6.4020   13.3350   23.6560 C.3   362  ILE362      0.1561
     40  C          6.3200   13.3560   25.1890 C.2   362  ILE362      0.2260
     41  O          7.3570   13.5450   25.8450 O.2   362  ILE362     -0.2867
     42  CB         7.5200   12.3710   23.1230 C.3   362  ILE362      0.0252
     43  CG1        7.6280   12.4110   21.5800 C.3   362  ILE362      0.0019
     44  CG2        7.2880   10.9210   23.6300 C.3   362  ILE362      0.0019
     45  CD1        8.8560   11.7140   20.9600 C.3   362  ILE362      0.0001
     46  N         10.9330    3.9220   29.6720 N.3   370  PRO370     -0.2116
     47  CA        11.2070    4.6030   28.3900 C.3   370  PRO370      0.1372
     48  C         11.7760    3.6730   27.3110 C.2   370  PRO370      0.2244
     49  O         11.4210    3.8360   26.1470 O.2   370  PRO370     -0.2868
     50  CB        12.1990    5.7030   28.7780 C.3   370  PRO370      0.0268
     51  CG        12.8190    5.2140   30.0450 C.3   370  PRO370      0.0207
     52  CD        11.7060    4.5320   30.7700 C.3   370  PRO370      0.0892
     53  N          8.9680    1.7020   25.7160 N.3   373  SER373     -0.1202
     54  CA         8.2230    2.6230   24.8500 C.3   373  SER373      0.2020
     55  C          8.9070    2.7680   23.4870 C.2   373  SER373      0.2618
     56  O          8.2170    2.8190   22.4650 O.2   373  SER373     -0.2717
     57  CB         8.0580    3.9830   25.5260 C.3   373  SER373      0.2103
     58  OG         7.3300    3.8650   26.7380 O.3   373  SER373     -0.2182
     59  N         10.2640    2.7960   23.4810 N.am  374  ILE374     -0.1979
     60  CA        11.1190    2.8610   22.2840 C.3   374  ILE374      0.1595
     61  C         10.9270    1.5540   21.4900 C.2   374  ILE374      0.2287
     62  O         10.6840    1.5960   20.2790 O.2   374  ILE374     -0.2864
     63  CB        12.6260    3.0640   22.6830 C.3   374  ILE374      0.0276
     64  CG1       12.8920    4.3870   23.4620 C.3   374  ILE374      0.0022
     65  CG2       13.5840    2.8870   21.4990 C.3   374  ILE374      0.0022
     66  CD1       12.9190    5.6820   22.6840 C.3   374  ILE374      0.0001
     67  N          7.8430    0.7710   19.1620 N.3   377  ASN377     -0.1240
     68  CA         7.8470    1.4190   17.8470 C.3   377  ASN377      0.1653
     69  C          9.0630    0.9730   17.0010 C.2   377  ASN377      0.2266
     70  O         10.1900    1.3880   17.2800 O.2   377  ASN377     -0.2867
     71  CB         7.7760    2.9530   17.9830 C.3   377  ASN377      0.1155
     72  CG         7.3020    3.6880   16.7460 C.2   377  ASN377      0.2627
     73  OD1        7.2670    3.1600   15.6270 O.2   377  ASN377     -0.2716
     74  ND2        6.9250    4.9410   16.9250 N.am  377  ASN377     -0.0877
     75  N         12.0400    3.4150   15.8380 N.3   380  PHE380     -0.1241
     76  CA        12.9550    3.9000   16.8740 C.3   380  PHE380      0.1605
     77  C         14.0420    2.8860   17.2850 C.2   380  PHE380      0.2264
     78  O         14.6910    3.0700   18.3220 O.2   380  PHE380     -0.2867
     79  CB        12.1790    4.4790   18.0810 C.3   380  PHE380      0.0534
     80  CG        11.5510    5.8200   17.7730 C.ar  380  PHE380     -0.0203
     81  CD1       12.2740    6.9990   17.9270 C.ar  380  PHE380     -0.0042
     82  CD2       10.2530    5.9020   17.2800 C.ar  380  PHE380     -0.0042
     83  CE1       11.6990    8.2410   17.6180 C.ar  380  PHE380     -0.0003
     84  CE2        9.6770    7.1430   16.9770 C.ar  380  PHE380     -0.0003
     85  CZ        10.4050    8.3050   17.1470 C.ar  380  PHE380     -0.0000
     86  N         16.9750    2.3680   15.8510 N.3   382  TYR382     -0.1227
     87  CA        18.2720    3.0390   15.7900 C.3   382  TYR382      0.1736
     88  C         18.6840    3.5900   17.1850 C.2   382  TYR382      0.2595
     89  O         19.8710    3.5720   17.5190 O.2   382  TYR382     -0.2718
     90  CB        18.2650    4.1330   14.7040 C.3   382  TYR382      0.0548
     91  CG        17.5530    5.4140   15.0950 C.ar  382  TYR382     -0.0200
     92  CD1       16.1670    5.5210   15.0070 C.ar  382  TYR382     -0.0009
     93  CD2       18.2700    6.5250   15.5350 C.ar  382  TYR382     -0.0009
     94  CE1       15.5100    6.6980   15.3660 C.ar  382  TYR382      0.0417
     95  CE2       17.6210    7.7060   15.9010 C.ar  382  TYR382      0.0417
     96  CZ        16.2420    7.7940   15.8030 C.ar  382  TYR382      0.1957
     97  OH        15.6040    8.9640   16.1580 O.3   382  TYR382     -0.2866
     98  N         17.6920    4.0010   18.0120 N.am  383  GLN383     -0.1979
     99  CA        17.9200    4.5240   19.3640 C.3   383  GLN383      0.1601
    100  C         18.4460    3.4330   20.3020 C.2   383  GLN383      0.2287
    101  O         19.2450    3.7270   21.1920 O.2   383  GLN383     -0.2864
    102  CB        16.6560    5.1880   19.9360 C.3   383  GLN383      0.0394
    103  CG        16.0440    6.2630   19.0290 C.3   383  GLN383      0.0908
    104  CD        15.3410    7.3840   19.7630 C.2   383  GLN383      0.2608
    105  OE1       15.0480    7.3100   20.9540 O.2   383  GLN383     -0.2717
    106  NE2       15.0680    8.4720   19.0620 N.am  383  GLN383     -0.0878
    107  N         21.0580   10.2910   23.6360 N.3   465  TYR465     -0.1241
    108  CA        20.1630    9.1130   23.6120 C.3   465  TYR465      0.1605
    109  C         20.3610    8.1600   24.7900 C.2   465  TYR465      0.2264
    110  O         19.5720    7.2250   24.9590 O.2   465  TYR465     -0.2867
    111  CB        20.4160    8.2860   22.3380 C.3   465  TYR465      0.0534
    112  CG        20.0970    8.9690   21.0280 C.ar  465  TYR465     -0.0201
    113  CD1       21.0720    9.6840   20.3380 C.ar  465  TYR465     -0.0009
    114  CD2       18.8550    8.8070   20.4210 C.ar  465  TYR465     -0.0009
    115  CE1       20.8000   10.2730   19.1040 C.ar  465  TYR465      0.0417
    116  CE2       18.5780    9.3680   19.1750 C.ar  465  TYR465      0.0417
    117  CZ        19.5530   10.1080   18.5250 C.ar  465  TYR465      0.1957
    118  OH        19.2830   10.6950   17.3160 O.3   465  TYR465     -0.2866
    119  N         17.6590    7.9500   28.7120 N.3   468  MET468     -0.1245
    120  CA        16.2260    7.6330   28.6350 C.3   468  MET468      0.1570
    121  C         15.5140    7.5180   29.9730 C.2   468  MET468      0.2261
    122  O         14.4940    8.1750   30.1600 O.2   468  MET468     -0.2867
    123  CB        15.9330    6.4280   27.7130 C.3   468  MET468      0.0387
    124  CG        16.3320    6.6470   26.2460 C.3   468  MET468      0.0595
    125  SD        15.7670    8.2160   25.4940 S.3   468  MET468     -0.1393
    126  CE        16.4780    8.0740   23.8870 C.3   468  MET468      0.0692
    127  N         15.7450   10.9970   31.8880 N.3   471  ASN471     -0.1240
    128  CA        14.8280   11.9380   31.2440 C.3   471  ASN471      0.1653
    129  C         13.3850   11.6080   31.5980 C.2   471  ASN471      0.2266
    130  O         12.6040   12.5250   31.8460 O.2   471  ASN471     -0.2867
    131  CB        15.0280   11.9490   29.7240 C.3   471  ASN471      0.1155
    132  CG        16.3590   12.4840   29.2460 C.2   471  ASN471      0.2627
    133  OD1       17.1260   13.1150   29.9860 O.2   471  ASN471     -0.2716
    134  ND2       16.6450   12.2960   27.9640 N.am  471  ASN471     -0.0877
    135  N         10.0070   10.3980   12.6890 N.3   498  LEU498     -0.1245
    136  CA         9.1980   11.4180   13.3580 C.3   498  LEU498      0.1561
    137  C          8.0170   11.7280   12.4430 C.2   498  LEU498      0.2260
    138  O          7.9560   12.7850   11.8110 O.2   498  LEU498     -0.2867
    139  CB        10.0430   12.6590   13.7240 C.3   498  LEU498      0.0270
    140  CG        11.2750   12.3810   14.6180 C.3   498  LEU498      0.0019
    141  CD1       12.1470   13.6040   14.7460 C.3   498  LEU498      0.0001
    142  CD2       10.8660   11.8660   16.0060 C.3   498  LEU498      0.0001
    143  N          2.4680   11.0060   14.8860 N.3   502  MET502     -0.1245
    144  CA         3.0240   10.9500   16.2500 C.3   502  MET502      0.1570
    145  C          2.6630   12.2180   17.0630 C.2   502  MET502      0.2261
    146  O          2.7460   12.1950   18.2890 O.2   502  MET502     -0.2867
    147  CB         4.5530   10.8550   16.1850 C.3   502  MET502      0.0387
    148  CG         5.1040    9.4620   16.2930 C.3   502  MET502      0.0595
    149  SD         6.9010    9.5380   16.5780 S.3   502  MET502     -0.1393
    150  CE         6.9420    9.7480   18.3490 C.3   502  MET502      0.0692
@<TRIPOS>BOND
     1   138   137    2
     2   137   136    1
     3   135   136    1
     4   136   139    1
     5   139   140    1
     6   140   141    1
     7   140   142    1
     8    90    91    1
     9    90    87    1
    10   143   144    1
    11    92    91   ar
    12    92    94   ar
    13    91    93   ar
    14     7     6   ar
    15     5     6    1
    16     5     2    1
    17    94    96   ar
    18    93    95   ar
    19    31    32    1
    20    73    72    2
    21     6     8   ar
    22     1     2    1
    23    87    86    1
    24    87    88    1
    25    96    95   ar
    26    96    97    1
    27    75    76    1
    28   147   144    1
    29   147   148    1
    30     2     3    1
    31   144   145    1
    32   148   149    1
    33   149   150    1
    34    72    74   am
    35    72    71    1
    36    76    77    1
    37    76    79    1
    38    32    33    1
    39    32    35    1
    40    84    85   ar
    41    84    82   ar
    42    69    70    2
    43    69    68    1
    44    36    35    1
    45   145   146    2
    46    85    83   ar
    47    88    89    2
    48    88    98   am
    49    82    80   ar
    50    77    78    2
    51   118   117    1
    52    33    34    2
    53    83    81   ar
    54     3     9   am
    55     3     4    2
    56    80    81   ar
    57    80    79    1
    58    35    37    1
    59    68    71    1
    60    68    67    1
    61    98    99    1
    62     9    10    1
    63   117   115   ar
    64   117   116   ar
    65   103   104    1
    66   103   102    1
    67   106   104   am
    68   115   113   ar
    69   116   114   ar
    70    99   102    1
    71    99   100    1
    72    10    13    1
    73    10    11    1
    74   104   105    2
    75    13    14    1
    76    15    14   ar
    77    15    17   ar
    78    11    12    2
    79    62    61    2
    80   100   101    2
    81   113   112   ar
    82   114   112   ar
    83    14    16   ar
    84    17    18   ar
    85    45    43    1
    86    23    24    1
    87   112   111    1
    88    61    60    1
    89    65    63    1
    90    43    42    1
    91    16    18   ar
    92    16    19   ar
    93    18    20   ar
    94    30    29    1
    95    60    63    1
    96    60    59    1
    97    24    27    1
    98    24    25    1
    99   111   108    1
   100    27    28    1
   101    56    55    2
   102    63    64    1
   103    66    64    1
   104    19    21   ar
   105    20    22   ar
   106    42    44    1
   107    42    39    1
   108    38    39    1
   109    25    26    2
   110    59    55   am
   111    55    54    1
   112    29    28    1
   113   108   107    1
   114   108   109    1
   115    39    40    1
   116   126   125    1
   117    21    22   ar
   118   109   110    2
   119    54    57    1
   120    54    53    1
   121    40    41    2
   122   125   124    1
   123    57    58    1
   124    49    48    2
   125   124   123    1
   126    48    47    1
   127   123   120    1
   128   134   132   am
   129    47    50    1
   130    47    46    1
   131   120   119    1
   132   120   121    1
   133    50    51    1
   134   132   131    1
   135   132   133    2
   136    46    52    1
   137   131   128    1
   138   121   122    2
   139    51    52    1
   140   128   129    1
   141   128   127    1
   142   129   130    2
