@<TRIPOS>MOLECULE
tmp/5aluA02.pdb
 225 220 0 0 0
SMALL
GASTEIGER

@<TRIPOS>ATOM
      1  N        -20.0660  -15.7110   15.8810 N.3   266  PHE266     -0.1228
      2  CA       -21.1400  -14.7380   15.8370 C.3   266  PHE266      0.1721
      3  C        -21.3470  -14.1680   14.4310 C.2   266  PHE266      0.2437
      4  O        -20.3700  -13.6870   13.8430 O.2   266  PHE266     -0.2733
      5  CB       -20.8510  -13.5710   16.8200 C.3   266  PHE266      0.0547
      6  CG       -21.8460  -12.4270   16.7160 C.ar  266  PHE266     -0.0202
      7  CD1      -21.6530  -11.3930   15.7990 C.ar  266  PHE266     -0.0042
      8  CD2      -22.9810  -12.3910   17.5270 C.ar  266  PHE266     -0.0042
      9  CE1      -22.5880  -10.3540   15.6790 C.ar  266  PHE266     -0.0003
     10  CE2      -23.9010  -11.3320   17.4300 C.ar  266  PHE266     -0.0003
     11  CZ       -23.7020  -10.3280   16.4960 C.ar  266  PHE266     -0.0000
     12  N        -22.6070  -14.0820   13.9340 N.am  267  PRO267     -0.2729
     13  CA       -23.8690  -14.5910   14.5080 C.3   267  PRO267      0.1401
     14  C        -24.1990  -15.8410   13.6940 C.2   267  PRO267      0.2269
     15  O        -24.7160  -15.7620   12.5850 O.2   267  PRO267     -0.2865
     16  CB       -24.8310  -13.4180   14.2460 C.3   267  PRO267      0.0296
     17  CG       -24.2520  -12.7080   12.9620 C.3   267  PRO267      0.0237
     18  CD       -22.8940  -13.3730   12.6730 C.3   267  PRO267      0.0939
     19  N        -14.2410  -17.8680   15.6200 N.3   334  ASP334     -0.1225
     20  CA       -14.7010  -16.5670   16.0940 C.3   334  ASP334      0.1805
     21  C        -15.0090  -16.6140   17.6110 C.2   334  ASP334      0.2597
     22  O        -14.1130  -16.9940   18.3840 O.2   334  ASP334     -0.2718
     23  CB       -15.8780  -16.0800   15.2050 C.3   334  ASP334      0.1424
     24  CG       -16.2750  -14.6540   15.4800 C.2   334  ASP334      0.3668
     25  OD1      -15.5190  -13.7510   15.0780 O.co2 334  ASP334     -0.2456
     26  OD2      -17.2840  -14.4400   16.2190 O.co2 334  ASP334     -0.2456
     27  N        -16.2530  -16.2880   18.0470 N.am  335  TRP335     -0.1976
     28  CA       -16.6250  -16.3560   19.4660 C.3   335  TRP335      0.1640
     29  C        -16.4580  -17.7590   20.0210 C.2   335  TRP335      0.2290
     30  O        -16.0870  -17.9020   21.1810 O.2   335  TRP335     -0.2864
     31  CB       -18.0480  -15.8330   19.7420 C.3   335  TRP335      0.0576
     32  CG       -18.0970  -14.5010   20.4440 C.ar  335  TRP335      0.0006
     33  CD1      -18.5890  -13.3270   19.9420 C.ar  335  TRP335      0.0946
     34  CD2      -17.4990  -14.1790   21.7060 C.ar  335  TRP335      0.0152
     35  NE1      -18.4060  -12.3090   20.8530 N.ar  335  TRP335     -0.2442
     36  CE2      -17.7410  -12.8070   21.9480 C.ar  335  TRP335      0.0810
     37  CE3      -16.8020  -14.9270   22.6800 C.ar  335  TRP335      0.0012
     38  CZ2      -17.2820  -12.1580   23.1040 C.ar  335  TRP335      0.0191
     39  CZ3      -16.3770  -14.2870   23.8340 C.ar  335  TRP335      0.0001
     40  CH2      -16.6150  -12.9190   24.0340 C.ar  335  TRP335      0.0015
     41  N        -12.7300  -18.1520   20.7940 N.3   338  MET338     -0.1245
     42  CA       -12.4410  -17.5000   22.0800 C.3   338  MET338      0.1570
     43  C        -12.8360  -18.4620   23.2300 C.2   338  MET338      0.2261
     44  O        -12.0480  -18.6920   24.1490 O.2   338  MET338     -0.2867
     45  CB       -13.2280  -16.1620   22.1940 C.3   338  MET338      0.0387
     46  CG       -12.8760  -15.3240   23.4410 C.3   338  MET338      0.0595
     47  SD       -11.2640  -14.5060   23.2360 S.3   338  MET338     -0.1393
     48  CE       -11.3110  -13.3350   24.5690 C.3   338  MET338      0.0692
     49  N         -9.5520  -16.8440   15.5390 N.3   359  THR359     -0.1218
     50  CA        -9.4160  -16.2390   16.8590 C.3   359  THR359      0.1862
     51  C         -8.1190  -16.6560   17.5150 C.2   359  THR359      0.2287
     52  O         -7.9570  -17.8270   17.8190 O.2   359  THR359     -0.2866
     53  CB       -10.6130  -16.5520   17.7690 C.3   359  THR359      0.1770
     54  OG1      -11.8120  -16.2920   17.0530 O.3   359  THR359     -0.2211
     55  CG2      -10.5880  -15.7410   19.0690 C.3   359  THR359      0.0375
     56  N         -6.3190  -14.7230   23.2200 N.3   362  ILE362     -0.1245
     57  CA        -6.3290  -13.3470   23.6970 C.3   362  ILE362      0.1561
     58  C         -6.2880  -13.3180   25.2200 C.2   362  ILE362      0.2260
     59  O         -7.3420  -13.4600   25.8690 O.2   362  ILE362     -0.2867
     60  CB        -7.5260  -12.5250   23.1510 C.3   362  ILE362      0.0252
     61  CG1       -7.6100  -12.5760   21.6080 C.3   362  ILE362      0.0019
     62  CG2       -7.4480  -11.0650   23.6700 C.3   362  ILE362      0.0019
     63  CD1       -8.9460  -12.0500   21.0470 C.3   362  ILE362      0.0001
     64  N        -11.0980   -2.8900   16.7400 N.3   380  PHE380     -0.1241
     65  CA       -12.1940   -3.4340   17.5440 C.3   380  PHE380      0.1605
     66  C        -13.2170   -2.3970   17.9980 C.2   380  PHE380      0.2264
     67  O        -14.0990   -2.7240   18.8020 O.2   380  PHE380     -0.2867
     68  CB       -11.6380   -4.2520   18.7270 C.3   380  PHE380      0.0534
     69  CG       -10.7640   -5.3930   18.2600 C.ar  380  PHE380     -0.0203
     70  CD1      -11.2820   -6.4040   17.4550 C.ar  380  PHE380     -0.0042
     71  CD2       -9.4030   -5.4110   18.5510 C.ar  380  PHE380     -0.0042
     72  CE1      -10.4660   -7.4440   17.0000 C.ar  380  PHE380     -0.0003
     73  CE2       -8.5870   -6.4440   18.0820 C.ar  380  PHE380     -0.0003
     74  CZ        -9.1250   -7.4420   17.2970 C.ar  380  PHE380     -0.0000
     75  N        -15.8100   -1.1580   16.5320 N.3   382  TYR382     -0.1227
     76  CA       -17.1700   -1.5990   16.1570 C.3   382  TYR382      0.1736
     77  C        -17.8870   -2.3520   17.3230 C.2   382  TYR382      0.2595
     78  O        -19.1210   -2.3430   17.3860 O.2   382  TYR382     -0.2718
     79  CB       -17.1330   -2.4840   14.8810 C.3   382  TYR382      0.0548
     80  CG       -16.5210   -3.8480   15.1380 C.ar  382  TYR382     -0.0200
     81  CD1      -15.1440   -4.0410   15.0640 C.ar  382  TYR382     -0.0009
     82  CD2      -17.3140   -4.9290   15.5270 C.ar  382  TYR382     -0.0009
     83  CE1      -14.5710   -5.2740   15.3650 C.ar  382  TYR382      0.0417
     84  CE2      -16.7500   -6.1640   15.8440 C.ar  382  TYR382      0.0417
     85  CZ       -15.3790   -6.3320   15.7550 C.ar  382  TYR382      0.1957
     86  OH       -14.8060   -7.5310   16.0790 O.3   382  TYR382     -0.2866
     87  N        -17.1050   -3.0210   18.2240 N.am  383  GLN383     -0.1979
     88  CA       -17.6590   -3.7620   19.3630 C.3   383  GLN383      0.1601
     89  C        -18.3900   -2.8100   20.3110 C.2   383  GLN383      0.2287
     90  O        -19.2880   -3.2570   21.0110 O.2   383  GLN383     -0.2864
     91  CB       -16.5740   -4.5570   20.1190 C.3   383  GLN383      0.0394
     92  CG       -15.9430   -5.6440   19.2620 C.3   383  GLN383      0.0908
     93  CD       -14.8260   -6.3880   19.9520 C.2   383  GLN383      0.2608
     94  OE1      -14.6540   -6.3410   21.1750 O.2   383  GLN383     -0.2717
     95  NE2      -14.0200   -7.0630   19.1700 N.am  383  GLN383     -0.0878
     96  N        -22.0530   -2.7560   19.7040 N.3   386  PHE386     -0.1241
     97  CA       -22.7630   -3.9200   20.2550 C.3   386  PHE386      0.1605
     98  C        -23.0960   -3.8350   21.7380 C.2   386  PHE386      0.2264
     99  O        -23.7490   -4.7390   22.2590 O.2   386  PHE386     -0.2867
    100  CB       -21.9600   -5.2130   19.9790 C.3   386  PHE386      0.0534
    101  CG       -21.7310   -5.6010   18.5370 C.ar  386  PHE386     -0.0203
    102  CD1      -22.5240   -5.0760   17.5160 C.ar  386  PHE386     -0.0042
    103  CD2      -20.7570   -6.5410   18.2000 C.ar  386  PHE386     -0.0042
    104  CE1      -22.3320   -5.4650   16.1900 C.ar  386  PHE386     -0.0003
    105  CE2      -20.5500   -6.9160   16.8680 C.ar  386  PHE386     -0.0003
    106  CZ       -21.3540   -6.3960   15.8720 C.ar  386  PHE386     -0.0000
    107  N        -23.5320  -10.0160    5.7170 N.3   407  LEU407     -0.1245
    108  CA       -22.4230  -10.5180    6.5310 C.3   407  LEU407      0.1561
    109  C        -21.5950  -11.6050    5.8680 C.2   407  LEU407      0.2260
    110  O        -20.3670  -11.5140    5.8650 O.2   407  LEU407     -0.2867
    111  CB       -22.9140  -10.9990    7.9190 C.3   407  LEU407      0.0270
    112  CG       -23.4450   -9.9510    8.8910 C.3   407  LEU407      0.0019
    113  CD1      -24.0860  -10.6290   10.0960 C.3   407  LEU407      0.0001
    114  CD2      -22.3470   -9.0000    9.3590 C.3   407  LEU407      0.0001
    115  N        -19.9660  -13.0030    3.2210 N.3   409  ARG409     -0.1245
    116  CA       -19.3620  -12.6760    1.9250 C.3   409  ARG409      0.1563
    117  C        -17.8610  -12.9500    1.9740 C.2   409  ARG409      0.2260
    118  O        -17.2640  -12.9110    3.0530 O.2   409  ARG409     -0.2867
    119  CB       -19.5980  -11.1810    1.5960 C.3   409  ARG409      0.0307
    120  CG       -21.0370  -10.7370    1.7540 C.3   409  ARG409      0.0489
    121  CD       -21.3360   -9.3390    1.2260 C.3   409  ARG409      0.2205
    122  NE       -21.2530   -9.2550   -0.2350 N.pl3 409  ARG409     -0.0865
    123  CZ       -22.2040   -9.6540   -1.0710 C.cat 409  ARG409      0.5346
    124  NH1      -23.3150  -10.2060   -0.6090 N.pl3 409  ARG409      0.1354
    125  NH2      -22.0370   -9.5290   -2.3790 N.pl3 409  ARG409      0.1354
    126  N        -16.8400   -7.8530    0.2010 N.3   414  SER414     -0.1217
    127  CA       -17.2940   -7.0700    1.3570 C.3   414  SER414      0.1889
    128  C        -18.1600   -5.8810    0.9970 C.2   414  SER414      0.2288
    129  O        -17.8920   -5.1580    0.0370 O.2   414  SER414     -0.2866
    130  CB       -16.1450   -6.6690    2.2780 C.3   414  SER414      0.2089
    131  OG       -15.4950   -5.4910    1.8260 O.3   414  SER414     -0.2183
    132  N        -19.4720   -4.2970    3.9280 N.3   416  LEU416     -0.1245
    133  CA       -19.3180   -3.7290    5.2690 C.3   416  LEU416      0.1561
    134  C        -17.9980   -2.9580    5.3730 C.2   416  LEU416      0.2260
    135  O        -17.0360   -3.2820    4.6710 O.2   416  LEU416     -0.2867
    136  CB       -19.2990   -4.8640    6.3140 C.3   416  LEU416      0.0270
    137  CG       -20.5770   -5.6720    6.5050 C.3   416  LEU416      0.0019
    138  CD1      -20.2570   -7.1100    6.7910 C.3   416  LEU416      0.0001
    139  CD2      -21.3840   -5.1330    7.6490 C.3   416  LEU416      0.0001
    140  N        -16.4930   -1.9180    8.8640 N.3   418  MET418     -0.1245
    141  CA       -15.9660   -2.3630   10.1740 C.3   418  MET418      0.1570
    142  C        -15.2290   -1.2470   10.9030 C.2   418  MET418      0.2261
    143  O        -15.5340   -0.9820   12.0680 O.2   418  MET418     -0.2867
    144  CB       -15.1570   -3.6820   10.1480 C.3   418  MET418      0.0387
    145  CG       -15.9840   -4.9070    9.7990 C.3   418  MET418      0.0595
    146  SD       -17.4610   -5.1400   10.8220 S.3   418  MET418     -0.1393
    147  CE       -18.3170   -6.3170    9.8500 C.3   418  MET418      0.0692
    148  N        -23.8350   -1.2500   11.2690 N.3   427  LEU427     -0.1245
    149  CA       -23.0950   -2.1760   10.4070 C.3   427  LEU427      0.1561
    150  C        -23.4550   -2.0530    8.9300 C.2   427  LEU427      0.2260
    151  O        -22.5810   -2.2170    8.0830 O.2   427  LEU427     -0.2867
    152  CB       -23.3610   -3.6330   10.8300 C.3   427  LEU427      0.0270
    153  CG       -22.6300   -4.1510   12.0490 C.3   427  LEU427      0.0019
    154  CD1      -23.3840   -5.3280   12.6540 C.3   427  LEU427      0.0001
    155  CD2      -21.1830   -4.5370   11.7020 C.3   427  LEU427      0.0001
    156  N        -21.0140  -10.2480   23.6600 N.3   465  TYR465     -0.1241
    157  CA       -20.1130   -9.0750   23.6820 C.3   465  TYR465      0.1605
    158  C        -20.3020   -8.1490   24.8950 C.2   465  TYR465      0.2264
    159  O        -19.5310   -7.1960   25.0600 O.2   465  TYR465     -0.2867
    160  CB       -20.3540   -8.2180   22.4230 C.3   465  TYR465      0.0534
    161  CG       -19.9410   -8.8430   21.1170 C.ar  465  TYR465     -0.0201
    162  CD1      -18.6570   -8.6550   20.6090 C.ar  465  TYR465     -0.0009
    163  CD2      -20.8550   -9.5540   20.3420 C.ar  465  TYR465     -0.0009
    164  CE1      -18.2880   -9.1790   19.3730 C.ar  465  TYR465      0.0417
    165  CE2      -20.4930  -10.0900   19.1110 C.ar  465  TYR465      0.0417
    166  CZ       -19.2110   -9.8930   18.6260 C.ar  465  TYR465      0.1957
    167  OH       -18.8510  -10.4000   17.4060 O.3   465  TYR465     -0.2866
    168  N         -8.8100  -12.1590    6.5950 N.3   495  ASP495     -0.1225
    169  CA        -9.7630  -11.7780    7.6380 C.3   495  ASP495      0.1805
    170  C         -9.2130  -10.4220    8.1100 C.2   495  ASP495      0.2598
    171  O         -8.1670  -10.3730    8.7580 O.2   495  ASP495     -0.2718
    172  CB        -9.8080  -12.7910    8.8110 C.3   495  ASP495      0.1424
    173  CG       -10.8840  -12.4930    9.8500 C.2   495  ASP495      0.3668
    174  OD1      -11.2680  -11.3130    9.9930 O.co2 495  ASP495     -0.2456
    175  OD2      -11.3430  -13.4480   10.5290 O.co2 495  ASP495     -0.2456
    176  N         -9.8810   -9.3280    7.7300 N.am  496  PHE496     -0.1962
    177  CA        -9.4040   -7.9890    8.0500 C.3   496  PHE496      0.1771
    178  C         -9.6250   -7.4970    9.4600 C.2   496  PHE496      0.2619
    179  O         -9.1590   -6.4080    9.8010 O.2   496  PHE496     -0.2715
    180  CB        -9.7160   -6.9620    6.9430 C.3   496  PHE496      0.0574
    181  CG        -9.1000   -7.3860    5.6250 C.ar  496  PHE496     -0.0200
    182  CD1       -7.7370   -7.6550    5.5260 C.ar  496  PHE496     -0.0042
    183  CD2       -9.8880   -7.5630    4.4980 C.ar  496  PHE496     -0.0042
    184  CE1       -7.1790   -8.0890    4.3210 C.ar  496  PHE496     -0.0003
    185  CE2       -9.3230   -7.9740    3.2870 C.ar  496  PHE496     -0.0003
    186  CZ        -7.9770   -8.2370    3.2100 C.ar  496  PHE496     -0.0000
    187  N        -10.2400   -8.3350   10.3260 N.am  497  VAL497     -0.1963
    188  CA       -10.3740   -7.9800   11.7390 C.3   497  VAL497      0.1727
    189  C         -9.4180   -8.8920   12.5350 C.2   497  VAL497      0.2616
    190  O         -8.5610   -8.4040   13.2810 O.2   497  VAL497     -0.2715
    191  CB       -11.8320   -8.0530   12.2620 C.3   497  VAL497      0.0290
    192  CG1      -11.8800   -7.8050   13.7720 C.3   497  VAL497      0.0023
    193  CG2      -12.7430   -7.0640   11.5120 C.3   497  VAL497      0.0023
    194  N         -9.5730  -10.2120   12.3520 N.am  498  LEU498     -0.1977
    195  CA        -8.7720  -11.2540   13.0040 C.3   498  LEU498      0.1596
    196  C         -7.6230  -11.5860   12.0560 C.2   498  LEU498      0.2287
    197  O         -7.5780  -12.6530   11.4400 O.2   498  LEU498     -0.2864
    198  CB        -9.6620  -12.4880   13.2680 C.3   498  LEU498      0.0297
    199  CG       -10.9050  -12.2380   14.1420 C.3   498  LEU498      0.0022
    200  CD1      -11.6950  -13.5350   14.3340 C.3   498  LEU498      0.0001
    201  CD2      -10.5240  -11.6300   15.4880 C.3   498  LEU498      0.0001
    202  N        -13.1650  -13.9400    6.8260 N.3   523  HIS523     -0.1226
    203  CA       -13.6510  -14.2890    8.1440 C.3   523  HIS523      0.1752
    204  C        -14.4330  -15.6020    8.2590 C.2   523  HIS523      0.2596
    205  O        -14.3690  -16.2330    9.3130 O.2   523  HIS523     -0.2718
    206  CB       -14.5280  -13.1660    8.7090 C.3   523  HIS523      0.0759
    207  CG       -14.9490  -13.4270   10.1210 C.ar  523  HIS523      0.0818
    208  ND1      -16.2380  -13.8030   10.4270 N.ar  523  HIS523     -0.2268
    209  CD2      -14.2080  -13.4660   11.2500 C.ar  523  HIS523      0.1154
    210  CE1      -16.2490  -14.0220   11.7270 C.ar  523  HIS523      0.1986
    211  NE2      -15.0620  -13.8030   12.2660 N.ar  523  HIS523     -0.2212
    212  N        -15.2700  -15.9320    7.2520 N.am  524  TRP524     -0.1976
    213  CA       -16.2000  -17.0860    7.2920 C.3   524  TRP524      0.1640
    214  C        -15.5290  -18.3320    6.7760 C.2   524  TRP524      0.2290
    215  O        -16.0040  -18.9820    5.8500 O.2   524  TRP524     -0.2864
    216  CB       -17.4860  -16.7450    6.5230 C.3   524  TRP524      0.0576
    217  CG       -17.9230  -15.3380    6.8070 C.ar  524  TRP524      0.0006
    218  CD1      -17.6720  -14.2290    6.0430 C.ar  524  TRP524      0.0946
    219  CD2      -18.5920  -14.8760    7.9790 C.ar  524  TRP524      0.0152
    220  NE1      -18.1600  -13.1110    6.6630 N.ar  524  TRP524     -0.2442
    221  CE2      -18.7270  -13.4740    7.8580 C.ar  524  TRP524      0.0810
    222  CE3      -19.1130  -15.5170    9.1270 C.ar  524  TRP524      0.0012
    223  CZ2      -19.3620  -12.6970    8.8360 C.ar  524  TRP524      0.0191
    224  CZ3      -19.7150  -14.7440   10.1040 C.ar  524  TRP524      0.0001
    225  CH2      -19.8430  -13.3510    9.9530 C.ar  524  TRP524      0.0015
@<TRIPOS>BOND
     1   125   123    1
     2   123   124    1
     3   123   122    2
     4   122   121    1
     5   129   128    2
     6   126   127    1
     7   128   127    1
     8   121   120    1
     9   127   130    1
    10   119   120    1
    11   119   116    1
    12   131   130    1
    13   116   117    1
    14   116   115    1
    15   117   118    2
    16   186   185   ar
    17   186   184   ar
    18   185   183   ar
    19   132   133    1
    20   184   182   ar
    21   183   181   ar
    22   135   134    2
    23   133   134    1
    24   133   136    1
    25   182   181   ar
    26   181   180    1
    27   107   108    1
    28   215   214    2
    29   110   109    2
    30   109   108    1
    31   218   220   ar
    32   218   217   ar
    33   136   137    1
    34   137   138    1
    35   137   139    1
    36   216   217    1
    37   216   213    1
    38   108   111    1
    39   168   169    1
    40   220   221   ar
    41   214   213    1
    42   217   219   ar
    43   202   203    1
    44   180   177    1
    45   212   213    1
    46   212   204   am
    47   169   170    1
    48   169   172    1
    49   176   177    1
    50   176   170   am
    51   221   219   ar
    52   221   223   ar
    53   111   112    1
    54   219   222   ar
    55   177   178    1
    56   151   150    2
    57   170   171    2
    58   203   204    1
    59   203   206    1
    60   204   205    2
    61   206   207    1
    62   172   173    1
    63   223   225   ar
    64   140   141    1
    65   112   114    1
    66   112   113    1
    67   150   149    1
    68   222   224   ar
    69   178   179    2
    70   178   187   am
    71   145   144    1
    72   145   146    1
    73   147   146    1
    74   173   174   ar
    75   173   175   ar
    76   225   224   ar
    77   207   208   ar
    78   207   209   ar
    79   144   141    1
    80   141   142    1
    81   187   188    1
    82   149   152    1
    83   149   148    1
    84   208   210   ar
    85   152   153    1
    86   142   143    2
    87   209   211   ar
    88   197   196    2
    89   193   191    1
    90   155   153    1
    91   210   211   ar
    92   188   191    1
    93   188   189    1
    94   153   154    1
    95   196   195    1
    96   191   192    1
    97   194   189   am
    98   194   195    1
    99   189   190    2
   100    15    14    2
   101    18    17    1
   102    18    12    1
   103    17    16    1
   104   195   198    1
   105   198   199    1
   106    14    13    1
   107     4     3    2
   108    12     3   am
   109    12    13    1
   110   199   200    1
   111   199   201    1
   112    16    13    1
   113     3     2    1
   114    79    80    1
   115    79    76    1
   116    81    80   ar
   117    81    83   ar
   118    25    24   ar
   119    80    82   ar
   120    23    24    1
   121    23    20    1
   122    83    85   ar
   123    24    26   ar
   124    82    84   ar
   125    49    50    1
   126    19    20    1
   127     9     7   ar
   128     9    11   ar
   129    85    84   ar
   130    85    86    1
   131     7     6   ar
   132     2     1    1
   133     2     5    1
   134   106   104   ar
   135   106   105   ar
   136    20    21    1
   137    76    75    1
   138    76    77    1
   139   104   102   ar
   140    11    10   ar
   141     6     5    1
   142     6     8   ar
   143    64    65    1
   144    50    51    1
   145    50    53    1
   146   105   103   ar
   147    72    74   ar
   148    72    70   ar
   149    54    53    1
   150    74    73   ar
   151    77    78    2
   152    77    87   am
   153   167   166    1
   154    10     8   ar
   155    70    69   ar
   156    51    52    2
   157   102   101   ar
   158    65    66    1
   159    65    68    1
   160    21    27   am
   161    21    22    2
   162    53    55    1
   163    66    67    2
   164    27    28    1
   165    73    71   ar
   166   103   101   ar
   167    87    88    1
   168    69    71   ar
   169    69    68    1
   170   101   100    1
   171   166   165   ar
   172   166   164   ar
   173   165   163   ar
   174    95    93   am
   175    92    93    1
   176    92    91    1
   177    88    91    1
   178    88    89    1
   179   164   162   ar
   180    28    31    1
   181    28    29    1
   182    96    97    1
   183    31    32    1
   184    33    32   ar
   185    33    35   ar
   186    93    94    2
   187   100    97    1
   188    29    30    2
   189    97    98    1
   190    89    90    2
   191   163   161   ar
   192    32    34   ar
   193   162   161   ar
   194    41    42    1
   195    35    36   ar
   196    63    61    1
   197   161   160    1
   198    61    60    1
   199    34    36   ar
   200    34    37   ar
   201    98    99    2
   202    36    38   ar
   203    42    45    1
   204    42    43    1
   205    45    46    1
   206   160   157    1
   207    37    39   ar
   208    38    40   ar
   209    60    62    1
   210    60    57    1
   211    56    57    1
   212    43    44    2
   213    47    46    1
   214    47    48    1
   215   156   157    1
   216   157   158    1
   217    57    58    1
   218    39    40   ar
   219   158   159    2
   220    58    59    2
