@<TRIPOS>MOLECULE
tmp/5aluA01.pdb
 164 159 0 0 0
SMALL
GASTEIGER

@<TRIPOS>ATOM
      1  N        -16.2530  -16.2880   18.0470 N.3   335  TRP335     -0.1241
      2  CA       -16.6250  -16.3560   19.4660 C.3   335  TRP335      0.1605
      3  C        -16.4580  -17.7590   20.0210 C.2   335  TRP335      0.2264
      4  O        -16.0870  -17.9020   21.1810 O.2   335  TRP335     -0.2867
      5  CB       -18.0480  -15.8330   19.7420 C.3   335  TRP335      0.0550
      6  CG       -18.0970  -14.5010   20.4440 C.ar  335  TRP335      0.0003
      7  CD1      -18.5890  -13.3270   19.9420 C.ar  335  TRP335      0.0946
      8  CD2      -17.4990  -14.1790   21.7060 C.ar  335  TRP335      0.0152
      9  NE1      -18.4060  -12.3090   20.8530 N.ar  335  TRP335     -0.2442
     10  CE2      -17.7410  -12.8070   21.9480 C.ar  335  TRP335      0.0810
     11  CE3      -16.8020  -14.9270   22.6800 C.ar  335  TRP335      0.0012
     12  CZ2      -17.2820  -12.1580   23.1040 C.ar  335  TRP335      0.0191
     13  CZ3      -16.3770  -14.2870   23.8340 C.ar  335  TRP335      0.0001
     14  CH2      -16.6150  -12.9190   24.0340 C.ar  335  TRP335      0.0015
     15  N        -12.7300  -18.1520   20.7940 N.3   338  MET338     -0.1245
     16  CA       -12.4410  -17.5000   22.0800 C.3   338  MET338      0.1570
     17  C        -12.8360  -18.4620   23.2300 C.2   338  MET338      0.2261
     18  O        -12.0480  -18.6920   24.1490 O.2   338  MET338     -0.2867
     19  CB       -13.2280  -16.1620   22.1940 C.3   338  MET338      0.0387
     20  CG       -12.8760  -15.3240   23.4410 C.3   338  MET338      0.0595
     21  SD       -11.2640  -14.5060   23.2360 S.3   338  MET338     -0.1393
     22  CE       -11.3110  -13.3350   24.5690 C.3   338  MET338      0.0692
     23  N         -7.1940  -15.7060   17.7610 N.3   360  PRO360     -0.2102
     24  CA        -5.9660  -16.0690   18.4770 C.3   360  PRO360      0.1504
     25  C         -6.2720  -16.2590   19.9730 C.2   360  PRO360      0.2576
     26  O         -7.3930  -15.9430   20.4210 O.2   360  PRO360     -0.2718
     27  CB        -5.0690  -14.8430   18.2490 C.3   360  PRO360      0.0282
     28  CG        -6.0180  -13.6970   18.1550 C.3   360  PRO360      0.0208
     29  CD        -7.2480  -14.2550   17.4640 C.3   360  PRO360      0.0893
     30  N         -5.2870  -16.7490   20.7600 N.am  361  PHE361     -0.1963
     31  CA        -5.5040  -16.7940   22.1870 C.3   361  PHE361      0.1771
     32  C         -5.2660  -15.3490   22.6650 C.2   361  PHE361      0.2619
     33  O         -4.1920  -14.8050   22.4400 O.2   361  PHE361     -0.2715
     34  CB        -4.6060  -17.8120   22.9160 C.3   361  PHE361      0.0574
     35  CG        -4.6320  -17.5840   24.4090 C.ar  361  PHE361     -0.0200
     36  CD1       -5.8390  -17.6050   25.1160 C.ar  361  PHE361     -0.0042
     37  CD2       -3.4730  -17.2350   25.0940 C.ar  361  PHE361     -0.0042
     38  CE1       -5.8700  -17.3270   26.4880 C.ar  361  PHE361     -0.0003
     39  CE2       -3.5050  -16.9790   26.4690 C.ar  361  PHE361     -0.0003
     40  CZ        -4.6980  -17.0110   27.1500 C.ar  361  PHE361     -0.0000
     41  N         -6.3190  -14.7230   23.2200 N.am  362  ILE362     -0.1964
     42  CA        -6.3290  -13.3470   23.6970 C.3   362  ILE362      0.1712
     43  C         -6.2880  -13.3180   25.2200 C.2   362  ILE362      0.2458
     44  O         -7.3420  -13.4600   25.8690 O.2   362  ILE362     -0.2730
     45  CB        -7.5260  -12.5250   23.1510 C.3   362  ILE362      0.0289
     46  CG1       -7.6100  -12.5760   21.6080 C.3   362  ILE362      0.0022
     47  CG2       -7.4480  -11.0650   23.6700 C.3   362  ILE362      0.0023
     48  CD1       -8.9460  -12.0500   21.0470 C.3   362  ILE362      0.0001
     49  N         -5.0860  -13.1160   25.8010 N.am  363  PRO363     -0.2727
     50  CA        -4.9960  -13.0600   27.2680 C.3   363  PRO363      0.1402
     51  C         -5.4610  -11.7160   27.7640 C.2   363  PRO363      0.2269
     52  O         -5.4170  -10.7080   27.0310 O.2   363  PRO363     -0.2865
     53  CB        -3.5090  -13.2640   27.5730 C.3   363  PRO363      0.0296
     54  CG        -2.8070  -13.1990   26.2710 C.3   363  PRO363      0.0237
     55  CD        -3.7680  -12.9350   25.1670 C.3   363  PRO363      0.0939
     56  N         -5.3860   -8.2460   29.7200 N.3   365  ASN365     -0.1240
     57  CA        -4.3800   -7.2510   30.0430 C.3   365  ASN365      0.1653
     58  C         -4.7520   -6.7780   31.4640 C.2   365  ASN365      0.2266
     59  O         -5.7540   -6.0730   31.6340 O.2   365  ASN365     -0.2867
     60  CB        -4.3540   -6.0930   29.0290 C.3   365  ASN365      0.1155
     61  CG        -3.2750   -5.0750   29.3540 C.2   365  ASN365      0.2627
     62  OD1       -2.6860   -5.1000   30.4280 O.2   365  ASN365     -0.2716
     63  ND2       -3.0040   -4.1440   28.4440 N.am  365  ASN365     -0.0877
     64  N         -5.1390   -2.7360   32.0770 N.3   368  MET368     -0.1245
     65  CA        -6.1150   -1.9330   31.3380 C.3   368  MET368      0.1570
     66  C         -7.4970   -2.5580   31.4050 C.2   368  MET368      0.2261
     67  O         -7.6200   -3.7660   31.2400 O.2   368  MET368     -0.2867
     68  CB        -5.7310   -1.8900   29.8470 C.3   368  MET368      0.0387
     69  CG        -4.7120   -0.8660   29.4840 C.3   368  MET368      0.0595
     70  SD        -4.7630   -0.6770   27.6920 S.3   368  MET368     -0.1393
     71  CE        -3.0430   -0.4270   27.3630 C.3   368  MET368      0.0692
     72  N        -11.1160   -3.5490   29.6700 N.3   370  PRO370     -0.2116
     73  CA       -11.4040   -3.8650   28.2530 C.3   370  PRO370      0.1372
     74  C        -11.7880   -2.6390   27.3950 C.2   370  PRO370      0.2244
     75  O        -11.4420   -2.6180   26.2110 O.2   370  PRO370     -0.2868
     76  CB       -12.5490   -4.8840   28.3500 C.3   370  PRO370      0.0268
     77  CG       -12.4150   -5.4750   29.6910 C.3   370  PRO370      0.0207
     78  CD       -11.9620   -4.3530   30.5750 C.3   370  PRO370      0.0892
     79  N         -8.6180   -1.0080   26.4900 N.3   373  SER373     -0.1202
     80  CA        -8.0050   -1.8330   25.4450 C.3   373  SER373      0.2020
     81  C         -8.6100   -1.5430   24.0660 C.2   373  SER373      0.2618
     82  O         -7.8510   -1.4140   23.1090 O.2   373  SER373     -0.2717
     83  CB        -8.0550   -3.3150   25.7950 C.3   373  SER373      0.2103
     84  OG        -7.2480   -3.5410   26.9360 O.3   373  SER373     -0.2182
     85  N         -9.9490   -1.3620   23.9680 N.am  374  ILE374     -0.1979
     86  CA       -10.6050   -1.0240   22.6880 C.3   374  ILE374      0.1595
     87  C        -10.1000    0.3610   22.2150 C.2   374  ILE374      0.2287
     88  O         -9.8130    0.5190   21.0270 O.2   374  ILE374     -0.2864
     89  CB       -12.1600   -1.1110   22.7580 C.3   374  ILE374      0.0276
     90  CG1      -12.6120   -2.5840   22.8340 C.3   374  ILE374      0.0022
     91  CG2      -12.8390   -0.3840   21.5700 C.3   374  ILE374      0.0022
     92  CD1      -14.0570   -2.8230   23.2790 C.3   374  ILE374      0.0001
     93  N         -6.9120   -0.0160   20.5430 N.3   377  ASN377     -0.1240
     94  CA        -6.9730   -0.9410   19.3970 C.3   377  ASN377      0.1653
     95  C         -8.2440   -0.6570   18.5690 C.2   377  ASN377      0.2266
     96  O         -9.2350   -1.3910   18.6980 O.2   377  ASN377     -0.2867
     97  CB        -6.9270   -2.3950   19.8850 C.3   377  ASN377      0.1155
     98  CG        -5.7200   -2.7350   20.7180 C.2   377  ASN377      0.2627
     99  OD1       -5.6990   -2.5410   21.9410 O.2   377  ASN377     -0.2716
    100  ND2       -4.6800   -3.2200   20.0700 N.am  377  ASN377     -0.0877
    101  N        -11.0980   -2.8900   16.7400 N.3   380  PHE380     -0.1241
    102  CA       -12.1940   -3.4340   17.5440 C.3   380  PHE380      0.1605
    103  C        -13.2170   -2.3970   17.9980 C.2   380  PHE380      0.2264
    104  O        -14.0990   -2.7240   18.8020 O.2   380  PHE380     -0.2867
    105  CB       -11.6380   -4.2520   18.7270 C.3   380  PHE380      0.0534
    106  CG       -10.7640   -5.3930   18.2600 C.ar  380  PHE380     -0.0203
    107  CD1      -11.2820   -6.4040   17.4550 C.ar  380  PHE380     -0.0042
    108  CD2       -9.4030   -5.4110   18.5510 C.ar  380  PHE380     -0.0042
    109  CE1      -10.4660   -7.4440   17.0000 C.ar  380  PHE380     -0.0003
    110  CE2       -8.5870   -6.4440   18.0820 C.ar  380  PHE380     -0.0003
    111  CZ        -9.1250   -7.4420   17.2970 C.ar  380  PHE380     -0.0000
    112  N        -17.1050   -3.0210   18.2240 N.3   383  GLN383     -0.1245
    113  CA       -17.6590   -3.7620   19.3630 C.3   383  GLN383      0.1566
    114  C        -18.3900   -2.8100   20.3110 C.2   383  GLN383      0.2260
    115  O        -19.2880   -3.2570   21.0110 O.2   383  GLN383     -0.2867
    116  CB       -16.5740   -4.5570   20.1190 C.3   383  GLN383      0.0367
    117  CG       -15.9430   -5.6440   19.2620 C.3   383  GLN383      0.0905
    118  CD       -14.8260   -6.3880   19.9520 C.2   383  GLN383      0.2608
    119  OE1      -14.6540   -6.3410   21.1750 O.2   383  GLN383     -0.2717
    120  NE2      -14.0200   -7.0630   19.1700 N.am  383  GLN383     -0.0878
    121  N        -17.6100   -7.8610   28.9280 N.3   468  MET468     -0.1245
    122  CA       -16.1770   -7.5520   28.9370 C.3   468  MET468      0.1570
    123  C        -15.5560   -7.4700   30.3150 C.2   468  MET468      0.2261
    124  O        -14.5140   -8.0630   30.5150 O.2   468  MET468     -0.2867
    125  CB       -15.8530   -6.3070   28.1220 C.3   468  MET468      0.0387
    126  CG       -16.2150   -6.4640   26.6670 C.3   468  MET468      0.0595
    127  SD       -15.5710   -5.1290   25.6510 S.3   468  MET468     -0.1393
    128  CE       -16.5540   -3.7350   26.2690 C.3   468  MET468      0.0692
    129  N         -1.3840  -11.7790   11.9610 N.3   501  GLN501     -0.1231
    130  CA        -0.3990  -11.1450   12.8410 C.3   501  GLN501      0.1698
    131  C         -0.8830  -11.0260   14.3070 C.2   501  GLN501      0.2592
    132  O         -0.0560  -10.9560   15.2230 O.2   501  GLN501     -0.2718
    133  CB        -0.0200   -9.7540   12.2930 C.3   501  GLN501      0.0381
    134  CG         1.4270   -9.3600   12.5570 C.3   501  GLN501      0.0905
    135  CD         1.7670   -7.9870   12.0120 C.2   501  GLN501      0.2608
    136  OE1        1.5760   -7.6840   10.8230 O.2   501  GLN501     -0.2717
    137  NE2        2.3220   -7.1330   12.8660 N.am  501  GLN501     -0.0878
    138  N         -2.2170  -11.0200   14.5320 N.am  502  MET502     -0.1979
    139  CA        -2.8100  -10.9510   15.8760 C.3   502  MET502      0.1605
    140  C         -2.4680  -12.2210   16.6970 C.2   502  MET502      0.2287
    141  O         -2.4750  -12.1770   17.9300 O.2   502  MET502     -0.2864
    142  CB        -4.3370  -10.7880   15.7590 C.3   502  MET502      0.0413
    143  CG        -4.9860  -10.1270   16.9560 C.3   502  MET502      0.0598
    144  SD        -6.7960  -10.2850   16.8860 S.3   502  MET502     -0.1393
    145  CE        -7.2240   -9.8960   18.6230 C.3   502  MET502      0.0692
    146  N          0.5520  -13.7660   16.4760 N.3   504  GLN504     -0.1231
    147  CA         2.0310  -13.8260   16.5590 C.3   504  GLN504      0.1698
    148  C          2.6920  -14.0720   17.9260 C.2   504  GLN504      0.2592
    149  O          3.8420  -14.5160   17.9490 O.2   504  GLN504     -0.2718
    150  CB         2.7160  -12.6600   15.8140 C.3   504  GLN504      0.0381
    151  CG         2.7510  -11.3460   16.6140 C.3   504  GLN504      0.0905
    152  CD         3.2210  -10.1530   15.8200 C.2   504  GLN504      0.2608
    153  OE1        4.0830  -10.2480   14.9410 O.2   504  GLN504     -0.2717
    154  NE2        2.7020   -8.9850   16.1590 N.am  504  GLN504     -0.0878
    155  N          2.0280  -13.7320   19.0390 N.am  505  HIS505     -0.1976
    156  CA         2.6300  -13.9380   20.3690 C.3   505  HIS505      0.1656
    157  C          2.1030  -15.1980   21.0830 C.2   505  HIS505      0.2291
    158  O          2.4510  -15.4380   22.2350 O.2   505  HIS505     -0.2864
    159  CB         2.4250  -12.6920   21.2570 C.3   505  HIS505      0.0771
    160  CG         2.8900  -11.4090   20.6320 C.ar  505  HIS505      0.0820
    161  ND1        4.2250  -11.2000   20.3150 N.ar  505  HIS505     -0.2267
    162  CD2        2.1840  -10.3040   20.3000 C.ar  505  HIS505      0.1154
    163  CE1        4.2840   -9.9900   19.7820 C.ar  505  HIS505      0.1986
    164  NE2        3.0820   -9.4100   19.7530 N.ar  505  HIS505     -0.2212
@<TRIPOS>BOND
     1   136   135    2
     2   129   130    1
     3   135   134    1
     4   135   137   am
     5   133   134    1
     6   133   130    1
     7   130   131    1
     8   131   138   am
     9   131   132    2
    10   138   139    1
    11   153   152    2
    12   142   139    1
    13   142   143    1
    14   150   147    1
    15   150   151    1
    16   152   154   am
    17   152   151    1
    18   139   140    1
    19   146   147    1
    20   147   148    1
    21   140   141    2
    22   101   102    1
    23   144   143    1
    24   144   145    1
    25   109   111   ar
    26   109   107   ar
    27   111   110   ar
    28   107   106   ar
    29    29    23    1
    30    29    28    1
    31   102   103    1
    32   102   105    1
    33    23    24    1
    34   148   149    2
    35   148   155   am
    36   103   104    2
    37     1     2    1
    38   110   108   ar
    39    28    27    1
    40   112   113    1
    41    27    24    1
    42   106   108   ar
    43   106   105    1
    44    24    25    1
    45    95    96    2
    46    95    94    1
    47   155   156    1
    48   120   118   am
    49   117   118    1
    50   117   116    1
    51   113   116    1
    52   113   114    1
    53    94    97    1
    54    94    93    1
    55     2     5    1
    56     2     3    1
    57     5     6    1
    58   164   163   ar
    59   164   162   ar
    60   163   161   ar
    61    97    98    1
    62     7     6   ar
    63     7     9   ar
    64   118   119    2
    65    25    26    2
    66    25    30   am
    67     3     4    2
    68   100    98   am
    69   162   160   ar
    70   114   115    2
    71   161   160   ar
    72   156   157    1
    73   156   159    1
    74     6     8   ar
    75   160   159    1
    76    98    99    2
    77    30    31    1
    78    15    16    1
    79     9    10   ar
    80    88    87    2
    81    48    46    1
    82   157   158    2
    83    91    89    1
    84    46    45    1
    85     8    10   ar
    86     8    11   ar
    87    10    12   ar
    88    16    19    1
    89    16    17    1
    90    31    32    1
    91    31    34    1
    92    19    20    1
    93    87    86    1
    94    33    32    2
    95    32    41   am
    96    11    13   ar
    97    86    89    1
    98    86    85    1
    99    89    90    1
   100    90    92    1
   101    34    35    1
   102    12    14   ar
   103    82    81    2
   104    45    47    1
   105    45    42    1
   106    41    42    1
   107    17    18    2
   108    21    20    1
   109    21    22    1
   110    42    43    1
   111    13    14   ar
   112    85    81   am
   113    81    80    1
   114    35    37   ar
   115    35    36   ar
   116    37    39   ar
   117    36    38   ar
   118    55    49    1
   119    55    54    1
   120    43    49   am
   121    43    44    2
   122    80    83    1
   123    80    79    1
   124   127   128    1
   125   127   126    1
   126    83    84    1
   127    49    50    1
   128    75    74    2
   129    54    53    1
   130    39    40   ar
   131    38    40   ar
   132   126   125    1
   133    52    51    2
   134    50    53    1
   135    50    51    1
   136    71    70    1
   137    74    73    1
   138    70    69    1
   139   125   122    1
   140    73    76    1
   141    73    72    1
   142    76    77    1
   143    63    61   am
   144   121   122    1
   145   122   123    1
   146    60    61    1
   147    60    57    1
   148    61    62    2
   149    69    68    1
   150    72    78    1
   151    77    78    1
   152    56    57    1
   153    68    65    1
   154    57    58    1
   155   123   124    2
   156    67    66    2
   157    65    66    1
   158    65    64    1
   159    58    59    2
