@<TRIPOS>MOLECULE
tmp/5aluA00.pdb
 195 187 0 0 0
SMALL
GASTEIGER

@<TRIPOS>ATOM
      1  N        -22.9850  -50.1040  -10.8540 N.3     8  ASP8       -0.1239
      2  CA       -22.6620  -51.3650  -10.1980 C.3     8  ASP8        0.1674
      3  C        -21.6370  -50.9700   -9.1030 C.2     8  ASP8        0.2266
      4  O        -21.0920  -49.8580   -9.1450 O.2     8  ASP8       -0.2867
      5  CB       -22.0160  -52.3280  -11.2170 C.3     8  ASP8        0.1410
      6  CG       -21.7850  -53.7430  -10.7130 C.2     8  ASP8        0.3668
      7  OD1      -22.4670  -54.1480   -9.7310 O.co2   8  ASP8       -0.2456
      8  OD2      -20.9280  -54.4510  -11.3030 O.co2   8  ASP8       -0.2456
      9  N        -18.9120  -53.4150   -7.5520 N.3    10  ASP10      -0.1239
     10  CA       -17.6640  -54.0790   -7.8930 C.3    10  ASP10       0.1674
     11  C        -17.2460  -53.7560   -9.3340 C.2    10  ASP10       0.2266
     12  O        -18.0180  -53.9710  -10.2800 O.2    10  ASP10      -0.2867
     13  CB       -17.8060  -55.5840   -7.6910 C.3    10  ASP10       0.1410
     14  CG       -16.4930  -56.3100   -7.8030 C.2    10  ASP10       0.3668
     15  OD1      -15.7460  -56.3380   -6.8010 O.co2  10  ASP10      -0.2456
     16  OD2      -16.2110  -56.8470   -8.8890 O.co2  10  ASP10      -0.2456
     17  N        -11.8290  -54.5940   -8.7430 N.3    17  ALA17      -0.1231
     18  CA       -12.8940  -55.6040   -8.6910 C.3    17  ALA17       0.1694
     19  C        -12.3170  -56.8140   -7.9600 C.2    17  ALA17       0.2592
     20  O        -11.1160  -57.0690   -8.0780 O.2    17  ALA17      -0.2718
     21  CB       -13.2840  -56.0080  -10.1090 C.3    17  ALA17       0.0304
     22  N        -13.1500  -57.5540   -7.2060 N.am   18  VAL18      -0.1966
     23  CA       -12.7350  -58.7740   -6.4830 C.3    18  VAL18       0.1727
     24  C        -11.9750  -59.7480   -7.3960 C.2    18  VAL18       0.2616
     25  O        -10.8970  -60.2100   -7.0250 O.2    18  VAL18      -0.2715
     26  CB       -13.9520  -59.4420   -5.7690 C.3    18  VAL18       0.0290
     27  CG1      -13.6600  -60.8810   -5.3270 C.3    18  VAL18       0.0023
     28  CG2      -14.4150  -58.5970   -4.5900 C.3    18  VAL18       0.0023
     29  N        -12.5300  -60.0470   -8.5920 N.am   19  PHE19      -0.1960
     30  CA       -11.8730  -60.9540   -9.5360 C.3    19  PHE19       0.1771
     31  C        -10.6020  -60.4210  -10.2200 C.2    19  PHE19       0.2620
     32  O         -9.8040  -61.2110  -10.7150 O.2    19  PHE19      -0.2715
     33  CB       -12.8650  -61.6940  -10.4560 C.3    19  PHE19       0.0574
     34  CG       -13.3320  -62.9470   -9.7510 C.ar   19  PHE19      -0.0200
     35  CD1      -14.3900  -62.9030   -8.8460 C.ar   19  PHE19      -0.0042
     36  CD2      -12.6540  -64.1470   -9.9160 C.ar   19  PHE19      -0.0042
     37  CE1      -14.7760  -64.0450   -8.1380 C.ar   19  PHE19      -0.0003
     38  CE2      -13.0360  -65.2880   -9.2030 C.ar   19  PHE19      -0.0003
     39  CZ       -14.0950  -65.2300   -8.3220 C.ar   19  PHE19      -0.0000
     40  N        -10.3840  -59.1080  -10.1430 N.am   20  GLY20      -0.1954
     41  CA        -9.1460  -58.4790  -10.5880 C.3    20  GLY20       0.1869
     42  C         -8.0520  -58.8730   -9.6130 C.2    20  GLY20       0.2309
     43  O         -7.0060  -59.3990  -10.0150 O.2    20  GLY20      -0.2863
     44  N        -12.3100  -68.4460  -10.6920 N.3    37  ASN37      -0.1240
     45  CA       -13.5500  -68.0250  -11.3470 C.3    37  ASN37       0.1653
     46  C        -14.4420  -69.2460  -11.5910 C.2    37  ASN37       0.2266
     47  O        -15.6510  -69.1930  -11.3580 O.2    37  ASN37      -0.2867
     48  CB       -13.2770  -67.2950  -12.6670 C.3    37  ASN37       0.1155
     49  CG       -14.5520  -66.8530  -13.3610 C.2    37  ASN37       0.2627
     50  OD1      -15.2440  -65.9240  -12.9230 O.2    37  ASN37      -0.2716
     51  ND2      -14.9270  -67.5580  -14.4210 N.am   37  ASN37      -0.0877
     52  N        -15.9030  -70.4300   -8.3400 N.3    40  PHE40      -0.1227
     53  CA       -16.8460  -69.3790   -7.9310 C.3    40  PHE40       0.1736
     54  C        -18.1660  -69.5350   -8.6830 C.2    40  PHE40       0.2595
     55  O        -19.2250  -69.4810   -8.0710 O.2    40  PHE40      -0.2718
     56  CB       -16.2580  -67.9890   -8.2150 C.3    40  PHE40       0.0547
     57  CG       -17.0370  -66.8260   -7.6530 C.ar   40  PHE40      -0.0202
     58  CD1      -16.9390  -66.4880   -6.3050 C.ar   40  PHE40      -0.0042
     59  CD2      -17.8490  -66.0520   -8.4730 C.ar   40  PHE40      -0.0042
     60  CE1      -17.6610  -65.4140   -5.7820 C.ar   40  PHE40      -0.0003
     61  CE2      -18.5580  -64.9620   -7.9510 C.ar   40  PHE40      -0.0003
     62  CZ       -18.4360  -64.6330   -6.6130 C.ar   40  PHE40      -0.0000
     63  N        -18.1010  -69.7640  -10.0040 N.am   41  GLN41      -0.1979
     64  CA       -19.2910  -69.9050  -10.8510 C.3    41  GLN41       0.1601
     65  C        -19.9080  -71.3020  -10.8830 C.2    41  GLN41       0.2287
     66  O        -20.9970  -71.4710  -11.4430 O.2    41  GLN41      -0.2864
     67  CB       -18.9570  -69.4550  -12.2720 C.3    41  GLN41       0.0394
     68  CG       -18.7820  -67.9650  -12.3950 C.3    41  GLN41       0.0908
     69  CD       -18.6610  -67.5330  -13.8360 C.2    41  GLN41       0.2608
     70  OE1      -18.3140  -68.3170  -14.7300 O.2    41  GLN41      -0.2717
     71  NE2      -18.9400  -66.2660  -14.0910 N.am   41  GLN41      -0.0878
     72  N        -23.6380  -72.5720  -11.7970 N.3    44  GLY44      -0.1210
     73  CA       -24.3130  -71.3830  -12.3320 C.3    44  GLY44       0.1940
     74  C        -25.5120  -70.9410  -11.5050 C.2    44  GLY44       0.2453
     75  O        -25.3790  -70.7690  -10.2870 O.2    44  GLY44      -0.2732
     76  N        -26.7220  -70.8530  -12.1310 N.am   45  PRO45      -0.2728
     77  CA       -27.9390  -70.4790  -11.3760 C.3    45  PRO45       0.1401
     78  C        -28.3420  -71.4450  -10.2510 C.2    45  PRO45       0.2269
     79  O        -29.0920  -71.0560   -9.3710 O.2    45  PRO45      -0.2865
     80  CB       -29.0240  -70.4190  -12.4640 C.3    45  PRO45       0.0296
     81  CG       -28.2840  -70.2560  -13.7570 C.3    45  PRO45       0.0237
     82  CD       -27.0320  -71.0510  -13.5660 C.3    45  PRO45       0.0939
     83  N        -22.7830  -70.0110   -5.1020 N.3    49  THR49      -0.1203
     84  CA       -22.6310  -68.5560   -5.2640 C.3    49  THR49       0.1994
     85  C        -23.9470  -67.8600   -5.6040 C.2    49  THR49       0.2618
     86  O        -24.1830  -66.7570   -5.1090 O.2    49  THR49      -0.2717
     87  CB       -21.4480  -68.2100   -6.1770 C.3    49  THR49       0.1784
     88  OG1      -20.2760  -68.8650   -5.6890 O.3    49  THR49      -0.2211
     89  CG2      -21.1870  -66.7140   -6.2600 C.3    49  THR49       0.0376
     90  N        -24.8250  -68.4980   -6.3930 N.am   50  THR50      -0.1952
     91  CA       -26.1470  -67.8870   -6.6680 C.3    50  THR50       0.1897
     92  C        -26.9670  -67.8300   -5.3600 C.2    50  THR50       0.2313
     93  O        -27.6300  -66.8210   -5.1080 O.2    50  THR50      -0.2863
     94  CB       -26.8890  -68.6190   -7.8110 C.3    50  THR50       0.1794
     95  OG1      -26.1060  -68.5030   -9.0020 O.3    50  THR50      -0.2208
     96  CG2      -28.2950  -68.0460   -8.0810 C.3    50  THR50       0.0378
     97  N        -25.5050  -64.9190   -3.3840 N.3    53  MET53      -0.1245
     98  CA       -25.9160  -63.6440   -3.9670 C.3    53  MET53       0.1570
     99  C        -27.4160  -63.3480   -3.7970 C.2    53  MET53       0.2261
    100  O        -27.7800  -62.1810   -3.7400 O.2    53  MET53      -0.2867
    101  CB       -25.4710  -63.5090   -5.4390 C.3    53  MET53       0.0387
    102  CG       -23.9510  -63.5010   -5.6640 C.3    53  MET53       0.0595
    103  SD       -23.1380  -62.0690   -4.9570 S.3    53  MET53      -0.1393
    104  CE       -21.5320  -62.1340   -5.8750 C.3    53  MET53       0.0692
    105  N        -10.4080  -64.2470   -0.0350 N.3    91  PHE91      -0.1241
    106  CA       -11.5300  -63.3190   -0.1210 C.3    91  PHE91       0.1605
    107  C        -11.4110  -62.1290    0.8090 C.2    91  PHE91       0.2264
    108  O        -11.7450  -61.0180    0.3820 O.2    91  PHE91      -0.2867
    109  CB       -12.8940  -64.0420   -0.0300 C.3    91  PHE91       0.0534
    110  CG       -13.2910  -64.6190   -1.3670 C.ar   91  PHE91      -0.0203
    111  CD1      -12.7320  -65.8060   -1.8230 C.ar   91  PHE91      -0.0042
    112  CD2      -14.1590  -63.9300   -2.2100 C.ar   91  PHE91      -0.0042
    113  CE1      -13.0520  -66.3080   -3.0870 C.ar   91  PHE91      -0.0003
    114  CE2      -14.4670  -64.4270   -3.4800 C.ar   91  PHE91      -0.0003
    115  CZ       -13.9340  -65.6230   -3.8970 C.ar   91  PHE91      -0.0000
    116  N        -10.5430  -53.4440   -2.1020 N.3    98  ARG98      -0.1245
    117  CA       -11.5780  -52.6240   -2.7270 C.3    98  ARG98       0.1563
    118  C        -11.7280  -51.2670   -2.0340 C.2    98  ARG98       0.2260
    119  O        -11.8850  -51.1940   -0.8120 O.2    98  ARG98      -0.2867
    120  CB       -12.9000  -53.3930   -2.7460 C.3    98  ARG98       0.0307
    121  CG       -13.6260  -53.4070   -4.0670 C.3    98  ARG98       0.0489
    122  CD       -14.5250  -54.6280   -4.1870 C.3    98  ARG98       0.2205
    123  NE       -15.4490  -54.7480   -3.0530 N.pl3  98  ARG98      -0.0865
    124  CZ       -16.5640  -55.4660   -3.0570 C.cat  98  ARG98       0.5346
    125  NH1      -16.9130  -56.1610   -4.1350 N.pl3  98  ARG98       0.1354
    126  NH2      -17.3420  -55.4970   -1.9810 N.pl3  98  ARG98       0.1354
    127  N        -24.5610  -57.1190   -7.0770 N.3   123  ASN123     -0.1240
    128  CA       -24.5520  -58.5290   -6.7110 C.3   123  ASN123      0.1653
    129  C        -23.6660  -58.5770   -5.4640 C.2   123  ASN123      0.2266
    130  O        -22.4510  -58.3700   -5.5480 O.2   123  ASN123     -0.2867
    131  CB       -24.0090  -59.4240   -7.8340 C.3   123  ASN123      0.1155
    132  CG       -25.0580  -59.8050   -8.8500 C.2   123  ASN123      0.2627
    133  OD1      -26.2280  -59.4460   -8.7180 O.2   123  ASN123     -0.2716
    134  ND2      -24.6540  -60.5130   -9.9050 N.am  123  ASN123     -0.0877
    135  N        -23.4980  -59.9770   -0.9380 N.3   125  TRP125     -0.1241
    136  CA       -23.7670  -61.0510    0.0130 C.3   125  TRP125      0.1605
    137  C        -24.0710  -60.5160    1.4140 C.2   125  TRP125      0.2264
    138  O        -23.8130  -59.3410    1.7130 O.2   125  TRP125     -0.2867
    139  CB       -22.5220  -61.9570    0.0850 C.3   125  TRP125      0.0550
    140  CG       -21.2630  -61.1900    0.3460 C.ar  125  TRP125      0.0003
    141  CD1      -20.8010  -60.7570    1.5550 C.ar  125  TRP125      0.0946
    142  CD2      -20.3410  -60.6950   -0.6380 C.ar  125  TRP125      0.0152
    143  NE1      -19.6610  -60.0080    1.3870 N.ar  125  TRP125     -0.2442
    144  CE2      -19.3330  -59.9830    0.0540 C.ar  125  TRP125      0.0810
    145  CE3      -20.2710  -60.7820   -2.0380 C.ar  125  TRP125      0.0012
    146  CZ2      -18.2490  -59.3800   -0.6050 C.ar  125  TRP125      0.0191
    147  CZ3      -19.2000  -60.1820   -2.6930 C.ar  125  TRP125      0.0001
    148  CH2      -18.2070  -59.4870   -1.9800 C.ar  125  TRP125      0.0015
    149  N        -30.6470  -61.8190   -8.7300 N.3   158  VAL158     -0.1231
    150  CA       -29.2560  -61.5000   -9.1000 C.3   158  VAL158      0.1692
    151  C        -29.1430  -61.0040  -10.5350 C.2   158  VAL158      0.2592
    152  O        -29.9570  -61.3790  -11.3760 O.2   158  VAL158     -0.2718
    153  CB       -28.2870  -62.7050   -8.8680 C.3   158  VAL158      0.0266
    154  CG1      -28.1700  -63.0280   -7.3880 C.3   158  VAL158      0.0020
    155  CG2      -28.7170  -63.9610   -9.6700 C.3   158  VAL158      0.0020
    156  N        -28.0860  -60.2190  -10.8360 N.am  159  LYS159     -0.1966
    157  CA       -27.8080  -59.8700  -12.2310 C.3   159  LYS159      0.1713
    158  C        -27.0510  -61.0910  -12.7530 C.2   159  LYS159      0.2458
    159  O        -26.2900  -61.6870  -11.9830 O.2   159  LYS159     -0.2730
    160  CB       -26.9200  -58.6220  -12.3400 C.3   159  LYS159      0.0311
    161  CG       -27.6240  -57.3240  -11.9430 C.3   159  LYS159      0.0038
    162  CD       -26.7020  -56.0950  -12.1670 C.3   159  LYS159      0.0206
    163  CE       -25.4170  -56.2080  -11.3830 C.3   159  LYS159      0.1093
    164  NZ       -24.6040  -54.9710  -11.4920 N.3   159  LYS159     -0.1314
    165  N        -27.3150  -61.6010  -13.9660 N.am  160  PRO160     -0.2727
    166  CA       -28.1110  -61.0250  -15.0640 C.3   160  PRO160      0.1402
    167  C        -29.5590  -61.5030  -15.2200 C.2   160  PRO160      0.2269
    168  O        -30.0460  -61.4640  -16.3400 O.2   160  PRO160     -0.2865
    169  CB       -27.2880  -61.4320  -16.2940 C.3   160  PRO160      0.0296
    170  CG       -26.8010  -62.8100  -15.9350 C.3   160  PRO160      0.0237
    171  CD       -26.5320  -62.7640  -14.4380 C.3   160  PRO160      0.0939
    172  N        -19.2850  -53.2890  -15.3830 N.3   184  ASP184     -0.1225
    173  CA       -18.0270  -53.7990  -15.9540 C.3   184  ASP184      0.1805
    174  C        -18.2260  -55.2210  -16.5180 C.2   184  ASP184      0.2597
    175  O        -17.3060  -55.7740  -17.1280 O.2   184  ASP184     -0.2718
    176  CB       -16.8780  -53.7570  -14.9150 C.3   184  ASP184      0.1424
    177  CG       -17.1060  -54.6190  -13.6880 C.2   184  ASP184      0.3668
    178  OD1      -18.2580  -54.6920  -13.2230 O.co2 184  ASP184     -0.2456
    179  OD2      -16.1270  -55.2400  -13.2010 O.co2 184  ASP184     -0.2456
    180  N        -19.4300  -55.8100  -16.3210 N.am  185  ILE185     -0.1980
    181  CA       -19.7410  -57.1680  -16.7940 C.3   185  ILE185      0.1595
    182  C        -20.6970  -57.0680  -17.9800 C.2   185  ILE185      0.2287
    183  O        -21.8340  -56.6190  -17.8310 O.2   185  ILE185     -0.2864
    184  CB       -20.2130  -58.1240  -15.6420 C.3   185  ILE185      0.0276
    185  CG1      -19.1040  -58.3020  -14.5740 C.3   185  ILE185      0.0022
    186  CG2      -20.6580  -59.5020  -16.1780 C.3   185  ILE185      0.0022
    187  CD1      -19.5050  -57.9380  -13.2560 C.3   185  ILE185      0.0001
    188  N        -24.1360  -58.5710  -17.8280 N.3   188  ASN188     -0.1240
    189  CA       -25.0650  -57.8280  -16.9530 C.3   188  ASN188      0.1653
    190  C        -25.6980  -56.6070  -17.6330 C.2   188  ASN188      0.2266
    191  O        -26.7250  -56.1030  -17.1710 O.2   188  ASN188     -0.2867
    192  CB       -24.3720  -57.4510  -15.6510 C.3   188  ASN188      0.1155
    193  CG       -24.0850  -58.6060  -14.7180 C.2   188  ASN188      0.2627
    194  OD1      -23.3750  -58.4460  -13.7340 O.2   188  ASN188     -0.2716
    195  ND2      -24.5960  -59.8030  -14.9960 N.am  188  ASN188     -0.0877
@<TRIPOS>BOND
     1   182   183    2
     2   182   181    1
     3   188   189    1
     4   190   191    2
     5   190   189    1
     6   175   174    2
     7   189   192    1
     8   181   180    1
     9   181   184    1
    10   174   180   am
    11   174   173    1
    12   168   167    2
    13   169   170    1
    14   169   166    1
    15   186   184    1
    16   173   172    1
    17   173   176    1
    18   170   171    1
    19   192   193    1
    20   184   185    1
    21   167   166    1
    22   166   165    1
    23   195   193   am
    24   176   177    1
    25    70    69    2
    26   193   194    2
    27   185   187    1
    28   171   165    1
    29    51    49   am
    30    71    69   am
    31   165   158   am
    32    69    68    1
    33    81    82    1
    34    81    80    1
    35   177   178   ar
    36   177   179   ar
    37    82    76    1
    38    49    50    2
    39    49    48    1
    40   158   157    1
    41   158   159    2
    42    48    45    1
    43    80    77    1
    44    68    67    1
    45   160   157    1
    46   160   161    1
    47    73    72    1
    48    73    74    1
    49    67    64    1
    50   157   156    1
    51   162   161    1
    52   162   163    1
    53    76    74   am
    54    76    77    1
    55    46    47    2
    56    46    45    1
    57    74    75    2
    58   164   163    1
    59    66    65    2
    60    77    78    1
    61   152   151    2
    62    45    44    1
    63     8     6   ar
    64     5     6    1
    65     5     2    1
    66    65    64    1
    67     1     2    1
    68    64    63    1
    69   156   151   am
    70    32    31    2
    71     6     7   ar
    72    41    40    1
    73    41    42    1
    74   151   150    1
    75    33    34    1
    76    33    30    1
    77    12    11    2
    78    78    79    2
    79    31    40   am
    80    31    30    1
    81     2     3    1
    82    21    18    1
    83    43    42    2
    84    63    54   am
    85    36    34   ar
    86    36    38   ar
    87   134   132   am
    88    34    35   ar
    89   155   153    1
    90    30    29    1
    91    11    10    1
    92    38    39   ar
    93     4     3    2
    94   150   153    1
    95   150   149    1
    96    95    94    1
    97    16    14   ar
    98   153   154    1
    99   132   133    2
   100   132   131    1
   101    35    37   ar
   102    17    18    1
   103    18    19    1
   104    54    55    2
   105    54    53    1
   106    29    24   am
   107    59    61   ar
   108    59    57   ar
   109    52    53    1
   110    39    37   ar
   111    56    53    1
   112    56    57    1
   113    96    94    1
   114    20    19    2
   115    19    22   am
   116    61    62   ar
   117    10    13    1
   118    10     9    1
   119   131   128    1
   120    94    91    1
   121    14    13    1
   122    14    15   ar
   123    57    58   ar
   124    24    25    2
   125    24    23    1
   126    22    23    1
   127   127   128    1
   128   128   129    1
   129    91    90    1
   130    91    92    1
   131    62    60   ar
   132    23    26    1
   133    90    85   am
   134    58    60   ar
   135    89    87    1
   136    87    88    1
   137    87    84    1
   138   104   103    1
   139    26    27    1
   140    26    28    1
   141   102   101    1
   142   102   103    1
   143    85    84    1
   144    85    86    2
   145   130   129    2
   146   101    98    1
   147    92    93    2
   148    84    83    1
   149   122   121    1
   150   122   123    1
   151   125   124    1
   152   121   120    1
   153    98    99    1
   154    98    97    1
   155   115   114   ar
   156   115   113   ar
   157    99   100    2
   158   114   112   ar
   159   113   111   ar
   160   124   123    2
   161   124   126    1
   162   120   117    1
   163   117   116    1
   164   117   118    1
   165   147   145   ar
   166   147   148   ar
   167   112   110   ar
   168   145   142   ar
   169   118   119    2
   170   148   146   ar
   171   111   110   ar
   172   110   109    1
   173   135   136    1
   174   142   144   ar
   175   142   140   ar
   176   146   144   ar
   177   106   105    1
   178   106   109    1
   179   106   107    1
   180   136   139    1
   181   136   137    1
   182   144   143   ar
   183   139   140    1
   184   140   141   ar
   185   108   107    2
   186   143   141   ar
   187   137   138    2
