@<TRIPOS>MOLECULE
tmp/5alvA00.pdb
 136 133 0 0 0
SMALL
GASTEIGER

@<TRIPOS>ATOM
      1  N        -20.1370  -15.6580   16.3960 N.3   261  PHE261     -0.1241
      2  CA       -21.2180  -14.7000   16.2680 C.3   261  PHE261      0.1605
      3  C        -21.3770  -14.1860   14.8190 C.2   261  PHE261      0.2264
      4  O        -20.3630  -13.8040   14.2160 O.2   261  PHE261     -0.2867
      5  CB       -20.9290  -13.4910   17.1990 C.3   261  PHE261      0.0534
      6  CG       -21.9480  -12.3770   17.0620 C.ar  261  PHE261     -0.0203
      7  CD1      -21.8030  -11.3920   16.0900 C.ar  261  PHE261     -0.0042
      8  CD2      -23.0690  -12.3280   17.8910 C.ar  261  PHE261     -0.0042
      9  CE1      -22.7640  -10.3710   15.9400 C.ar  261  PHE261     -0.0003
     10  CE2      -24.0170  -11.2890   17.7620 C.ar  261  PHE261     -0.0003
     11  CZ       -23.8600  -10.3240   16.7800 C.ar  261  PHE261     -0.0000
     12  N        -14.1680  -17.8470   16.0950 N.3   329  ASP329     -0.1225
     13  CA       -14.6370  -16.5530   16.6150 C.3   329  ASP329      0.1805
     14  C        -14.9590  -16.6430   18.1160 C.2   329  ASP329      0.2597
     15  O        -14.1040  -17.0950   18.8680 O.2   329  ASP329     -0.2718
     16  CB       -15.8310  -16.1160   15.7450 C.3   329  ASP329      0.1424
     17  CG       -16.3630  -14.7270   16.0420 C.2   329  ASP329      0.3668
     18  OD1      -15.7350  -13.7580   15.6040 O.co2 329  ASP329     -0.2456
     19  OD2      -17.4250  -14.6160   16.7220 O.co2 329  ASP329     -0.2456
     20  N        -16.1670  -16.2280   18.5730 N.am  330  TRP330     -0.1976
     21  CA       -16.5100  -16.3260   20.0020 C.3   330  TRP330      0.1640
     22  C        -16.3880  -17.7730   20.5390 C.2   330  TRP330      0.2290
     23  O        -15.9940  -17.9500   21.7010 O.2   330  TRP330     -0.2864
     24  CB       -17.9150  -15.7760   20.2690 C.3   330  TRP330      0.0576
     25  CG       -17.8820  -14.3350   20.6860 C.ar  330  TRP330      0.0006
     26  CD1      -18.3140  -13.2680   19.9550 C.ar  330  TRP330      0.0946
     27  CD2      -17.3280  -13.8000   21.8910 C.ar  330  TRP330      0.0152
     28  NE1      -18.1140  -12.1030   20.6580 N.ar  330  TRP330     -0.2442
     29  CE2      -17.5450  -12.4020   21.8660 C.ar  330  TRP330      0.0810
     30  CE3      -16.7610  -14.3740   23.0430 C.ar  330  TRP330      0.0012
     31  CZ2      -17.1370  -11.5600   22.9070 C.ar  330  TRP330      0.0191
     32  CZ3      -16.4060  -13.5430   24.0960 C.ar  330  TRP330      0.0001
     33  CH2      -16.6010  -12.1530   24.0230 C.ar  330  TRP330      0.0015
     34  N        -12.8460  -18.3040   21.3430 N.3   333  MET333     -0.1245
     35  CA       -12.5450  -17.7380   22.6450 C.3   333  MET333      0.1570
     36  C        -12.9650  -18.7250   23.7580 C.2   333  MET333      0.2261
     37  O        -12.2200  -18.9320   24.7160 O.2   333  MET333     -0.2867
     38  CB       -13.2740  -16.4060   22.8600 C.3   333  MET333      0.0387
     39  CG       -12.7660  -15.6410   24.0650 C.3   333  MET333      0.0595
     40  SD       -11.2240  -14.7360   23.6730 S.3   333  MET333     -0.1393
     41  CE       -10.0140  -15.9370   24.0230 C.3   333  MET333      0.0692
     42  N         -9.5580  -16.9490   16.0180 N.3   354  THR354     -0.1218
     43  CA        -9.4320  -16.4000   17.3530 C.3   354  THR354      0.1862
     44  C         -8.1150  -16.7380   18.0100 C.2   354  THR354      0.2287
     45  O         -7.8550  -17.9040   18.3240 O.2   354  THR354     -0.2866
     46  CB       -10.6120  -16.8030   18.2470 C.3   354  THR354      0.1770
     47  OG1      -11.7910  -16.5100   17.5430 O.3   354  THR354     -0.2211
     48  CG2      -10.6150  -16.0230   19.5540 C.3   354  THR354      0.0375
     49  N        -12.0470   -2.8720   16.5740 N.3   375  PHE375     -0.1241
     50  CA       -12.9960   -3.3830   17.5820 C.3   375  PHE375      0.1605
     51  C        -14.0400   -2.3650   18.0480 C.2   375  PHE375      0.2264
     52  O        -14.7480   -2.6210   19.0290 O.2   375  PHE375     -0.2867
     53  CB       -12.2650   -4.0290   18.7750 C.3   375  PHE375      0.0534
     54  CG       -11.4960   -5.2800   18.3990 C.ar  375  PHE375     -0.0203
     55  CD1      -12.1620   -6.4530   18.0660 C.ar  375  PHE375     -0.0042
     56  CD2      -10.1090   -5.2610   18.3090 C.ar  375  PHE375     -0.0042
     57  CE1      -11.4530   -7.5990   17.6900 C.ar  375  PHE375     -0.0003
     58  CE2       -9.3970   -6.4110   17.9370 C.ar  375  PHE375     -0.0003
     59  CZ       -10.0760   -7.5680   17.6140 C.ar  375  PHE375     -0.0000
     60  N        -16.9510   -1.6090   16.8060 N.3   377  TYR377     -0.1227
     61  CA       -18.2970   -2.2210   16.7830 C.3   377  TYR377      0.1736
     62  C        -18.6630   -2.8860   18.1200 C.2   377  TYR377      0.2595
     63  O        -19.8420   -3.0230   18.3970 O.2   377  TYR377     -0.2718
     64  CB       -18.4510   -3.2480   15.6460 C.3   377  TYR377      0.0548
     65  CG       -17.5890   -4.4730   15.8650 C.ar  377  TYR377     -0.0200
     66  CD1      -16.2540   -4.4870   15.4720 C.ar  377  TYR377     -0.0009
     67  CD2      -18.0860   -5.5900   16.5420 C.ar  377  TYR377     -0.0009
     68  CE1      -15.4350   -5.5770   15.7340 C.ar  377  TYR377      0.0417
     69  CE2      -17.2660   -6.6820   16.8250 C.ar  377  TYR377      0.0417
     70  CZ       -15.9410   -6.6680   16.4150 C.ar  377  TYR377      0.1957
     71  OH       -15.0940   -7.7130   16.6680 O.3   377  TYR377     -0.2866
     72  N        -17.6670   -3.3280   18.9270 N.am  378  GLN378     -0.1979
     73  CA       -17.9530   -3.9600   20.2330 C.3   378  GLN378      0.1601
     74  C        -18.5600   -2.9470   21.2090 C.2   378  GLN378      0.2287
     75  O        -19.3680   -3.3340   22.0490 O.2   378  GLN378     -0.2864
     76  CB       -16.6930   -4.5960   20.8430 C.3   378  GLN378      0.0394
     77  CG       -16.0730   -5.6860   19.9660 C.3   378  GLN378      0.0908
     78  CD       -14.9770   -6.4290   20.6880 C.2   378  GLN378      0.2608
     79  OE1      -14.3670   -5.9200   21.6310 O.2   378  GLN378     -0.2717
     80  NE2      -14.6910   -7.6430   20.2550 N.am  378  GLN378     -0.0878
     81  N        -22.1350   -2.5560   20.3670 N.3   381  PHE381     -0.1241
     82  CA       -22.8910   -3.7130   20.8440 C.3   381  PHE381      0.1605
     83  C        -23.2240   -3.6680   22.3380 C.2   381  PHE381      0.2264
     84  O        -23.9940   -4.5120   22.8160 O.2   381  PHE381     -0.2867
     85  CB       -22.0930   -5.0080   20.5140 C.3   381  PHE381      0.0534
     86  CG       -22.0890   -5.4830   19.0770 C.ar  381  PHE381     -0.0203
     87  CD1      -22.7630   -4.7720   18.0810 C.ar  381  PHE381     -0.0042
     88  CD2      -21.4090   -6.6410   18.7140 C.ar  381  PHE381     -0.0042
     89  CE1      -22.7890   -5.2360   16.7660 C.ar  381  PHE381     -0.0003
     90  CE2      -21.4060   -7.0860   17.3880 C.ar  381  PHE381     -0.0003
     91  CZ       -22.0960   -6.3820   16.4200 C.ar  381  PHE381     -0.0000
     92  N        -20.9710  -10.2780   24.1080 N.3   456  TYR456     -0.1241
     93  CA       -20.1030   -9.0750   24.1460 C.3   456  TYR456      0.1605
     94  C        -20.2940   -8.2070   25.3730 C.2   456  TYR456      0.2264
     95  O        -19.5080   -7.2660   25.5910 O.2   456  TYR456     -0.2867
     96  CB       -20.4680   -8.1680   22.9590 C.3   456  TYR456      0.0534
     97  CG       -20.1180   -8.7440   21.6180 C.ar  456  TYR456     -0.0201
     98  CD1      -21.0330   -9.5080   20.9120 C.ar  456  TYR456     -0.0009
     99  CD2      -18.8820   -8.4830   21.0280 C.ar  456  TYR456     -0.0009
    100  CE1      -20.7350  -10.0120   19.6550 C.ar  456  TYR456      0.0417
    101  CE2      -18.5720   -8.9810   19.7630 C.ar  456  TYR456      0.0417
    102  CZ       -19.5160   -9.7260   19.0750 C.ar  456  TYR456      0.1957
    103  OH       -19.2610  -10.2870   17.8620 O.3   456  TYR456     -0.2866
    104  N        -17.6020   -7.9500   29.2720 N.3   459  MET459     -0.1245
    105  CA       -16.1580   -7.6400   29.2010 C.3   459  MET459      0.1570
    106  C        -15.4190   -7.6170   30.5160 C.2   459  MET459      0.2261
    107  O        -14.4040   -8.2890   30.6370 O.2   459  MET459     -0.2867
    108  CB       -15.8690   -6.3920   28.3490 C.3   459  MET459      0.0387
    109  CG       -16.5100   -6.4870   27.0120 C.3   459  MET459      0.0595
    110  SD       -15.6900   -5.5750   25.6990 S.3   459  MET459     -0.1393
    111  CE       -16.2770   -6.5850   24.2370 C.3   459  MET459      0.0692
    112  N        -10.2890   -8.3620   11.0200 N.3   488  VAL488     -0.1231
    113  CA       -10.5270   -8.0370   12.4260 C.3   488  VAL488      0.1692
    114  C         -9.6200   -8.9560   13.2850 C.2   488  VAL488      0.2591
    115  O         -8.7750   -8.4680   14.0400 O.2   488  VAL488     -0.2718
    116  CB       -12.0300   -8.1680   12.7780 C.3   488  VAL488      0.0266
    117  CG1      -12.2700   -7.9480   14.2710 C.3   488  VAL488      0.0020
    118  CG2      -12.8680   -7.1910   11.9480 C.3   488  VAL488      0.0020
    119  N         -9.7760  -10.2850   13.1060 N.am  489  LEU489     -0.1980
    120  CA        -8.9800  -11.3270   13.7750 C.3   489  LEU489      0.1596
    121  C         -7.8140  -11.6440   12.8430 C.2   489  LEU489      0.2287
    122  O         -7.7480  -12.7040   12.2060 O.2   489  LEU489     -0.2864
    123  CB        -9.8740  -12.5730   14.0090 C.3   489  LEU489      0.0297
    124  CG       -11.1220  -12.3370   14.8710 C.3   489  LEU489      0.0022
    125  CD1      -11.8610  -13.6510   15.0760 C.3   489  LEU489      0.0001
    126  CD2      -10.7550  -11.7260   16.2150 C.3   489  LEU489      0.0001
    127  N        -13.1560  -13.8950    7.2340 N.3   514  HIS514     -0.1241
    128  CA       -13.5960  -14.2620    8.5920 C.3   514  HIS514      0.1621
    129  C        -14.3900  -15.5640    8.6820 C.2   514  HIS514      0.2264
    130  O        -14.3050  -16.2510    9.7140 O.2   514  HIS514     -0.2867
    131  CB       -14.3900  -13.1070    9.2180 C.3   514  HIS514      0.0745
    132  CG       -14.9380  -13.4230   10.5710 C.ar  514  HIS514      0.0817
    133  ND1      -14.1260  -13.4570   11.6810 N.ar  514  HIS514     -0.2268
    134  CD2      -16.2010  -13.7640   10.9330 C.ar  514  HIS514      0.1154
    135  CE1      -14.9160  -13.8160   12.6890 C.ar  514  HIS514      0.1986
    136  NE2      -16.1700  -14.0210   12.2810 N.ar  514  HIS514     -0.2212
@<TRIPOS>BOND
     1   127   128    1
     2   128   129    1
     3   128   131    1
     4   129   130    2
     5   131   132    1
     6   132   134   ar
     7   132   133   ar
     8   134   136   ar
     9   112   113    1
    10   133   135   ar
    11   118   116    1
    12   122   121    2
    13   136   135   ar
    14   113   116    1
    15   113   114    1
    16   116   117    1
    17   121   120    1
    18   119   114   am
    19   119   120    1
    20   114   115    2
    21   120   123    1
    22   123   124    1
    23     4     3    2
    24     3     2    1
    25   124   125    1
    26   124   126    1
    27    66    68   ar
    28    66    65   ar
    29    18    17   ar
    30    64    65    1
    31    64    61    1
    32    68    70   ar
    33    16    17    1
    34    16    13    1
    35    65    67   ar
    36     9     7   ar
    37     9    11   ar
    38    42    43    1
    39    17    19   ar
    40     7     6   ar
    41    12    13    1
    42     2     1    1
    43     2     5    1
    44    70    71    1
    45    70    69   ar
    46    91    89   ar
    47    91    90   ar
    48    67    69   ar
    49    49    50    1
    50    13    14    1
    51    89    87   ar
    52    11    10   ar
    53    61    60    1
    54    61    62    1
    55     6     5    1
    56     6     8   ar
    57    43    44    1
    58    43    46    1
    59    90    88   ar
    60    47    46    1
    61    50    51    1
    62    50    53    1
    63    59    57   ar
    64    59    58   ar
    65    57    55   ar
    66    10     8   ar
    67   103   102    1
    68    58    56   ar
    69    44    45    2
    70    51    52    2
    71    55    54   ar
    72    87    86   ar
    73    14    20   am
    74    14    15    2
    75    62    63    2
    76    62    72   am
    77    46    48    1
    78    56    54   ar
    79    54    53    1
    80    20    21    1
    81    88    86   ar
    82    72    73    1
    83   102   100   ar
    84   102   101   ar
    85    86    85    1
    86   100    98   ar
    87   101    99   ar
    88    26    28   ar
    89    26    25   ar
    90    77    78    1
    91    77    76    1
    92    21    24    1
    93    21    22    1
    94    73    76    1
    95    73    74    1
    96    80    78   am
    97    24    25    1
    98    81    82    1
    99    85    82    1
   100    22    23    2
   101    28    29   ar
   102    25    27   ar
   103    78    79    2
   104    82    83    1
   105    98    97   ar
   106    99    97   ar
   107    74    75    2
   108    34    35    1
   109    97    96    1
   110    29    27   ar
   111    29    31   ar
   112    27    30   ar
   113    83    84    2
   114    35    38    1
   115    35    36    1
   116    38    39    1
   117    31    33   ar
   118    96    93    1
   119    30    32   ar
   120    40    41    1
   121    40    39    1
   122    36    37    2
   123    33    32   ar
   124    92    93    1
   125    93    94    1
   126   111   110    1
   127    94    95    2
   128   110   109    1
   129   109   108    1
   130   108   105    1
   131   105   104    1
   132   105   106    1
   133   106   107    2
