@<TRIPOS>MOLECULE
tmp/5alvA01.pdb
 109 103 0 0 0
SMALL
GASTEIGER

@<TRIPOS>ATOM
      1  N        -16.1670  -16.2280   18.5730 N.3   330  TRP330     -0.1241
      2  CA       -16.5100  -16.3260   20.0020 C.3   330  TRP330      0.1605
      3  C        -16.3880  -17.7730   20.5390 C.2   330  TRP330      0.2264
      4  O        -15.9940  -17.9500   21.7010 O.2   330  TRP330     -0.2867
      5  CB       -17.9150  -15.7760   20.2690 C.3   330  TRP330      0.0550
      6  CG       -17.8820  -14.3350   20.6860 C.ar  330  TRP330      0.0003
      7  CD1      -18.3140  -13.2680   19.9550 C.ar  330  TRP330      0.0946
      8  CD2      -17.3280  -13.8000   21.8910 C.ar  330  TRP330      0.0152
      9  NE1      -18.1140  -12.1030   20.6580 N.ar  330  TRP330     -0.2442
     10  CE2      -17.5450  -12.4020   21.8660 C.ar  330  TRP330      0.0810
     11  CE3      -16.7610  -14.3740   23.0430 C.ar  330  TRP330      0.0012
     12  CZ2      -17.1370  -11.5600   22.9070 C.ar  330  TRP330      0.0191
     13  CZ3      -16.4060  -13.5430   24.0960 C.ar  330  TRP330      0.0001
     14  CH2      -16.6010  -12.1530   24.0230 C.ar  330  TRP330      0.0015
     15  N        -12.8460  -18.3040   21.3430 N.3   333  MET333     -0.1245
     16  CA       -12.5450  -17.7380   22.6450 C.3   333  MET333      0.1570
     17  C        -12.9650  -18.7250   23.7580 C.2   333  MET333      0.2261
     18  O        -12.2200  -18.9320   24.7160 O.2   333  MET333     -0.2867
     19  CB       -13.2740  -16.4060   22.8600 C.3   333  MET333      0.0387
     20  CG       -12.7660  -15.6410   24.0650 C.3   333  MET333      0.0595
     21  SD       -11.2240  -14.7360   23.6730 S.3   333  MET333     -0.1393
     22  CE       -10.0140  -15.9370   24.0230 C.3   333  MET333      0.0692
     23  N         -9.5580  -16.9490   16.0180 N.3   354  THR354     -0.1204
     24  CA        -9.4320  -16.4000   17.3530 C.3   354  THR354      0.1979
     25  C         -8.1150  -16.7380   18.0100 C.2   354  THR354      0.2459
     26  O         -7.8550  -17.9040   18.3240 O.2   354  THR354     -0.2732
     27  CB       -10.6120  -16.8030   18.2470 C.3   354  THR354      0.1783
     28  OG1      -11.7910  -16.5100   17.5430 O.3   354  THR354     -0.2211
     29  CG2      -10.6150  -16.0230   19.5540 C.3   354  THR354      0.0376
     30  N         -7.2850  -15.7140   18.3020 N.am  355  PRO355     -0.2728
     31  CA        -6.0160  -16.0150   18.9630 C.3   355  PRO355      0.1401
     32  C         -6.2350  -16.1210   20.4700 C.2   355  PRO355      0.2269
     33  O         -7.2840  -15.6950   20.9920 O.2   355  PRO355     -0.2865
     34  CB        -5.1640  -14.7780   18.6260 C.3   355  PRO355      0.0296
     35  CG        -6.1720  -13.6400   18.6070 C.3   355  PRO355      0.0237
     36  CD        -7.4440  -14.2550   18.0550 C.3   355  PRO355      0.0939
     37  N         -4.9250  -14.5090   23.6370 N.3   357  ILE357     -0.1245
     38  CA        -4.2150  -13.3240   24.1390 C.3   357  ILE357      0.1561
     39  C         -4.5310  -13.2130   25.6270 C.2   357  ILE357      0.2260
     40  O         -5.6990  -13.0340   25.9740 O.2   357  ILE357     -0.2867
     41  CB        -4.5700  -12.0340   23.3230 C.3   357  ILE357      0.0252
     42  CG1       -3.9870  -12.1290   21.8740 C.3   357  ILE357      0.0019
     43  CG2       -4.0650  -10.7530   24.0420 C.3   357  ILE357      0.0019
     44  CD1       -4.5330  -11.1490   20.8930 C.3   357  ILE357      0.0001
     45  N        -10.6760   -3.9870   29.7240 N.3   365  PRO365     -0.2116
     46  CA       -10.9490   -4.4680   28.3510 C.3   365  PRO365      0.1372
     47  C        -11.4360   -3.3240   27.4330 C.2   365  PRO365      0.2244
     48  O        -11.1400   -3.3230   26.2330 O.2   365  PRO365     -0.2868
     49  CB       -12.0120   -5.5630   28.5480 C.3   365  PRO365      0.0268
     50  CG       -12.5730   -5.3280   29.9190 C.3   365  PRO365      0.0207
     51  CD       -11.4860   -4.7040   30.7310 C.3   365  PRO365      0.0892
     52  N         -8.3930   -1.3950   26.2970 N.3   368  SER368     -0.1202
     53  CA        -7.7430   -2.2450   25.3000 C.3   368  SER368      0.2020
     54  C         -8.4270   -2.1120   23.9280 C.2   368  SER368      0.2618
     55  O         -7.7180   -2.1360   22.9150 O.2   368  SER368     -0.2717
     56  CB        -7.7170   -3.6910   25.7720 C.3   368  SER368      0.2103
     57  OG        -7.2430   -3.7540   27.1090 O.3   368  SER368     -0.2182
     58  N         -9.7820   -1.9230   23.9080 N.am  369  ILE369     -0.1979
     59  CA       -10.5990   -1.6890   22.7010 C.3   369  ILE369      0.1595
     60  C        -10.1970   -0.3320   22.1180 C.2   369  ILE369      0.2287
     61  O        -10.0050   -0.2400   20.9060 O.2   369  ILE369     -0.2864
     62  CB       -12.1510   -1.8210   22.9390 C.3   369  ILE369      0.0276
     63  CG1      -12.5820   -3.2860   22.9230 C.3   369  ILE369      0.0022
     64  CG2      -13.0200   -0.9960   21.9540 C.3   369  ILE369      0.0022
     65  CD1      -13.4690   -3.5890   23.9760 C.3   369  ILE369      0.0001
     66  N        -12.0470   -2.8720   16.5740 N.3   375  PHE375     -0.1241
     67  CA       -12.9960   -3.3830   17.5820 C.3   375  PHE375      0.1605
     68  C        -14.0400   -2.3650   18.0480 C.2   375  PHE375      0.2264
     69  O        -14.7480   -2.6210   19.0290 O.2   375  PHE375     -0.2867
     70  CB       -12.2650   -4.0290   18.7750 C.3   375  PHE375      0.0534
     71  CG       -11.4960   -5.2800   18.3990 C.ar  375  PHE375     -0.0203
     72  CD1      -12.1620   -6.4530   18.0660 C.ar  375  PHE375     -0.0042
     73  CD2      -10.1090   -5.2610   18.3090 C.ar  375  PHE375     -0.0042
     74  CE1      -11.4530   -7.5990   17.6900 C.ar  375  PHE375     -0.0003
     75  CE2       -9.3970   -6.4110   17.9370 C.ar  375  PHE375     -0.0003
     76  CZ       -10.0760   -7.5680   17.6140 C.ar  375  PHE375     -0.0000
     77  N        -17.6670   -3.3280   18.9270 N.3   378  GLN378     -0.1245
     78  CA       -17.9530   -3.9600   20.2330 C.3   378  GLN378      0.1566
     79  C        -18.5600   -2.9470   21.2090 C.2   378  GLN378      0.2260
     80  O        -19.3680   -3.3340   22.0490 O.2   378  GLN378     -0.2867
     81  CB       -16.6930   -4.5960   20.8430 C.3   378  GLN378      0.0367
     82  CG       -16.0730   -5.6860   19.9660 C.3   378  GLN378      0.0905
     83  CD       -14.9770   -6.4290   20.6880 C.2   378  GLN378      0.2608
     84  OE1      -14.3670   -5.9200   21.6310 O.2   378  GLN378     -0.2717
     85  NE2      -14.6910   -7.6430   20.2550 N.am  378  GLN378     -0.0878
     86  N        -17.6020   -7.9500   29.2720 N.3   459  MET459     -0.1245
     87  CA       -16.1580   -7.6400   29.2010 C.3   459  MET459      0.1570
     88  C        -15.4190   -7.6170   30.5160 C.2   459  MET459      0.2261
     89  O        -14.4040   -8.2890   30.6370 O.2   459  MET459     -0.2867
     90  CB       -15.8690   -6.3920   28.3490 C.3   459  MET459      0.0387
     91  CG       -16.5100   -6.4870   27.0120 C.3   459  MET459      0.0595
     92  SD       -15.6900   -5.5750   25.6990 S.3   459  MET459     -0.1393
     93  CE       -16.2770   -6.5850   24.2370 C.3   459  MET459      0.0692
     94  N         -9.7760  -10.2850   13.1060 N.3   489  LEU489     -0.1245
     95  CA        -8.9800  -11.3270   13.7750 C.3   489  LEU489      0.1561
     96  C         -7.8140  -11.6440   12.8430 C.2   489  LEU489      0.2260
     97  O         -7.7480  -12.7040   12.2060 O.2   489  LEU489     -0.2867
     98  CB        -9.8740  -12.5730   14.0090 C.3   489  LEU489      0.0270
     99  CG       -11.1220  -12.3370   14.8710 C.3   489  LEU489      0.0019
    100  CD1      -11.8610  -13.6510   15.0760 C.3   489  LEU489      0.0001
    101  CD2      -10.7550  -11.7260   16.2150 C.3   489  LEU489      0.0001
    102  N         -2.3090  -11.0490   15.1930 N.3   493  MET493     -0.1245
    103  CA        -2.7550  -11.0550   16.5890 C.3   493  MET493      0.1570
    104  C         -2.3490  -12.3380   17.3280 C.2   493  MET493      0.2261
    105  O         -2.2990  -12.3430   18.5570 O.2   493  MET493     -0.2867
    106  CB        -4.2670  -10.9110   16.6450 C.3   493  MET493      0.0387
    107  CG        -4.7360   -9.4940   16.5700 C.3   493  MET493      0.0595
    108  SD        -6.5430   -9.4790   16.6190 S.3   493  MET493     -0.1393
    109  CE        -6.8270   -9.6320   18.3460 C.3   493  MET493      0.0692
@<TRIPOS>BOND
     1    97    96    2
     2    96    95    1
     3    94    95    1
     4    95    98    1
     5    98    99    1
     6    99   100    1
     7    99   101    1
     8   102   103    1
     9    23    24    1
    10   107   108    1
    11   107   106    1
    12    66    67    1
    13   103   106    1
    14   103   104    1
    15   108   109    1
    16   104   105    2
    17    24    25    1
    18    24    27    1
    19    28    27    1
    20    67    68    1
    21    67    70    1
    22    76    74   ar
    23    76    75   ar
    24    74    72   ar
    25    75    73   ar
    26    25    30   am
    27    25    26    2
    28    68    69    2
    29    36    30    1
    30    36    35    1
    31    72    71   ar
    32    27    29    1
    33    30    31    1
    34    73    71   ar
    35    71    70    1
    36     1     2    1
    37    35    34    1
    38    34    31    1
    39    77    78    1
    40    31    32    1
    41     7     9   ar
    42     7     6   ar
    43    82    83    1
    44    82    81    1
    45     2     5    1
    46     2     3    1
    47    78    81    1
    48    78    79    1
    49    85    83   am
    50     5     6    1
    51    32    33    2
    52     3     4    2
    53     9    10   ar
    54     6     8   ar
    55    83    84    2
    56    44    42    1
    57    61    60    2
    58    79    80    2
    59    15    16    1
    60    10     8   ar
    61    10    12   ar
    62    42    41    1
    63     8    11   ar
    64    64    62    1
    65    60    59    1
    66    16    19    1
    67    16    17    1
    68    59    62    1
    69    59    58    1
    70    19    20    1
    71    12    14   ar
    72    55    54    2
    73    63    62    1
    74    63    65    1
    75    11    13   ar
    76    41    43    1
    77    41    38    1
    78    37    38    1
    79    21    22    1
    80    21    20    1
    81    17    18    2
    82    58    54   am
    83    54    53    1
    84    14    13   ar
    85    38    39    1
    86    93    92    1
    87    53    56    1
    88    53    52    1
    89    39    40    2
    90    92    91    1
    91    56    57    1
    92    48    47    2
    93    91    90    1
    94    47    46    1
    95    90    87    1
    96    46    49    1
    97    46    45    1
    98    49    50    1
    99    87    86    1
   100    87    88    1
   101    45    51    1
   102    50    51    1
   103    88    89    2
