@<TRIPOS>MOLECULE
tmp/5alwA00.pdb
 188 186 0 0 0
SMALL
GASTEIGER

@<TRIPOS>ATOM
      1  N        -20.1090  -15.5590   16.4250 N.3   266  PHE266     -0.1228
      2  CA       -21.2200  -14.6210   16.3210 C.3   266  PHE266      0.1721
      3  C        -21.3770  -14.0580   14.9010 C.2   266  PHE266      0.2437
      4  O        -20.4020  -13.5810   14.3420 O.2   266  PHE266     -0.2733
      5  CB       -21.0190  -13.4350   17.2960 C.3   266  PHE266      0.0547
      6  CG       -22.0170  -12.2960   17.1260 C.ar  266  PHE266     -0.0202
      7  CD1      -21.7610  -11.2430   16.2430 C.ar  266  PHE266     -0.0042
      8  CD2      -23.1680  -12.2320   17.9070 C.ar  266  PHE266     -0.0042
      9  CE1      -22.6730  -10.1890   16.0920 C.ar  266  PHE266     -0.0003
     10  CE2      -24.0790  -11.1720   17.7650 C.ar  266  PHE266     -0.0003
     11  CZ       -23.8330  -10.1720   16.8410 C.ar  266  PHE266     -0.0000
     12  N        -22.5900  -13.9850   14.3310 N.am  267  PRO267     -0.2729
     13  CA       -23.9010  -14.4700   14.8140 C.3   267  PRO267      0.1401
     14  C        -24.2070  -15.7370   14.0290 C.2   267  PRO267      0.2269
     15  O        -24.8560  -15.7130   12.9630 O.2   267  PRO267     -0.2865
     16  CB       -24.8340  -13.3160   14.4230 C.3   267  PRO267      0.0296
     17  CG       -24.0720  -12.5370   13.2730 C.3   267  PRO267      0.0237
     18  CD       -22.7580  -13.2700   13.0560 C.3   267  PRO267      0.0939
     19  N        -14.2720  -17.7890   16.2230 N.3   334  ASP334     -0.1239
     20  CA       -14.7040  -16.4640   16.6760 C.3   334  ASP334      0.1674
     21  C        -15.0120  -16.5520   18.1890 C.2   334  ASP334      0.2266
     22  O        -14.1480  -17.0010   18.9430 O.2   334  ASP334     -0.2867
     23  CB       -15.9330  -16.0050   15.8040 C.3   334  ASP334      0.1410
     24  CG       -16.4680  -14.6240   16.1160 C.2   334  ASP334      0.3668
     25  OD1      -15.8360  -13.6470   15.7030 O.co2 334  ASP334     -0.2456
     26  OD2      -17.4810  -14.5300   16.8460 O.co2 334  ASP334     -0.2456
     27  N        -17.0360   -1.8440   16.4200 N.3   382  TYR382     -0.1241
     28  CA       -18.3660   -2.4540   16.3220 C.3   382  TYR382      0.1605
     29  C        -18.8010   -3.0350   17.6860 C.2   382  TYR382      0.2264
     30  O        -19.9650   -2.9190   18.0570 O.2   382  TYR382     -0.2867
     31  CB       -18.4200   -3.5120   15.1950 C.3   382  TYR382      0.0534
     32  CG       -17.6310   -4.7780   15.4700 C.ar  382  TYR382     -0.0201
     33  CD1      -16.2850   -4.8730   15.1290 C.ar  382  TYR382     -0.0009
     34  CD2      -18.2400   -5.8920   16.0430 C.ar  382  TYR382     -0.0009
     35  CE1      -15.5580   -6.0390   15.3750 C.ar  382  TYR382      0.0417
     36  CE2      -17.5270   -7.0620   16.2880 C.ar  382  TYR382      0.0417
     37  CZ       -16.1830   -7.1330   15.9540 C.ar  382  TYR382      0.1957
     38  OH       -15.4830   -8.2960   16.2000 O.3   382  TYR382     -0.2866
     39  N        -22.0870   -2.5910   20.2130 N.3   386  PHE386     -0.1241
     40  CA       -22.8100   -3.7620   20.6980 C.3   386  PHE386      0.1605
     41  C        -23.1490   -3.6600   22.1680 C.2   386  PHE386      0.2264
     42  O        -24.0300   -4.3800   22.6440 O.2   386  PHE386     -0.2867
     43  CB       -21.9890   -5.0420   20.4300 C.3   386  PHE386      0.0534
     44  CG       -21.9840   -5.5910   19.0230 C.ar  386  PHE386     -0.0203
     45  CD1      -22.6960   -4.9590   18.0030 C.ar  386  PHE386     -0.0042
     46  CD2      -21.2490   -6.7230   18.7090 C.ar  386  PHE386     -0.0042
     47  CE1      -22.6920   -5.4670   16.7030 C.ar  386  PHE386     -0.0003
     48  CE2      -21.2330   -7.2250   17.4010 C.ar  386  PHE386     -0.0003
     49  CZ       -21.9640   -6.5970   16.4090 C.ar  386  PHE386     -0.0000
     50  N        -30.1540   -5.3500   13.6760 N.3   396  LEU396     -0.1245
     51  CA       -29.8510   -6.6780   13.1510 C.3   396  LEU396      0.1561
     52  C        -31.0900   -7.5400   12.9600 C.2   396  LEU396      0.2260
     53  O        -31.1190   -8.3530   12.0380 O.2   396  LEU396     -0.2867
     54  CB       -28.7640   -7.3710   13.9880 C.3   396  LEU396      0.0270
     55  CG       -27.3990   -6.6770   13.9870 C.3   396  LEU396      0.0019
     56  CD1      -26.6760   -6.9040   15.2700 C.3   396  LEU396      0.0001
     57  CD2      -26.5570   -7.0760   12.7930 C.3   396  LEU396      0.0001
     58  N        -23.5500   -9.8840    6.0540 N.3   407  LEU407     -0.1245
     59  CA       -22.4590  -10.4190    6.8560 C.3   407  LEU407      0.1561
     60  C        -21.6800  -11.4700    6.1930 C.2   407  LEU407      0.2260
     61  O        -20.4550  -11.4020    6.2030 O.2   407  LEU407     -0.2867
     62  CB       -22.9710  -10.9850    8.1880 C.3   407  LEU407      0.0270
     63  CG       -23.5510  -10.0090    9.1770 C.3   407  LEU407      0.0019
     64  CD1      -24.0990  -10.7520   10.3330 C.3   407  LEU407      0.0001
     65  CD2      -22.5310   -9.0460    9.6280 C.3   407  LEU407      0.0001
     66  N        -20.4610   -3.9440    4.0980 N.3   416  LEU416     -0.1231
     67  CA       -20.6270   -3.2050    5.3490 C.3   416  LEU416      0.1693
     68  C        -19.3780   -2.4230    5.7170 C.2   416  LEU416      0.2593
     69  O        -18.2680   -2.9710    5.6920 O.2   416  LEU416     -0.2718
     70  CB       -21.0330   -4.1240    6.5220 C.3   416  LEU416      0.0284
     71  CG       -22.4290   -4.7420    6.5250 C.3   416  LEU416      0.0019
     72  CD1      -22.5190   -5.8270    7.5620 C.3   416  LEU416      0.0001
     73  CD2      -23.5120   -3.7140    6.7980 C.3   416  LEU416      0.0001
     74  N        -19.5670   -1.1400    6.0730 N.am  417  SER417     -0.1938
     75  CA       -18.4780   -0.2880    6.5460 C.3   417  SER417      0.2055
     76  C        -18.2950   -0.6850    8.0130 C.2   417  SER417      0.2642
     77  O        -19.2020   -0.4800    8.8340 O.2   417  SER417     -0.2714
     78  CB       -18.8140    1.1980    6.3870 C.3   417  SER417      0.2130
     79  OG       -19.6130    1.7370    7.4320 O.3   417  SER417     -0.2179
     80  N        -17.1790   -1.3650    8.3060 N.am  418  MET418     -0.1976
     81  CA       -16.8760   -1.8590    9.6500 C.3   418  MET418      0.1605
     82  C        -16.2180   -0.8020   10.5490 C.2   418  MET418      0.2287
     83  O        -16.0730   -1.0280   11.7540 O.2   418  MET418     -0.2864
     84  CB       -16.0360   -3.1470    9.5710 C.3   418  MET418      0.0413
     85  CG       -16.8280   -4.3580    9.0850 C.3   418  MET418      0.0598
     86  SD       -17.3950   -5.4670   10.4020 S.3   418  MET418     -0.1393
     87  CE       -15.9350   -6.2650   10.7770 C.3   418  MET418      0.0692
     88  N        -18.6350    2.8660   13.1710 N.3   421  VAL421     -0.1245
     89  CA       -20.0620    2.5050   13.1850 C.3   421  VAL421      0.1561
     90  C        -20.8270    3.3360   14.2020 C.2   421  VAL421      0.2260
     91  O        -21.9890    3.6720   13.9690 O.2   421  VAL421     -0.2867
     92  CB       -20.3780    0.9850   13.2780 C.3   421  VAL421      0.0252
     93  CG1      -19.7650    0.2160   12.1120 C.3   421  VAL421      0.0019
     94  CG2      -19.9400    0.3900   14.6080 C.3   421  VAL421      0.0019
     95  N        -24.9450    0.2980   12.0340 N.3   427  LEU427     -0.1231
     96  CA       -24.1760   -0.8310   11.5280 C.3   427  LEU427      0.1693
     97  C        -24.4020   -0.9980   10.0210 C.2   427  LEU427      0.2592
     98  O        -23.4950   -1.4480    9.3110 O.2   427  LEU427     -0.2718
     99  CB       -24.6330   -2.1150   12.2640 C.3   427  LEU427      0.0284
    100  CG       -24.4710   -2.1290   13.7960 C.3   427  LEU427      0.0019
    101  CD1      -25.5800   -2.9220   14.4670 C.3   427  LEU427      0.0001
    102  CD2      -23.0960   -2.6190   14.2120 C.3   427  LEU427      0.0001
    103  N        -25.6320   -0.6670    9.5550 N.am  428  PHE428     -0.1976
    104  CA       -26.0930   -0.7940    8.1640 C.3   428  PHE428      0.1639
    105  C        -26.0710    0.5030    7.3370 C.2   428  PHE428      0.2290
    106  O        -26.6280    0.5170    6.2340 O.2   428  PHE428     -0.2864
    107  CB       -27.5120   -1.4010    8.1290 C.3   428  PHE428      0.0560
    108  CG       -27.5610   -2.8550    8.5140 C.ar  428  PHE428     -0.0200
    109  CD1      -27.1310   -3.8370    7.6340 C.ar  428  PHE428     -0.0042
    110  CD2      -28.0220   -3.2420    9.7660 C.ar  428  PHE428     -0.0042
    111  CE1      -27.1470   -5.1800    8.0030 C.ar  428  PHE428     -0.0003
    112  CE2      -28.0430   -4.5880   10.1310 C.ar  428  PHE428     -0.0003
    113  CZ       -27.6050   -5.5480    9.2470 C.ar  428  PHE428     -0.0000
    114  N        -20.7960  -10.3430   23.9400 N.3   465  TYR465     -0.1241
    115  CA       -19.9070   -9.1600   23.8910 C.3   465  TYR465      0.1605
    116  C        -20.1050   -8.2110   25.0760 C.2   465  TYR465      0.2264
    117  O        -19.3830   -7.2210   25.2060 O.2   465  TYR465     -0.2867
    118  CB       -20.2150   -8.3390   22.6350 C.3   465  TYR465      0.0534
    119  CG       -19.6900   -8.9220   21.3450 C.ar  465  TYR465     -0.0201
    120  CD1      -18.3870   -8.6620   20.9170 C.ar  465  TYR465     -0.0009
    121  CD2      -20.5310   -9.6240   20.4840 C.ar  465  TYR465     -0.0009
    122  CE1      -17.9350   -9.1060   19.6750 C.ar  465  TYR465      0.0417
    123  CE2      -20.0730  -10.1110   19.2650 C.ar  465  TYR465      0.0417
    124  CZ       -18.7850   -9.8350   18.8580 C.ar  465  TYR465      0.1957
    125  OH       -18.3580  -10.3330   17.6610 O.3   465  TYR465     -0.2866
    126  N         -6.9690  -13.0360    5.2450 N.3   494  LYS494     -0.1231
    127  CA        -7.8110  -11.8610    5.0240 C.3   494  LYS494      0.1693
    128  C         -8.9050  -11.5650    6.0650 C.2   494  LYS494      0.2592
    129  O         -9.8720  -10.8570    5.7570 O.2   494  LYS494     -0.2718
    130  CB        -8.3510  -11.8750    3.5930 C.3   494  LYS494      0.0285
    131  CG        -7.3160  -11.4280    2.5560 C.3   494  LYS494      0.0035
    132  CD        -7.6330  -11.9500    1.1650 C.3   494  LYS494      0.0206
    133  CE        -6.6410  -11.4450    0.1330 C.3   494  LYS494      0.1093
    134  NZ        -6.0720  -12.5330   -0.7110 N.3   494  LYS494     -0.1314
    135  N         -8.7550  -12.0820    7.3110 N.am  495  ASP495     -0.1960
    136  CA        -9.6940  -11.7100    8.3700 C.3   495  ASP495      0.1840
    137  C         -9.0940  -10.3920    8.8930 C.2   495  ASP495      0.2622
    138  O         -8.0050  -10.4350    9.4490 O.2   495  ASP495     -0.2715
    139  CB        -9.7920  -12.7900    9.4880 C.3   495  ASP495      0.1450
    140  CG       -10.8510  -12.5050   10.5530 C.2   495  ASP495      0.3671
    141  OD1      -11.0860  -11.3230   10.8540 O.co2 495  ASP495     -0.2456
    142  OD2      -11.4210  -13.4740   11.1060 O.co2 495  ASP495     -0.2456
    143  N         -9.7770   -9.2360    8.6770 N.am  496  PHE496     -0.1960
    144  CA        -9.2580   -7.9390    9.1060 C.3   496  PHE496      0.1771
    145  C         -9.5760   -7.5480   10.5630 C.2   496  PHE496      0.2619
    146  O         -9.0340   -6.5520   11.0680 O.2   496  PHE496     -0.2715
    147  CB        -9.4990   -6.8430    8.0400 C.3   496  PHE496      0.0574
    148  CG        -9.0230   -7.2580    6.6550 C.ar  496  PHE496     -0.0200
    149  CD1       -7.6640   -7.3690    6.3680 C.ar  496  PHE496     -0.0042
    150  CD2       -9.9340   -7.5800    5.6550 C.ar  496  PHE496     -0.0042
    151  CE1       -7.2290   -7.7870    5.1020 C.ar  496  PHE496     -0.0003
    152  CE2       -9.4970   -7.9880    4.3880 C.ar  496  PHE496     -0.0003
    153  CZ        -8.1500   -8.1020    4.1250 C.ar  496  PHE496     -0.0000
    154  N        -10.3790   -8.3800   11.2660 N.am  497  VAL497     -0.1977
    155  CA       -10.6930   -8.1620   12.6940 C.3   497  VAL497      0.1596
    156  C         -9.8030   -9.0800   13.5300 C.2   497  VAL497      0.2287
    157  O         -9.0300   -8.6030   14.3640 O.2   497  VAL497     -0.2864
    158  CB       -12.1990   -8.3050   12.9950 C.3   497  VAL497      0.0276
    159  CG1      -12.5010   -8.1500   14.4850 C.3   497  VAL497      0.0022
    160  CG2      -12.9680   -7.2740   12.1920 C.3   497  VAL497      0.0022
    161  N        -11.2700  -15.1520    4.4150 N.3   522  GLY522     -0.1210
    162  CA       -11.8790  -14.1250    5.2480 C.3   522  GLY522      0.1956
    163  C        -12.2270  -14.5830    6.6590 C.2   522  GLY522      0.2612
    164  O        -11.6090  -15.5160    7.1820 O.2   522  GLY522     -0.2717
    165  N        -13.2350  -13.9340    7.2820 N.am  523  HIS523     -0.1961
    166  CA       -13.6980  -14.2480    8.6450 C.3   523  HIS523      0.1787
    167  C        -14.4600  -15.5610    8.7680 C.2   523  HIS523      0.2620
    168  O        -14.2730  -16.2760    9.7550 O.2   523  HIS523     -0.2715
    169  CB       -14.5340  -13.0950    9.2220 C.3   523  HIS523      0.0785
    170  CG       -15.0370  -13.3510   10.6120 C.ar  523  HIS523      0.0821
    171  ND1      -14.1900  -13.2940   11.7070 N.ar  523  HIS523     -0.2267
    172  CD2      -16.2770  -13.6960   11.0330 C.ar  523  HIS523      0.1154
    173  CE1      -14.9430  -13.6110   12.7510 C.ar  523  HIS523      0.1986
    174  NE2      -16.2060  -13.8550   12.3900 N.ar  523  HIS523     -0.2212
    175  N        -15.3430  -15.8630    7.7950 N.am  524  TRP524     -0.1974
    176  CA       -16.2160  -17.0310    7.7680 C.3   524  TRP524      0.1640
    177  C        -15.4940  -18.2400    7.2120 C.2   524  TRP524      0.2290
    178  O        -15.9780  -18.9140    6.3000 O.2   524  TRP524     -0.2864
    179  CB       -17.5020  -16.6990    7.0050 C.3   524  TRP524      0.0576
    180  CG       -17.9740  -15.2950    7.2700 C.ar  524  TRP524      0.0006
    181  CD1      -17.7320  -14.1920    6.5010 C.ar  524  TRP524      0.0946
    182  CD2      -18.6070  -14.8160    8.4720 C.ar  524  TRP524      0.0152
    183  NE1      -18.2090  -13.0610    7.1280 N.ar  524  TRP524     -0.2442
    184  CE2      -18.7590  -13.4140    8.3360 C.ar  524  TRP524      0.0810
    185  CE3      -19.0930  -15.4390    9.6340 C.ar  524  TRP524      0.0012
    186  CZ2      -19.4220  -12.6350    9.2960 C.ar  524  TRP524      0.0191
    187  CZ3      -19.7130  -14.6630   10.6000 C.ar  524  TRP524      0.0001
    188  CH2      -19.8620  -13.2730   10.4350 C.ar  524  TRP524      0.0015
@<TRIPOS>BOND
     1   134   133    1
     2   133   132    1
     3   132   131    1
     4   131   130    1
     5   130   127    1
     6    66    67    1
     7   153   152   ar
     8   153   151   ar
     9   152   150   ar
    10   161   162    1
    11   127   126    1
    12   127   128    1
    13   151   149   ar
    14   162   163    1
    15    67    68    1
    16    67    70    1
    17   150   148   ar
    18    69    68    2
    19    68    74   am
    20   129   128    2
    21    58    59    1
    22   128   135   am
    23    74    75    1
    24    60    61    2
    25    60    59    1
    26   106   105    2
    27   178   177    2
    28   149   148   ar
    29    78    75    1
    30    78    79    1
    31   181   183   ar
    32   181   180   ar
    33    70    71    1
    34    71    73    1
    35    71    72    1
    36    75    76    1
    37   148   147    1
    38   163   164    2
    39   163   165   am
    40    59    62    1
    41   179   180    1
    42   179   176    1
    43   183   184   ar
    44   177   176    1
    45   180   182   ar
    46   165   166    1
    47   135   136    1
    48   105   104    1
    49   109   111   ar
    50   109   108   ar
    51   176   175    1
    52   175   167   am
    53   111   113   ar
    54    76    80   am
    55    76    77    2
    56   147   144    1
    57   107   104    1
    58   107   108    1
    59   104   103    1
    60    62    63    1
    61    80    81    1
    62   184   182   ar
    63   184   186   ar
    64   136   137    1
    65   136   139    1
    66   182   185   ar
    67   108   110   ar
    68   166   167    1
    69   166   169    1
    70   143   137   am
    71   143   144    1
    72   167   168    2
    73   137   138    2
    74    85    84    1
    75    85    86    1
    76   144   145    1
    77    63    65    1
    78    63    64    1
    79   169   170    1
    80   113   112   ar
    81   186   188   ar
    82    98    97    2
    83   139   140    1
    84   103    97   am
    85    84    81    1
    86   185   187   ar
    87    81    82    1
    88   110   112   ar
    89    97    96    1
    90    86    87    1
    91   188   187   ar
    92    82    83    2
    93   140   141   ar
    94   140   142   ar
    95   145   146    2
    96   145   154   am
    97   170   172   ar
    98   170   171   ar
    99   172   174   ar
   100   154   155    1
   101    96    95    1
   102    96    99    1
   103   171   173   ar
   104    53    52    2
   105    93    92    1
   106   160   158    1
   107    99   100    1
   108   174   173   ar
   109   155   158    1
   110   155   156    1
   111    57    55    1
   112    52    51    1
   113    15    14    2
   114   158   159    1
   115    18    17    1
   116    18    12    1
   117    51    50    1
   118    51    54    1
   119    88    89    1
   120    89    92    1
   121    89    90    1
   122    17    16    1
   123    92    94    1
   124   156   157    2
   125   100   102    1
   126   100   101    1
   127    91    90    2
   128    55    54    1
   129    55    56    1
   130    14    13    1
   131    12    13    1
   132    12     3   am
   133     4     3    2
   134    16    13    1
   135     3     2    1
   136    33    35   ar
   137    33    32   ar
   138    31    32    1
   139    31    28    1
   140    35    37   ar
   141    32    34   ar
   142    25    24   ar
   143    23    24    1
   144    23    20    1
   145    37    38    1
   146    37    36   ar
   147    34    36   ar
   148     9     7   ar
   149     9    11   ar
   150    24    26   ar
   151    19    20    1
   152     7     6   ar
   153     2     1    1
   154     2     5    1
   155    28    27    1
   156    28    29    1
   157    49    47   ar
   158    49    48   ar
   159    20    21    1
   160    47    45   ar
   161    11    10   ar
   162     6     5    1
   163     6     8   ar
   164    48    46   ar
   165   125   124    1
   166    29    30    2
   167    10     8   ar
   168    45    44   ar
   169    21    22    2
   170    46    44   ar
   171   124   123   ar
   172   124   122   ar
   173    44    43    1
   174   123   121   ar
   175   122   120   ar
   176    39    40    1
   177    43    40    1
   178   121   119   ar
   179    40    41    1
   180   120   119   ar
   181   119   118    1
   182    41    42    2
   183   118   115    1
   184   115   114    1
   185   115   116    1
   186   116   117    2
