@<TRIPOS>MOLECULE
tmp/5alxA00.pdb
 181 178 0 0 0
SMALL
GASTEIGER

@<TRIPOS>ATOM
      1  N         20.3060   15.6430   16.1470 N.3   266  PHE266     -0.1228
      2  CA        21.3600   14.6550   16.0040 C.3   266  PHE266      0.1721
      3  C         21.5440   14.1310   14.5870 C.2   266  PHE266      0.2437
      4  O         20.5770   13.6200   14.0320 O.2   266  PHE266     -0.2733
      5  CB        21.1210   13.4850   16.9810 C.3   266  PHE266      0.0547
      6  CG        22.1170   12.3580   16.8200 C.ar  266  PHE266     -0.0202
      7  CD1       21.9140   11.3580   15.8650 C.ar  266  PHE266     -0.0042
      8  CD2       23.2570   12.2960   17.6200 C.ar  266  PHE266     -0.0042
      9  CE1       22.8580   10.3520   15.6760 C.ar  266  PHE266     -0.0003
     10  CE2       24.1910   11.2760   17.4490 C.ar  266  PHE266     -0.0003
     11  CZ        23.9830   10.3050   16.4820 C.ar  266  PHE266     -0.0000
     12  N         22.7900   14.0790   14.0520 N.am  267  PRO267     -0.2729
     13  CA        24.0660   14.5820   14.5930 C.3   267  PRO267      0.1401
     14  C         24.4030   15.8480   13.8080 C.2   267  PRO267      0.2269
     15  O         24.9660   15.7960   12.7090 O.2   267  PRO267     -0.2865
     16  CB        25.0310   13.4250   14.2720 C.3   267  PRO267      0.0296
     17  CG        24.3990   12.7100   13.0410 C.3   267  PRO267      0.0237
     18  CD        23.0490   13.3840   12.7810 C.3   267  PRO267      0.0939
     19  N         14.4900   17.7530   15.9950 N.3   334  ASP334     -0.1239
     20  CA        14.9500   16.4370   16.4350 C.3   334  ASP334      0.1674
     21  C         15.2350   16.4890   17.9480 C.2   334  ASP334      0.2266
     22  O         14.3140   16.8110   18.6940 O.2   334  ASP334     -0.2867
     23  CB        16.1330   15.9460   15.5510 C.3   334  ASP334      0.1410
     24  CG        16.6270   14.5660   15.9080 C.2   334  ASP334      0.3668
     25  OD1       15.9500   13.5910   15.5490 O.co2 334  ASP334     -0.2456
     26  OD2       17.6080   14.4720   16.6800 O.co2 334  ASP334     -0.2456
     27  N         16.9710    2.0540   16.0420 N.3   382  TYR382     -0.1241
     28  CA        18.2370    2.7810   15.9400 C.3   382  TYR382      0.1605
     29  C         18.6580    3.3770   17.2840 C.2   382  TYR382      0.2264
     30  O         19.8470    3.4390   17.5710 O.2   382  TYR382     -0.2867
     31  CB        18.2080    3.8320   14.8030 C.3   382  TYR382      0.0534
     32  CG        17.5070    5.1220   15.1720 C.ar  382  TYR382     -0.0201
     33  CD1       16.1340    5.2640   15.0070 C.ar  382  TYR382     -0.0009
     34  CD2       18.2110    6.1890   15.7190 C.ar  382  TYR382     -0.0009
     35  CE1       15.4830    6.4330   15.3810 C.ar  382  TYR382      0.0417
     36  CE2       17.5690    7.3590   16.1030 C.ar  382  TYR382      0.0417
     37  CZ        16.2070    7.4810   15.9200 C.ar  382  TYR382      0.1957
     38  OH        15.5730    8.6360   16.2850 O.3   382  TYR382     -0.2866
     39  N         22.1720    2.7440   19.6820 N.3   386  PHE386     -0.1241
     40  CA        22.8980    3.8680   20.2670 C.3   386  PHE386      0.1605
     41  C         23.1620    3.7240   21.7480 C.2   386  PHE386      0.2264
     42  O         23.8900    4.5470   22.2990 O.2   386  PHE386     -0.2867
     43  CB        22.0830    5.1540   20.0630 C.3   386  PHE386      0.0534
     44  CG        22.0140    5.6840   18.6600 C.ar  386  PHE386     -0.0203
     45  CD1       22.7510    5.0920   17.6390 C.ar  386  PHE386     -0.0042
     46  CD2       21.2340    6.7950   18.3630 C.ar  386  PHE386     -0.0042
     47  CE1       22.7170    5.6000   16.3520 C.ar  386  PHE386     -0.0003
     48  CE2       21.2050    7.3160   17.0760 C.ar  386  PHE386     -0.0003
     49  CZ        21.9480    6.7150   16.0740 C.ar  386  PHE386     -0.0000
     50  N         25.5790    9.5850    3.8740 N.3   406  SER406     -0.1202
     51  CA        24.6050    8.5100    4.0760 C.3   406  SER406      0.2020
     52  C         23.3700    9.0340    4.8020 C.2   406  SER406      0.2618
     53  O         22.2590    8.7130    4.4020 O.2   406  SER406     -0.2717
     54  CB        25.2060    7.3680    4.8910 C.3   406  SER406      0.2103
     55  OG        26.3820    6.8060    4.3280 O.3   406  SER406     -0.2182
     56  N         23.5650    9.8370    5.8750 N.am  407  LEU407     -0.1979
     57  CA        22.4730   10.4000    6.6670 C.3   407  LEU407      0.1596
     58  C         21.7110   11.5230    5.9860 C.2   407  LEU407      0.2287
     59  O         20.4890   11.4960    5.9560 O.2   407  LEU407     -0.2864
     60  CB        22.9910   10.9120    8.0180 C.3   407  LEU407      0.0297
     61  CG        23.4420    9.8900    9.0470 C.3   407  LEU407      0.0022
     62  CD1       24.1250   10.5850   10.1890 C.3   407  LEU407      0.0001
     63  CD2       22.2860    9.0340    9.5440 C.3   407  LEU407      0.0001
     64  N         20.0820   12.9660    3.4450 N.3   409  ARG409     -0.1245
     65  CA        19.4750   12.7200    2.1340 C.3   409  ARG409      0.1563
     66  C         17.9910   13.0430    2.1490 C.2   409  ARG409      0.2260
     67  O         17.3620   12.9780    3.2030 O.2   409  ARG409     -0.2867
     68  CB        19.6750   11.2480    1.7140 C.3   409  ARG409      0.0307
     69  CG        21.0840   10.7130    1.9750 C.3   409  ARG409      0.0489
     70  CD        21.3170    9.3350    1.3970 C.3   409  ARG409      0.2205
     71  NE        21.2160    9.3530   -0.0680 N.pl3 409  ARG409     -0.0865
     72  CZ        22.2260    9.6360   -0.8820 C.cat 409  ARG409      0.5346
     73  NH1       23.4260    9.9060   -0.3980 N.pl3 409  ARG409      0.1354
     74  NH2       22.0400    9.6490   -2.1950 N.pl3 409  ARG409      0.1354
     75  N         16.8160    7.7670    0.1580 N.3   414  SER414     -0.1202
     76  CA        17.2020    6.8740    1.2340 C.3   414  SER414      0.2020
     77  C         18.1040    5.7230    0.8380 C.2   414  SER414      0.2619
     78  O         18.0030    5.1690   -0.2560 O.2   414  SER414     -0.2717
     79  CB        16.0080    6.4620    2.0810 C.3   414  SER414      0.2103
     80  OG        15.6210    7.5780    2.8700 O.3   414  SER414     -0.2182
     81  N         19.0890    5.4910    1.6950 N.am  415  VAL415     -0.1965
     82  CA        20.1480    4.5190    1.5230 C.3   415  VAL415      0.1727
     83  C         20.2680    3.6660    2.7900 C.2   415  VAL415      0.2616
     84  O         20.9040    2.6080    2.7940 O.2   415  VAL415     -0.2715
     85  CB        21.4360    5.3310    1.1650 C.3   415  VAL415      0.0290
     86  CG1       22.3900    5.5200    2.3540 C.3   415  VAL415      0.0023
     87  CG2       22.1550    4.7310   -0.0280 C.3   415  VAL415      0.0023
     88  N         19.6180    4.1410    3.8570 N.am  416  LEU416     -0.1977
     89  CA        19.6010    3.5160    5.1660 C.3   416  LEU416      0.1596
     90  C         18.2650    2.9150    5.4680 C.2   416  LEU416      0.2287
     91  O         17.2320    3.5750    5.3070 O.2   416  LEU416     -0.2864
     92  CB        19.9590    4.5260    6.2670 C.3   416  LEU416      0.0297
     93  CG        21.3670    5.0720    6.2540 C.3   416  LEU416      0.0022
     94  CD1       21.6210    5.9050    7.4730 C.3   416  LEU416      0.0001
     95  CD2       22.3800    3.9610    6.1380 C.3   416  LEU416      0.0001
     96  N         17.2400    1.6640    8.6740 N.3   418  MET418     -0.1245
     97  CA        16.8650    2.2530    9.9720 C.3   418  MET418      0.1570
     98  C         15.9560    1.3350   10.7930 C.2   418  MET418      0.2261
     99  O         15.5990    1.6730   11.9160 O.2   418  MET418     -0.2867
    100  CB        16.2400    3.6470    9.8370 C.3   418  MET418      0.0387
    101  CG        17.2030    4.6790    9.4280 C.3   418  MET418      0.0595
    102  SD        17.5320    5.6540   10.8830 S.3   418  MET418     -0.1393
    103  CE        18.0060    6.9560   10.1730 C.3   418  MET418      0.0692
    104  N         24.1320    0.9480   11.1950 N.3   427  LEU427     -0.1245
    105  CA        23.3040    1.8260   10.3900 C.3   427  LEU427      0.1561
    106  C         23.6710    1.7400    8.9310 C.2   427  LEU427      0.2260
    107  O         22.7950    1.9350    8.1020 O.2   427  LEU427     -0.2867
    108  CB        23.4790    3.2840   10.8420 C.3   427  LEU427      0.0270
    109  CG        22.5420    3.7900   11.9150 C.3   427  LEU427      0.0019
    110  CD1       23.0510    5.0920   12.4790 C.3   427  LEU427      0.0001
    111  CD2       21.1190    3.9640   11.3760 C.3   427  LEU427      0.0001
    112  N         20.8820   10.2890   23.7050 N.3   465  TYR465     -0.1241
    113  CA        19.9870    9.1110   23.6570 C.3   465  TYR465      0.1605
    114  C         20.2160    8.1770   24.8310 C.2   465  TYR465      0.2264
    115  O         19.4780    7.2070   24.9970 O.2   465  TYR465     -0.2867
    116  CB        20.2820    8.2830   22.4010 C.3   465  TYR465      0.0534
    117  CG        19.9340    8.9470   21.0950 C.ar  465  TYR465     -0.0201
    118  CD1       18.6730    8.8040   20.5330 C.ar  465  TYR465     -0.0009
    119  CD2       20.8940    9.6490   20.3740 C.ar  465  TYR465     -0.0009
    120  CE1       18.3710    9.3540   19.2930 C.ar  465  TYR465      0.0417
    121  CE2       20.5950   10.2240   19.1480 C.ar  465  TYR465      0.0417
    122  CZ        19.3390   10.0600   18.6080 C.ar  465  TYR465      0.1957
    123  OH        19.0450   10.6190   17.4110 O.3   465  TYR465     -0.2866
    124  N          8.8840   12.2320    7.1530 N.3   495  ASP495     -0.1225
    125  CA         9.8400   11.8590    8.1860 C.3   495  ASP495      0.1805
    126  C          9.3280   10.5020    8.6680 C.2   495  ASP495      0.2598
    127  O          8.2890   10.4460    9.3080 O.2   495  ASP495     -0.2718
    128  CB         9.9360   12.8830    9.3470 C.3   495  ASP495      0.1424
    129  CG        11.0440   12.5750   10.3520 C.2   495  ASP495      0.3668
    130  OD1       11.4340   11.3930   10.4660 O.co2 495  ASP495     -0.2456
    131  OD2       11.5060   13.5120   11.0290 O.co2 495  ASP495     -0.2456
    132  N         10.0250    9.4130    8.2960 N.am  496  PHE496     -0.1962
    133  CA         9.5970    8.0600    8.6500 C.3   496  PHE496      0.1771
    134  C          9.9230    7.6030   10.0640 C.2   496  PHE496      0.2619
    135  O          9.5550    6.4960   10.4430 O.2   496  PHE496     -0.2715
    136  CB         9.9620    7.0310    7.5630 C.3   496  PHE496      0.0574
    137  CG         9.4470    7.4280    6.2020 C.ar  496  PHE496     -0.0200
    138  CD1        8.0960    7.7130    6.0070 C.ar  496  PHE496     -0.0042
    139  CD2       10.3170    7.5580    5.1250 C.ar  496  PHE496     -0.0042
    140  CE1        7.6240    8.1050    4.7580 C.ar  496  PHE496     -0.0003
    141  CE2        9.8460    7.9430    3.8710 C.ar  496  PHE496     -0.0003
    142  CZ         8.5040    8.2160    3.6960 C.ar  496  PHE496     -0.0000
    143  N         10.5680    8.4660   10.8620 N.am  497  VAL497     -0.1963
    144  CA        10.8790    8.1880   12.2670 C.3   497  VAL497      0.1727
    145  C          9.9990    9.0950   13.1470 C.2   497  VAL497      0.2616
    146  O          9.2860    8.6050   14.0250 O.2   497  VAL497     -0.2715
    147  CB        12.4030    8.3150   12.5570 C.3   497  VAL497      0.0290
    148  CG1       12.7020    8.4080   14.0490 C.3   497  VAL497      0.0023
    149  CG2       13.1740    7.1580   11.9290 C.3   497  VAL497      0.0023
    150  N          9.9990   10.4080   12.8560 N.am  498  LEU498     -0.1977
    151  CA         9.1640   11.3590   13.5860 C.3   498  LEU498      0.1596
    152  C          8.0030   11.6720   12.6830 C.2   498  LEU498      0.2287
    153  O          7.9510   12.7300   12.0480 O.2   498  LEU498     -0.2864
    154  CB         9.9430   12.6330   13.9730 C.3   498  LEU498      0.0297
    155  CG        11.2740   12.4520   14.7440 C.3   498  LEU498      0.0022
    156  CD1       11.9210   13.7870   14.9990 C.3   498  LEU498      0.0001
    157  CD2       11.0780   11.7320   16.0680 C.3   498  LEU498      0.0001
    158  N         13.3900   13.9040    7.1000 N.3   523  HIS523     -0.1226
    159  CA        13.7700   14.2060    8.4830 C.3   523  HIS523      0.1752
    160  C         14.6230   15.4830    8.6580 C.2   523  HIS523      0.2596
    161  O         14.5000   16.1460    9.6840 O.2   523  HIS523     -0.2718
    162  CB        14.4730   13.0050    9.1250 C.3   523  HIS523      0.0759
    163  CG        14.9690   13.2880   10.5130 C.ar  523  HIS523      0.0818
    164  ND1       16.2910   13.6210   10.7470 N.ar  523  HIS523     -0.2268
    165  CD2       14.2880   13.3660   11.6770 C.ar  523  HIS523      0.1154
    166  CE1       16.3780   13.8530   12.0370 C.ar  523  HIS523      0.1986
    167  NE2       15.2020   13.7140   12.6410 N.ar  523  HIS523     -0.2212
    168  N         15.5040   15.7940    7.6830 N.am  524  TRP524     -0.1976
    169  CA        16.4150   16.9500    7.6940 C.3   524  TRP524      0.1640
    170  C         15.6780   18.1570    7.1460 C.2   524  TRP524      0.2290
    171  O         16.1020   18.7590    6.1650 O.2   524  TRP524     -0.2864
    172  CB        17.6960   16.6450    6.8860 C.3   524  TRP524      0.0576
    173  CG        18.2160   15.2660    7.1580 C.ar  524  TRP524      0.0006
    174  CD1       18.0150   14.1560    6.3890 C.ar  524  TRP524      0.0946
    175  CD2       18.8360   14.8080    8.3680 C.ar  524  TRP524      0.0152
    176  NE1       18.5080   13.0430    7.0240 N.ar  524  TRP524     -0.2442
    177  CE2       19.0540   13.4180    8.2230 C.ar  524  TRP524      0.0810
    178  CE3       19.2630   15.4420    9.5470 C.ar  524  TRP524      0.0012
    179  CZ2       19.6810   12.6530    9.2010 C.ar  524  TRP524      0.0191
    180  CZ3       19.8830   14.6750   10.5200 C.ar  524  TRP524      0.0001
    181  CH2       20.0900   13.2980   10.3380 C.ar  524  TRP524      0.0015
@<TRIPOS>BOND
     1    74    72    1
     2    72    73    1
     3    72    71    2
     4    78    77    2
     5    71    70    1
     6    87    85    1
     7    75    76    1
     8    77    76    1
     9    77    81   am
    10    85    82    1
    11    85    86    1
    12    76    79    1
    13    70    69    1
    14    82    81    1
    15    82    83    1
    16    68    69    1
    17    68    65    1
    18    79    80    1
    19    65    66    1
    20    65    64    1
    21    66    67    2
    22    83    84    2
    23    83    88   am
    24   142   141   ar
    25   142   140   ar
    26    88    89    1
    27   141   139   ar
    28    50    51    1
    29    51    52    1
    30    51    54    1
    31    55    54    1
    32    53    52    2
    33   140   138   ar
    34    52    56   am
    35   139   137   ar
    36    89    90    1
    37    89    92    1
    38    91    90    2
    39    56    57    1
    40    59    58    2
    41    58    57    1
    42   138   137   ar
    43    95    93    1
    44   171   170    2
    45   137   136    1
    46    93    92    1
    47    93    94    1
    48   174   176   ar
    49   174   173   ar
    50    57    60    1
    51   172   173    1
    52   172   169    1
    53   176   177   ar
    54   158   159    1
    55   170   169    1
    56   124   125    1
    57   173   175   ar
    58   136   133    1
    59   168   169    1
    60   168   160   am
    61    60    61    1
    62   107   106    2
    63   125   126    1
    64   125   128    1
    65   177   175   ar
    66   177   179   ar
    67   132   133    1
    68   132   126   am
    69   175   178   ar
    70   159   160    1
    71   159   162    1
    72   133   134    1
    73   160   161    2
    74   126   127    2
    75    96    97    1
    76   106   105    1
    77    61    63    1
    78    61    62    1
    79   162   163    1
    80   179   181   ar
    81   128   129    1
    82   101   100    1
    83   101   102    1
    84   178   180   ar
    85   100    97    1
    86    97    98    1
    87   134   135    2
    88   134   143   am
    89   103   102    1
    90   181   180   ar
    91   129   130   ar
    92   129   131   ar
    93   105   108    1
    94   105   104    1
    95   163   164   ar
    96   163   165   ar
    97   164   166   ar
    98    98    99    2
    99   108   109    1
   100   143   144    1
   101   111   109    1
   102   165   167   ar
   103   109   110    1
   104   149   147    1
   105   166   167   ar
   106   153   152    2
   107   144   147    1
   108   144   145    1
   109   147   148    1
   110   152   151    1
   111    15    14    2
   112    18    17    1
   113    18    12    1
   114   150   145   am
   115   150   151    1
   116    17    16    1
   117   145   146    2
   118   151   154    1
   119    14    13    1
   120   154   155    1
   121     4     3    2
   122    12     3   am
   123    12    13    1
   124    16    13    1
   125     3     2    1
   126   155   156    1
   127   155   157    1
   128    31    32    1
   129    31    28    1
   130    33    32   ar
   131    33    35   ar
   132    32    34   ar
   133    35    37   ar
   134    25    24   ar
   135    23    24    1
   136    23    20    1
   137     9     7   ar
   138     9    11   ar
   139    34    36   ar
   140     7     6   ar
   141    24    26   ar
   142    37    36   ar
   143    37    38    1
   144    28    27    1
   145    28    29    1
   146    19    20    1
   147     2     1    1
   148     2     5    1
   149    49    47   ar
   150    49    48   ar
   151    47    45   ar
   152    20    21    1
   153    11    10   ar
   154     6     5    1
   155     6     8   ar
   156    48    46   ar
   157    29    30    2
   158   123   122    1
   159    10     8   ar
   160    45    44   ar
   161    21    22    2
   162    46    44   ar
   163   122   121   ar
   164   122   120   ar
   165    44    43    1
   166   121   119   ar
   167   120   118   ar
   168    39    40    1
   169    43    40    1
   170    40    41    1
   171   119   117   ar
   172   118   117   ar
   173   117   116    1
   174    41    42    2
   175   116   113    1
   176   113   112    1
   177   113   114    1
   178   114   115    2
