@<TRIPOS>MOLECULE
tmp/5alyA00.pdb
 191 185 0 0 0
SMALL
GASTEIGER

@<TRIPOS>ATOM
      1  N         20.0220   15.5040   16.2680 N.3   266  PHE266     -0.1228
      2  CA        21.0930   14.5310   16.1420 C.3   266  PHE266      0.1721
      3  C         21.2010   13.9840   14.7110 C.2   266  PHE266      0.2437
      4  O         20.1900   13.5430   14.1590 O.2   266  PHE266     -0.2733
      5  CB        20.8540   13.3740   17.1360 C.3   266  PHE266      0.0547
      6  CG        21.8580   12.2440   16.9950 C.ar  266  PHE266     -0.0202
      7  CD1       21.6950   11.2620   16.0180 C.ar  266  PHE266     -0.0042
      8  CD2       22.9890   12.1920   17.8010 C.ar  266  PHE266     -0.0042
      9  CE1       22.6520   10.2510   15.8500 C.ar  266  PHE266     -0.0003
     10  CE2       23.9410   11.1720   17.6400 C.ar  266  PHE266     -0.0003
     11  CZ        23.7590   10.2050   16.6700 C.ar  266  PHE266     -0.0000
     12  N         22.4170   13.9050   14.1270 N.am  267  PRO267     -0.2729
     13  CA        23.7350   14.3550   14.6330 C.3   267  PRO267      0.1401
     14  C         24.0810   15.5980   13.8260 C.2   267  PRO267      0.2269
     15  O         24.6460   15.5120   12.7290 O.2   267  PRO267     -0.2865
     16  CB        24.6340   13.1720   14.2650 C.3   267  PRO267      0.0296
     17  CG        23.9810   12.5760   12.9680 C.3   267  PRO267      0.0237
     18  CD        22.5920   13.2140   12.8290 C.3   267  PRO267      0.0939
     19  N         14.1280   17.6100   15.9770 N.3   334  ASP334     -0.1239
     20  CA        14.5560   16.2690   16.4380 C.3   334  ASP334      0.1674
     21  C         14.8810   16.3280   17.9580 C.2   334  ASP334      0.2266
     22  O         13.9970   16.7100   18.7150 O.2   334  ASP334     -0.2867
     23  CB        15.7110   15.7480   15.5340 C.3   334  ASP334      0.1410
     24  CG        16.3050   14.4060   15.9390 C.2   334  ASP334      0.3668
     25  OD1       15.7920   13.3810   15.4920 O.co2 334  ASP334     -0.2456
     26  OD2       17.3200   14.4020   16.6810 O.co2 334  ASP334     -0.2456
     27  N         16.8590    2.0430   15.7890 N.3   382  TYR382     -0.1241
     28  CA        18.1370    2.7700   15.7380 C.3   382  TYR382      0.1605
     29  C         18.4860    3.3300   17.1270 C.2   382  TYR382      0.2264
     30  O         19.6480    3.3100   17.5010 O.2   382  TYR382     -0.2867
     31  CB        18.1220    3.8700   14.6550 C.3   382  TYR382      0.0534
     32  CG        17.3430    5.1250   15.0060 C.ar  382  TYR382     -0.0201
     33  CD1       15.9490    5.1330   14.9830 C.ar  382  TYR382     -0.0009
     34  CD2       17.9990    6.3150   15.3130 C.ar  382  TYR382     -0.0009
     35  CE1       15.2300    6.2890   15.2850 C.ar  382  TYR382      0.0417
     36  CE2       17.2920    7.4710   15.6330 C.ar  382  TYR382      0.0417
     37  CZ        15.9070    7.4600   15.6010 C.ar  382  TYR382      0.1957
     38  OH        15.2110    8.6040   15.9010 O.3   382  TYR382     -0.2866
     39  N         21.7650    2.6320   19.6310 N.3   386  PHE386     -0.1241
     40  CA        22.5280    3.7360   20.2030 C.3   386  PHE386      0.1605
     41  C         22.7780    3.5630   21.6920 C.2   386  PHE386      0.2264
     42  O         23.5550    4.3330   22.2500 O.2   386  PHE386     -0.2867
     43  CB        21.7860    5.0650   19.9720 C.3   386  PHE386      0.0534
     44  CG        21.7670    5.5920   18.5630 C.ar  386  PHE386     -0.0203
     45  CD1       22.5270    4.9890   17.5600 C.ar  386  PHE386     -0.0042
     46  CD2       21.0280    6.7220   18.2400 C.ar  386  PHE386     -0.0042
     47  CE1       22.5310    5.5000   16.2610 C.ar  386  PHE386     -0.0003
     48  CE2       21.0350    7.2300   16.9440 C.ar  386  PHE386     -0.0003
     49  CZ        21.8000    6.6250   15.9670 C.ar  386  PHE386     -0.0000
     50  N         29.8350    5.2250   13.3320 N.3   396  LEU396     -0.1245
     51  CA        29.6140    6.5980   12.8570 C.3   396  LEU396      0.1561
     52  C         30.8890    7.4160   12.6370 C.2   396  LEU396      0.2260
     53  O         30.9160    8.2350   11.7170 O.2   396  LEU396     -0.2867
     54  CB        28.6060    7.3460   13.7660 C.3   396  LEU396      0.0270
     55  CG        27.1850    6.7590   13.8290 C.3   396  LEU396      0.0019
     56  CD1       26.4130    7.3160   14.9970 C.3   396  LEU396      0.0001
     57  CD2       26.4270    6.9630   12.5410 C.3   396  LEU396      0.0001
     58  N         23.4480    9.8000    5.7980 N.3   407  LEU407     -0.1245
     59  CA        22.3420   10.3060    6.6320 C.3   407  LEU407      0.1561
     60  C         21.4780   11.3650    5.9920 C.2   407  LEU407      0.2260
     61  O         20.2420   11.2460    5.9960 O.2   407  LEU407     -0.2867
     62  CB        22.8800   10.8430    7.9660 C.3   407  LEU407      0.0270
     63  CG        23.4270    9.8370    8.9540 C.3   407  LEU407      0.0019
     64  CD1       23.8550   10.5320   10.2180 C.3   407  LEU407      0.0001
     65  CD2       22.4430    8.7630    9.2490 C.3   407  LEU407      0.0001
     66  N         19.9700   12.7260    3.3570 N.3   409  ARG409     -0.1245
     67  CA        19.3770   12.3960    2.0580 C.3   409  ARG409      0.1563
     68  C         17.8890   12.6390    2.1340 C.2   409  ARG409      0.2260
     69  O         17.3330   12.5610    3.2280 O.2   409  ARG409     -0.2867
     70  CB        19.6150   10.9030    1.7330 C.3   409  ARG409      0.0307
     71  CG        21.0580   10.4510    1.8940 C.3   409  ARG409      0.0489
     72  CD        21.3240    9.0680    1.3420 C.3   409  ARG409      0.2205
     73  NE        21.3060    9.0320   -0.1230 N.pl3 409  ARG409     -0.0865
     74  CZ        22.3180    9.4020   -0.9000 C.cat 409  ARG409      0.5346
     75  NH1       23.4420    9.8670   -0.3650 N.pl3 409  ARG409      0.1354
     76  NH2       22.2090    9.3290   -2.2180 N.pl3 409  ARG409      0.1354
     77  N         13.7300   11.8870    1.4310 N.3   411  SER411     -0.1217
     78  CA        12.8640   10.7220    1.7000 C.3   411  SER411      0.1889
     79  C         12.9020    9.5940    0.6460 C.2   411  SER411      0.2288
     80  O         12.6890    8.4320    1.0010 O.2   411  SER411     -0.2866
     81  CB        11.4250   11.1460    1.9880 C.3   411  SER411      0.2089
     82  OG        10.8070   11.7680    0.8750 O.3   411  SER411     -0.2183
     83  N         16.9480    7.3390    0.3710 N.3   414  SER414     -0.1217
     84  CA        17.3610    6.4480    1.4560 C.3   414  SER414      0.1889
     85  C         18.2630    5.3250    0.9720 C.2   414  SER414      0.2288
     86  O         17.9590    4.6720   -0.0350 O.2   414  SER414     -0.2866
     87  CB        16.1390    5.8690    2.1660 C.3   414  SER414      0.2089
     88  OG        16.4720    4.7760    3.0110 O.3   414  SER414     -0.2183
     89  N         19.6580    3.6010    3.6150 N.3   416  LEU416     -0.1245
     90  CA        19.6470    3.1110    4.9730 C.3   416  LEU416      0.1561
     91  C         18.4100    2.3030    5.2850 C.2   416  LEU416      0.2260
     92  O         17.3070    2.6520    4.8560 O.2   416  LEU416     -0.2867
     93  CB        19.6670    4.3420    5.8800 C.3   416  LEU416      0.0270
     94  CG        20.6690    4.3310    6.9850 C.3   416  LEU416      0.0019
     95  CD1       21.8600    5.1920    6.6360 C.3   416  LEU416      0.0001
     96  CD2       20.0360    4.8350    8.2330 C.3   416  LEU416      0.0001
     97  N         16.0950    1.1180    8.3620 N.3   418  MET418     -0.1245
     98  CA        15.7860    1.4700    9.7480 C.3   418  MET418      0.1570
     99  C         15.2580    0.2970   10.5760 C.2   418  MET418      0.2261
    100  O         15.3930    0.3000   11.8040 O.2   418  MET418     -0.2867
    101  CB        14.9030    2.7220    9.8230 C.3   418  MET418      0.0387
    102  CG        15.6180    3.9740    9.3350 C.3   418  MET418      0.0595
    103  SD        17.0190    4.4810   10.3650 S.3   418  MET418     -0.1393
    104  CE        16.2070    5.4860   11.5080 C.3   418  MET418      0.0692
    105  N         23.8060    0.6220   11.1670 N.3   427  LEU427     -0.1245
    106  CA        23.0400    1.4430   10.2200 C.3   427  LEU427      0.1561
    107  C         23.5330    1.3260    8.7890 C.2   427  LEU427      0.2260
    108  O         22.7280    1.4750    7.8740 O.2   427  LEU427     -0.2867
    109  CB        23.1120    2.9480   10.6010 C.3   427  LEU427      0.0270
    110  CG        22.1160    3.5710   11.5950 C.3   427  LEU427      0.0019
    111  CD1       20.7090    3.0340   11.4640 C.3   427  LEU427      0.0001
    112  CD2       22.6250    3.5370   12.9860 C.3   427  LEU427      0.0001
    113  N         20.6120   10.1670   23.7460 N.3   465  TYR465     -0.1241
    114  CA        19.6860    9.0020   23.7390 C.3   465  TYR465      0.1605
    115  C         19.8940    8.0350   24.9120 C.2   465  TYR465      0.2264
    116  O         19.1290    7.0750   25.0480 O.2   465  TYR465     -0.2867
    117  CB        19.9160    8.1380   22.4890 C.3   465  TYR465      0.0534
    118  CG        19.5980    8.7970   21.1770 C.ar  465  TYR465     -0.0201
    119  CD1       20.5810    9.4810   20.4650 C.ar  465  TYR465     -0.0009
    120  CD2       18.3350    8.6760   20.6030 C.ar  465  TYR465     -0.0009
    121  CE1       20.2980   10.0880   19.2490 C.ar  465  TYR465      0.0417
    122  CE2       18.0570    9.2340   19.3510 C.ar  465  TYR465      0.0417
    123  CZ        19.0410    9.9510   18.6890 C.ar  465  TYR465      0.1957
    124  OH        18.7910   10.5560   17.4910 O.3   465  TYR465     -0.2866
    125  N          6.8680   12.9770    5.1200 N.3   494  LYS494     -0.1231
    126  CA         7.7350   11.8370    4.8690 C.3   494  LYS494      0.1693
    127  C          8.7960   11.5150    5.9300 C.2   494  LYS494      0.2592
    128  O          9.7690   10.7970    5.6520 O.2   494  LYS494     -0.2718
    129  CB         8.2400   11.8560    3.4120 C.3   494  LYS494      0.0285
    130  CG         7.0810   11.7490    2.4140 C.3   494  LYS494      0.0035
    131  CD         7.5110   11.8260    0.9670 C.3   494  LYS494      0.0206
    132  CE         6.3100   11.7450    0.0520 C.3   494  LYS494      0.1093
    133  NZ         6.6630   12.0460   -1.3640 N.3   494  LYS494     -0.1314
    134  N          8.6030   12.0090    7.1740 N.am  495  ASP495     -0.1960
    135  CA         9.5200   11.5790    8.2360 C.3   495  ASP495      0.1840
    136  C          8.9550   10.2190    8.6670 C.2   495  ASP495      0.2622
    137  O          7.8650   10.1770    9.2150 O.2   495  ASP495     -0.2715
    138  CB         9.6110   12.5730    9.4280 C.3   495  ASP495      0.1450
    139  CG        10.7010   12.2310   10.4260 C.2   495  ASP495      0.3671
    140  OD1       10.9390   11.0050   10.6720 O.co2 495  ASP495     -0.2456
    141  OD2       11.3280   13.1700   10.9660 O.co2 495  ASP495     -0.2456
    142  N          9.6700    9.1150    8.3790 N.am  496  PHE496     -0.1960
    143  CA         9.2030    7.7620    8.6920 C.3   496  PHE496      0.1771
    144  C          9.4150    7.2950   10.1180 C.2   496  PHE496      0.2619
    145  O          8.9520    6.2100   10.4790 O.2   496  PHE496     -0.2715
    146  CB         9.6520    6.7350    7.6300 C.3   496  PHE496      0.0574
    147  CG         9.2200    7.1490    6.2420 C.ar  496  PHE496     -0.0200
    148  CD1        7.8880    7.4560    5.9690 C.ar  496  PHE496     -0.0042
    149  CD2       10.1480    7.2710    5.2160 C.ar  496  PHE496     -0.0042
    150  CE1        7.4970    7.8940    4.7010 C.ar  496  PHE496     -0.0003
    151  CE2        9.7480    7.6910    3.9400 C.ar  496  PHE496     -0.0003
    152  CZ         8.4280    7.9970    3.6920 C.ar  496  PHE496     -0.0000
    153  N         10.0370    8.1470   10.9570 N.am  497  VAL497     -0.1963
    154  CA        10.2720    7.8190   12.3650 C.3   497  VAL497      0.1727
    155  C          9.3990    8.7510   13.2080 C.2   497  VAL497      0.2616
    156  O          8.5730    8.2790   13.9910 O.2   497  VAL497     -0.2715
    157  CB        11.7770    7.9170   12.7340 C.3   497  VAL497      0.0290
    158  CG1       11.9950    7.7280   14.2220 C.3   497  VAL497      0.0023
    159  CG2       12.6110    6.9060   11.9420 C.3   497  VAL497      0.0023
    160  N          9.5780   10.0730   13.0190 N.am  498  LEU498     -0.1977
    161  CA         8.8090   11.1310   13.6850 C.3   498  LEU498      0.1596
    162  C          7.6340   11.4870   12.7500 C.2   498  LEU498      0.2287
    163  O          7.5740   12.5710   12.1520 O.2   498  LEU498     -0.2864
    164  CB         9.7300   12.3490   14.0030 C.3   498  LEU498      0.0297
    165  CG        11.0090   12.0440   14.8320 C.3   498  LEU498      0.0022
    166  CD1       11.8660   13.3040   15.0020 C.3   498  LEU498      0.0001
    167  CD2       10.6700   11.4580   16.2040 C.3   498  LEU498      0.0001
    168  N         13.0990   13.6790    7.1290 N.3   523  HIS523     -0.1226
    169  CA        13.5270   14.0030    8.4940 C.3   523  HIS523      0.1752
    170  C         14.3530   15.2930    8.6320 C.2   523  HIS523      0.2596
    171  O         14.2730   15.9500    9.6700 O.2   523  HIS523     -0.2718
    172  CB        14.2880   12.8140    9.1070 C.3   523  HIS523      0.0759
    173  CG        14.8630   13.1080   10.4540 C.ar  523  HIS523      0.0818
    174  ND1       14.0530   13.2180   11.5760 N.ar  523  HIS523     -0.2268
    175  CD2       16.1410   13.3870   10.8090 C.ar  523  HIS523      0.1154
    176  CE1       14.8660   13.5250   12.5720 C.ar  523  HIS523      0.1986
    177  NE2       16.1300   13.6340   12.1620 N.ar  523  HIS523     -0.2212
    178  N         15.2060   15.6060    7.6370 N.am  524  TRP524     -0.1976
    179  CA        16.1620   16.7300    7.6830 C.3   524  TRP524      0.1640
    180  C         15.4870   17.9830    7.1720 C.2   524  TRP524      0.2290
    181  O         15.9040   18.5770    6.1850 O.2   524  TRP524     -0.2864
    182  CB        17.4390   16.3480    6.9110 C.3   524  TRP524      0.0576
    183  CG        17.8790   14.9250    7.1680 C.ar  524  TRP524      0.0006
    184  CD1       17.6250   13.8340    6.3840 C.ar  524  TRP524      0.0946
    185  CD2       18.5150   14.4270    8.3560 C.ar  524  TRP524      0.0152
    186  NE1       18.0700   12.6910    7.0060 N.ar  524  TRP524     -0.2442
    187  CE2       18.6510   13.0290    8.2050 C.ar  524  TRP524      0.0810
    188  CE3       19.0060   15.0350    9.5280 C.ar  524  TRP524      0.0012
    189  CZ2       19.2680   12.2230    9.1780 C.ar  524  TRP524      0.0191
    190  CZ3       19.6070   14.2400   10.4930 C.ar  524  TRP524      0.0001
    191  CH2       19.7200   12.8460   10.3220 C.ar  524  TRP524      0.0015
@<TRIPOS>BOND
     1    76    74    1
     2   133   132    1
     3    74    75    1
     4    74    73    2
     5    73    72    1
     6    86    85    2
     7   132   131    1
     8    83    84    1
     9    79    80    2
    10    79    78    1
    11    82    81    1
    12   131   130    1
    13    85    84    1
    14    72    71    1
    15    77    78    1
    16    84    87    1
    17    78    81    1
    18    70    71    1
    19    70    67    1
    20    67    68    1
    21    67    66    1
    22    68    69    2
    23    87    88    1
    24   130   129    1
    25   129   126    1
    26    89    90    1
    27   152   151   ar
    28   152   150   ar
    29   151   149   ar
    30   150   148   ar
    31    92    91    2
    32   126   125    1
    33   126   127    1
    34    90    91    1
    35    90    93    1
    36   149   147   ar
    37   128   127    2
    38    58    59    1
    39    93    94    1
    40   127   134   am
    41   148   147   ar
    42    60    61    2
    43    60    59    1
    44   181   180    2
    45   147   146    1
    46   184   186   ar
    47   184   183   ar
    48    59    62    1
    49    95    94    1
    50   182   183    1
    51   182   179    1
    52    94    96    1
    53   186   187   ar
    54   168   169    1
    55   183   185   ar
    56   180   179    1
    57   134   135    1
    58   146   143    1
    59   178   179    1
    60   178   170   am
    61   108   107    2
    62    62    63    1
    63   187   185   ar
    64   187   189   ar
    65   135   136    1
    66   135   138    1
    67   185   188   ar
    68    97    98    1
    69   142   136   am
    70   142   143    1
    71   169   170    1
    72   169   172    1
    73   170   171    2
    74   136   137    2
    75   143   144    1
    76   107   106    1
    77    63    65    1
    78    63    64    1
    79   172   173    1
    80   189   191   ar
    81   102   101    1
    82   102   103    1
    83   138   139    1
    84   188   190   ar
    85    98   101    1
    86    98    99    1
    87   144   145    2
    88   144   153   am
    89   106   109    1
    90   106   105    1
    91   191   190   ar
    92   103   104    1
    93   139   140   ar
    94   139   141   ar
    95   173   175   ar
    96   173   174   ar
    97    99   100    2
    98   109   110    1
    99   175   177   ar
   100   153   154    1
   101   111   110    1
   102   174   176   ar
   103   110   112    1
   104    53    52    2
   105   159   157    1
   106   163   162    2
   107   177   176   ar
   108   154   157    1
   109   154   155    1
   110    57    55    1
   111    52    51    1
   112    15    14    2
   113   157   158    1
   114   162   161    1
   115    18    17    1
   116    18    12    1
   117    51    50    1
   118    51    54    1
   119    17    16    1
   120   160   155   am
   121   160   161    1
   122   155   156    2
   123   161   164    1
   124    54    55    1
   125    14    13    1
   126    55    56    1
   127   164   165    1
   128    12    13    1
   129    12     3   am
   130     4     3    2
   131    16    13    1
   132    31    32    1
   133    31    28    1
   134     3     2    1
   135   165   166    1
   136   165   167    1
   137    33    32   ar
   138    33    35   ar
   139    32    34   ar
   140    35    37   ar
   141    34    36   ar
   142    25    24   ar
   143    23    24    1
   144    23    20    1
   145    37    36   ar
   146    37    38    1
   147    28    27    1
   148    28    29    1
   149     9     7   ar
   150     9    11   ar
   151    24    26   ar
   152    49    47   ar
   153    49    48   ar
   154    19    20    1
   155     7     6   ar
   156     2     1    1
   157     2     5    1
   158    47    45   ar
   159    20    21    1
   160    11    10   ar
   161    48    46   ar
   162     6     5    1
   163     6     8   ar
   164    29    30    2
   165   124   123    1
   166    45    44   ar
   167    10     8   ar
   168    21    22    2
   169    46    44   ar
   170    44    43    1
   171   123   121   ar
   172   123   122   ar
   173   121   119   ar
   174   122   120   ar
   175    39    40    1
   176    43    40    1
   177    40    41    1
   178   119   118   ar
   179   120   118   ar
   180   118   117    1
   181    41    42    2
   182   117   114    1
   183   114   113    1
   184   114   115    1
   185   115   116    2
