@<TRIPOS>MOLECULE
tmp/5alzA00.pdb
 220 214 0 0 0
SMALL
GASTEIGER

@<TRIPOS>ATOM
      1  N        -20.2570   15.5030  -15.9390 N.3   266  PHE266     -0.1228
      2  CA       -21.3320   14.5220  -15.8370 C.3   266  PHE266      0.1721
      3  C        -21.5170   14.0080  -14.4070 C.2   266  PHE266      0.2437
      4  O        -20.5200   13.5460  -13.8230 O.2   266  PHE266     -0.2733
      5  CB       -21.0610   13.3140  -16.7690 C.3   266  PHE266      0.0547
      6  CG       -22.0740   12.1980  -16.6260 C.ar  266  PHE266     -0.0202
      7  CD1      -21.8990   11.1900  -15.6770 C.ar  266  PHE266     -0.0042
      8  CD2      -23.2260   12.1770  -17.4070 C.ar  266  PHE266     -0.0042
      9  CE1      -22.8540   10.1760  -15.5200 C.ar  266  PHE266     -0.0003
     10  CE2      -24.1770   11.1650  -17.2560 C.ar  266  PHE266     -0.0003
     11  CZ       -23.9880   10.1690  -16.3140 C.ar  266  PHE266     -0.0000
     12  N        -22.7650   13.9450  -13.8610 N.am  267  PRO267     -0.2729
     13  CA       -24.0780   14.4300  -14.3690 C.3   267  PRO267      0.1401
     14  C        -24.4020   15.7270  -13.6050 C.2   267  PRO267      0.2269
     15  O        -24.9450   15.6950  -12.5030 O.2   267  PRO267     -0.2865
     16  CB       -25.0180   13.2740  -13.9810 C.3   267  PRO267      0.0296
     17  CG       -24.3360   12.6270  -12.7070 C.3   267  PRO267      0.0237
     18  CD       -22.9610   13.3110  -12.5450 C.3   267  PRO267      0.0939
     19  N        -14.4660   17.8390  -15.6440 N.3   334  ASP334     -0.1225
     20  CA       -14.9090   16.5080  -16.0760 C.3   334  ASP334      0.1805
     21  C        -15.1370   16.4710  -17.6070 C.2   334  ASP334      0.2597
     22  O        -14.1980   16.7530  -18.3260 O.2   334  ASP334     -0.2718
     23  CB       -16.0870   15.9950  -15.1920 C.3   334  ASP334      0.1424
     24  CG       -16.5860   14.6020  -15.5260 C.2   334  ASP334      0.3668
     25  OD1      -15.9420   13.6320  -15.1060 O.co2 334  ASP334     -0.2456
     26  OD2      -17.5940   14.4920  -16.2650 O.co2 334  ASP334     -0.2456
     27  N        -16.3480   16.1790  -18.1080 N.am  335  TRP335     -0.1976
     28  CA       -16.6410   16.1860  -19.5460 C.3   335  TRP335      0.1640
     29  C        -16.4580   17.5860  -20.1520 C.2   335  TRP335      0.2290
     30  O        -16.0800   17.6950  -21.3170 O.2   335  TRP335     -0.2864
     31  CB       -18.0600   15.6820  -19.8090 C.3   335  TRP335      0.0576
     32  CG       -18.1080   14.2460  -20.2110 C.ar  335  TRP335      0.0006
     33  CD1      -18.6410   13.2130  -19.4960 C.ar  335  TRP335      0.0946
     34  CD2      -17.5390   13.6700  -21.3940 C.ar  335  TRP335      0.0152
     35  NE1      -18.4850   12.0330  -20.1890 N.ar  335  TRP335     -0.2442
     36  CE2      -17.8130   12.2830  -21.3560 C.ar  335  TRP335      0.0810
     37  CE3      -16.8150   14.1890  -22.4850 C.ar  335  TRP335      0.0012
     38  CZ2      -17.4100   11.4120  -22.3770 C.ar  335  TRP335      0.0191
     39  CZ3      -16.4320   13.3280  -23.5030 C.ar  335  TRP335      0.0001
     40  CH2      -16.7170   11.9570  -23.4380 C.ar  335  TRP335      0.0015
     41  N        -12.8520   18.2070  -21.1110 N.3   338  MET338     -0.1245
     42  CA       -12.5150   17.6290  -22.4140 C.3   338  MET338      0.1570
     43  C        -12.9150   18.5690  -23.5670 C.2   338  MET338      0.2261
     44  O        -12.1190   18.7680  -24.4910 O.2   338  MET338     -0.2867
     45  CB       -13.1320   16.2280  -22.5920 C.3   338  MET338      0.0387
     46  CG       -12.5480   15.4380  -23.7540 C.3   338  MET338      0.0595
     47  SD       -10.9280   14.6840  -23.3780 S.3   338  MET338     -0.1393
     48  CE        -9.7790   16.0850  -23.6950 C.3   338  MET338      0.0692
     49  N         -9.6770   16.9140  -15.5780 N.3   359  THR359     -0.1204
     50  CA        -9.5950   16.3600  -16.9260 C.3   359  THR359      0.1979
     51  C         -8.2930   16.6850  -17.6130 C.2   359  THR359      0.2459
     52  O         -8.0610   17.8480  -17.9360 O.2   359  THR359     -0.2732
     53  CB       -10.8080   16.7450  -17.7820 C.3   359  THR359      0.1783
     54  OG1      -11.9530   16.5290  -16.9880 O.3   359  THR359     -0.2211
     55  CG2      -10.9090   15.9140  -19.0760 C.3   359  THR359      0.0376
     56  N         -7.4670   15.6630  -17.9180 N.am  360  PRO360     -0.2728
     57  CA        -6.2130   15.9420  -18.6250 C.3   360  PRO360      0.1401
     58  C         -6.4260   16.0000  -20.1380 C.2   360  PRO360      0.2269
     59  O         -7.4820   15.6010  -20.6330 O.2   360  PRO360     -0.2865
     60  CB        -5.3390   14.7390  -18.2440 C.3   360  PRO360      0.0296
     61  CG        -6.3080   13.6130  -18.0680 C.3   360  PRO360      0.0237
     62  CD        -7.6310   14.2100  -17.6610 C.3   360  PRO360      0.0939
     63  N         -5.1850   14.2470  -23.3610 N.3   362  ILE362     -0.1245
     64  CA        -4.4790   13.0620  -23.8570 C.3   362  ILE362      0.1561
     65  C         -4.7910   12.9270  -25.3540 C.2   362  ILE362      0.2260
     66  O         -5.9410   12.6580  -25.7010 O.2   362  ILE362     -0.2867
     67  CB        -4.8160   11.7610  -23.0520 C.3   362  ILE362      0.0252
     68  CG1       -4.4510   11.9060  -21.5560 C.3   362  ILE362      0.0019
     69  CG2       -4.1110   10.5210  -23.6730 C.3   362  ILE362      0.0019
     70  CD1       -5.3470   11.1680  -20.6350 C.3   362  ILE362      0.0001
     71  N        -10.2600    2.1140  -23.6810 N.3   374  ILE374     -0.1245
     72  CA       -11.0960    2.1440  -22.4760 C.3   374  ILE374      0.1561
     73  C        -11.0140    0.8210  -21.6940 C.2   374  ILE374      0.2260
     74  O        -11.0220    0.8360  -20.4570 O.2   374  ILE374     -0.2867
     75  CB       -12.5350    2.6490  -22.8000 C.3   374  ILE374      0.0252
     76  CG1      -12.6010    4.1710  -22.6470 C.3   374  ILE374      0.0019
     77  CG2      -13.6300    1.9810  -21.9610 C.3   374  ILE374      0.0019
     78  CD1      -12.8010    4.9040  -23.9040 C.3   374  ILE374      0.0001
     79  N        -11.9290    3.0230  -16.0730 N.3   380  PHE380     -0.1241
     80  CA       -12.7760    3.4420  -17.1910 C.3   380  PHE380      0.1605
     81  C        -13.8090    2.3810  -17.6140 C.2   380  PHE380      0.2264
     82  O        -14.4000    2.5130  -18.6870 O.2   380  PHE380     -0.2867
     83  CB       -11.8990    3.8720  -18.3910 C.3   380  PHE380      0.0534
     84  CG       -11.2620    5.2470  -18.3340 C.ar  380  PHE380     -0.0203
     85  CD1      -11.3680    6.0400  -17.1930 C.ar  380  PHE380     -0.0042
     86  CD2      -10.5570    5.7480  -19.4230 C.ar  380  PHE380     -0.0042
     87  CE1      -10.7800    7.3060  -17.1430 C.ar  380  PHE380     -0.0003
     88  CE2       -9.9770    7.0210  -19.3760 C.ar  380  PHE380     -0.0003
     89  CZ       -10.0920    7.7890  -18.2360 C.ar  380  PHE380     -0.0000
     90  N        -16.8070    1.4950  -16.0030 N.3   382  TYR382     -0.1227
     91  CA       -18.1740    2.0320  -15.8890 C.3   382  TYR382      0.1736
     92  C        -18.6370    2.6940  -17.2380 C.2   382  TYR382      0.2595
     93  O        -19.8380    2.8650  -17.4490 O.2   382  TYR382     -0.2718
     94  CB       -18.2540    3.0600  -14.7270 C.3   382  TYR382      0.0548
     95  CG       -17.4770    4.3260  -15.0140 C.ar  382  TYR382     -0.0200
     96  CD1      -18.0630    5.3890  -15.6980 C.ar  382  TYR382     -0.0009
     97  CD2      -16.1330    4.4270  -14.6860 C.ar  382  TYR382     -0.0009
     98  CE1      -17.3270    6.5170  -16.0470 C.ar  382  TYR382      0.0417
     99  CE2      -15.3880    5.5530  -15.0260 C.ar  382  TYR382      0.0417
    100  CZ       -15.9870    6.5940  -15.7090 C.ar  382  TYR382      0.1957
    101  OH       -15.2370    7.6950  -16.0300 O.3   382  TYR382     -0.2866
    102  N        -17.6740    3.0930  -18.1190 N.am  383  GLN383     -0.1979
    103  CA       -17.9700    3.7100  -19.4100 C.3   383  GLN383      0.1601
    104  C        -18.6070    2.7200  -20.3830 C.2   383  GLN383      0.2287
    105  O        -19.3940    3.1340  -21.2410 O.2   383  GLN383     -0.2864
    106  CB       -16.7270    4.3480  -20.0110 C.3   383  GLN383      0.0394
    107  CG       -16.1660    5.4740  -19.1580 C.3   383  GLN383      0.0908
    108  CD       -15.0140    6.2100  -19.7750 C.2   383  GLN383      0.2608
    109  OE1      -14.7700    6.1520  -20.9810 O.2   383  GLN383     -0.2717
    110  NE2      -14.2920    6.9500  -18.9540 N.am  383  GLN383     -0.0878
    111  N        -22.2530    2.4540  -19.5810 N.3   386  PHE386     -0.1241
    112  CA       -22.9330    3.6250  -20.1280 C.3   386  PHE386      0.1605
    113  C        -23.2300    3.5240  -21.6190 C.2   386  PHE386      0.2264
    114  O        -23.9980    4.3340  -22.1310 O.2   386  PHE386     -0.2867
    115  CB       -22.1080    4.8990  -19.8470 C.3   386  PHE386      0.0534
    116  CG       -22.0060    5.3550  -18.4110 C.ar  386  PHE386     -0.0203
    117  CD1      -22.7740    4.7610  -17.4150 C.ar  386  PHE386     -0.0042
    118  CD2      -21.1740    6.4130  -18.0610 C.ar  386  PHE386     -0.0042
    119  CE1      -22.6920    5.1970  -16.0910 C.ar  386  PHE386     -0.0003
    120  CE2      -21.0890    6.8510  -16.7330 C.ar  386  PHE386     -0.0003
    121  CZ       -21.8440    6.2340  -15.7530 C.ar  386  PHE386     -0.0000
    122  N        -30.1430    5.3790  -13.1390 N.3   396  LEU396     -0.1245
    123  CA       -29.9170    6.7650  -12.6890 C.3   396  LEU396      0.1561
    124  C        -31.1990    7.5680  -12.4370 C.2   396  LEU396      0.2260
    125  O        -31.2500    8.3640  -11.4960 O.2   396  LEU396     -0.2867
    126  CB       -28.9530    7.5070  -13.6390 C.3   396  LEU396      0.0270
    127  CG       -27.5060    7.0040  -13.6300 C.3   396  LEU396      0.0019
    128  CD1      -26.8170    7.2810  -14.9450 C.3   396  LEU396      0.0001
    129  CD2      -26.7380    7.6100  -12.4850 C.3   396  LEU396      0.0001
    130  N        -23.6190    9.8450   -5.5820 N.3   407  LEU407     -0.1245
    131  CA       -22.5300   10.3790   -6.4150 C.3   407  LEU407      0.1561
    132  C        -21.7440   11.5060   -5.7760 C.2   407  LEU407      0.2260
    133  O        -20.5170   11.4520   -5.7590 O.2   407  LEU407     -0.2867
    134  CB       -23.0730   10.8520   -7.7760 C.3   407  LEU407      0.0270
    135  CG       -23.6710    9.8090   -8.6770 C.3   407  LEU407      0.0019
    136  CD1      -24.3980   10.4560   -9.8140 C.3   407  LEU407      0.0001
    137  CD2      -22.6140    8.8640   -9.2070 C.3   407  LEU407      0.0001
    138  N        -19.3640    4.2190   -3.8200 N.3   416  LEU416     -0.1245
    139  CA       -19.1850    3.6020   -5.1400 C.3   416  LEU416      0.1561
    140  C        -17.7860    3.0660   -5.3970 C.2   416  LEU416      0.2260
    141  O        -16.7890    3.7360   -5.1130 O.2   416  LEU416     -0.2867
    142  CB       -19.5580    4.5800   -6.2750 C.3   416  LEU416      0.0270
    143  CG       -20.8610    5.3600   -6.1690 C.3   416  LEU416      0.0019
    144  CD1      -21.0100    6.2720   -7.3360 C.3   416  LEU416      0.0001
    145  CD2      -22.0620    4.4440   -6.0970 C.3   416  LEU416      0.0001
    146  N        -16.0330    1.7700   -8.7690 N.3   418  MET418     -0.1245
    147  CA       -16.1530    1.7170  -10.2350 C.3   418  MET418      0.1570
    148  C        -15.5170    0.5320  -10.9900 C.2   418  MET418      0.2261
    149  O        -15.6680    0.4240  -12.2210 O.2   418  MET418     -0.2867
    150  CB       -15.8910    3.0780  -10.8920 C.3   418  MET418      0.0387
    151  CG       -17.0760    4.0060  -10.7880 C.3   418  MET418      0.0595
    152  SD       -16.6120    5.5860  -10.0720 S.3   418  MET418     -0.1393
    153  CE       -16.5040    5.1710   -8.3570 C.3   418  MET418      0.0692
    154  N        -24.0450    0.9840  -11.2300 N.3   427  LEU427     -0.1245
    155  CA       -23.2530    1.8980  -10.4010 C.3   427  LEU427      0.1561
    156  C        -23.6360    1.8270   -8.9240 C.2   427  LEU427      0.2260
    157  O        -22.7510    1.9690   -8.0840 O.2   427  LEU427     -0.2867
    158  CB       -23.4220    3.3670  -10.8780 C.3   427  LEU427      0.0270
    159  CG       -22.3370    4.0330  -11.7450 C.3   427  LEU427      0.0019
    160  CD1      -20.9840    4.0870  -11.0650 C.3   427  LEU427      0.0001
    161  CD2      -22.2440    3.4020  -13.0970 C.3   427  LEU427      0.0001
    162  N        -20.8970   10.0320  -23.6400 N.3   465  TYR465     -0.1241
    163  CA       -20.0640    8.8090  -23.6200 C.3   465  TYR465      0.1605
    164  C        -20.2690    7.9110  -24.8450 C.2   465  TYR465      0.2264
    165  O        -19.4980    6.9770  -25.0680 O.2   465  TYR465     -0.2867
    166  CB       -20.4280    7.9530  -22.3960 C.3   465  TYR465      0.0534
    167  CG       -20.0840    8.5520  -21.0510 C.ar  465  TYR465     -0.0201
    168  CD1      -18.8430    8.3200  -20.4570 C.ar  465  TYR465     -0.0009
    169  CD2      -21.0290    9.2780  -20.3310 C.ar  465  TYR465     -0.0009
    170  CE1      -18.5430    8.8250  -19.1900 C.ar  465  TYR465      0.0417
    171  CE2      -20.7410    9.7860  -19.0700 C.ar  465  TYR465      0.0417
    172  CZ       -19.4970    9.5590  -18.5030 C.ar  465  TYR465      0.1957
    173  OH       -19.2170   10.1090  -17.2810 O.3   465  TYR465     -0.2866
    174  N        -10.6190    8.4290  -10.5370 N.3   497  VAL497     -0.1231
    175  CA       -10.9590    8.1640  -11.9440 C.3   497  VAL497      0.1692
    176  C        -10.0230    9.0140  -12.8180 C.2   497  VAL497      0.2591
    177  O         -9.3450    8.4770  -13.6990 O.2   497  VAL497     -0.2718
    178  CB       -12.4590    8.3910  -12.2860 C.3   497  VAL497      0.0266
    179  CG1      -12.7240    8.2230  -13.7870 C.3   497  VAL497      0.0020
    180  CG2      -13.3450    7.4550  -11.4770 C.3   497  VAL497      0.0020
    181  N        -10.0170   10.3410  -12.5700 N.am  498  LEU498     -0.1980
    182  CA        -9.1930   11.3260  -13.2730 C.3   498  LEU498      0.1596
    183  C         -8.0170   11.6160  -12.3450 C.2   498  LEU498      0.2287
    184  O         -7.9660   12.6650  -11.6940 O.2   498  LEU498     -0.2864
    185  CB       -10.0160   12.6120  -13.6130 C.3   498  LEU498      0.0297
    186  CG       -11.2440   12.4450  -14.5270 C.3   498  LEU498      0.0022
    187  CD1      -12.1240   13.6900  -14.5240 C.3   498  LEU498      0.0001
    188  CD2      -10.8400   12.0920  -15.9570 C.3   498  LEU498      0.0001
    189  N         -2.4070   10.7910  -14.7590 N.3   502  MET502     -0.1245
    190  CA        -2.9650   10.7220  -16.1150 C.3   502  MET502      0.1570
    191  C         -2.5890   11.9860  -16.9270 C.2   502  MET502      0.2261
    192  O         -2.5890   11.9430  -18.1590 O.2   502  MET502     -0.2867
    193  CB        -4.4890   10.6140  -16.0420 C.3   502  MET502      0.0387
    194  CG        -5.0200    9.2050  -16.1110 C.3   502  MET502      0.0595
    195  SD        -6.8390    9.1740  -16.0400 S.3   502  MET502     -0.1393
    196  CE        -7.2600    9.9280  -17.6060 C.3   502  MET502      0.0692
    197  N        -13.2900   13.9220   -6.7890 N.3   523  HIS523     -0.1226
    198  CA       -13.7640   14.2250   -8.1450 C.3   523  HIS523      0.1752
    199  C        -14.5950   15.4990   -8.2720 C.2   523  HIS523      0.2596
    200  O        -14.5820   16.1280   -9.3260 O.2   523  HIS523     -0.2718
    201  CB       -14.5510   13.0330   -8.7240 C.3   523  HIS523      0.0759
    202  CG       -15.1030   13.3160  -10.0940 C.ar  523  HIS523      0.0818
    203  ND1      -14.2900   13.3120  -11.2160 N.ar  523  HIS523     -0.2268
    204  CD2      -16.3420   13.7040  -10.4590 C.ar  523  HIS523      0.1154
    205  CE1      -15.0680   13.6480  -12.2170 C.ar  523  HIS523      0.1986
    206  NE2      -16.3130   13.8860  -11.8090 N.ar  523  HIS523     -0.2212
    207  N        -15.3530   15.8560   -7.2210 N.am  524  TRP524     -0.1976
    208  CA       -16.2670   16.9960   -7.2290 C.3   524  TRP524      0.1640
    209  C        -15.5590   18.2440   -6.7460 C.2   524  TRP524      0.2290
    210  O        -16.0390   18.9400   -5.8490 O.2   524  TRP524     -0.2864
    211  CB       -17.5210   16.6500   -6.4090 C.3   524  TRP524      0.0576
    212  CG       -18.0380   15.2800   -6.7120 C.ar  524  TRP524      0.0006
    213  CD1      -17.8610   14.1560   -5.9600 C.ar  524  TRP524      0.0946
    214  CD2      -18.7310   14.8640   -7.9030 C.ar  524  TRP524      0.0152
    215  NE1      -18.4040   13.0650   -6.6010 N.ar  524  TRP524     -0.2442
    216  CE2      -18.9530   13.4710   -7.7920 C.ar  524  TRP524      0.0810
    217  CE3      -19.1810   15.5290   -9.0570 C.ar  524  TRP524      0.0012
    218  CZ2      -19.5900   12.7340   -8.7950 C.ar  524  TRP524      0.0191
    219  CZ3      -19.8370   14.8000  -10.0330 C.ar  524  TRP524      0.0001
    220  CH2      -20.0410   13.4220   -9.8960 C.ar  524  TRP524      0.0015
@<TRIPOS>BOND
     1    66    65    2
     2    65    64    1
     3   165   164    2
     4   164   163    1
     5    44    43    2
     6    78    76    1
     7    64    63    1
     8    64    67    1
     9    46    47    1
    10    46    45    1
    11    48    47    1
    12    71    72    1
    13    69    67    1
    14   162   163    1
    15   163   166    1
    16    43    42    1
    17    39    40   ar
    18    39    37   ar
    19    40    38   ar
    20    67    68    1
    21    75    76    1
    22    75    72    1
    23    75    77    1
    24    45    42    1
    25    37    34   ar
    26    72    73    1
    27    42    41    1
    28   166   167    1
    29    38    36   ar
    30   114   113    2
    31    73    74    2
    32   113   112    1
    33    68    70    1
    34    34    36   ar
    35    34    32   ar
    36    36    35   ar
    37    30    29    2
    38   105   104    2
    39   167   168   ar
    40   167   169   ar
    41   109   108    2
    42    59    58    2
    43   168   170   ar
    44   104   103    1
    45   169   171   ar
    46    32    31    1
    47    32    33   ar
    48    35    33   ar
    49    29    28    1
    50    58    57    1
    51   112   115    1
    52   112   111    1
    53   106   103    1
    54   106   107    1
    55   115   116    1
    56    31    28    1
    57   108   107    1
    58   108   110   am
    59    28    27    1
    60    86    88   ar
    61    86    84   ar
    62   103   102    1
    63    88    89   ar
    64   170   172   ar
    65    55    53    1
    66   171   172   ar
    67    82    81    2
    68    57    60    1
    69    57    56    1
    70   172   173    1
    71   116   118   ar
    72   116   117   ar
    73    83    84    1
    74    83    80    1
    75    84    85   ar
    76    22    21    2
    77    60    61    1
    78    89    87   ar
    79   192   191    2
    80   102    92   am
    81    27    21   am
    82    61    62    1
    83   118   120   ar
    84    52    51    2
    85    56    62    1
    86    56    51   am
    87    53    54    1
    88    53    50    1
    89    81    80    1
    90    51    50    1
    91    21    20    1
    92   196   195    1
    93    93    92    2
    94   117   119   ar
    95     8    10   ar
    96     8     6   ar
    97    10    11   ar
    98    92    91    1
    99    85    87   ar
   100    80    79    1
   101   191   190    1
   102    50    49    1
   103     5     6    1
   104     5     2    1
   105   120   121   ar
   106     6     7   ar
   107    11     9   ar
   108    26    24   ar
   109   190   193    1
   110   190   189    1
   111   194   193    1
   112   194   195    1
   113   119   121   ar
   114    20    19    1
   115    20    23    1
   116    98   100   ar
   117    98    96   ar
   118   101   100    1
   119    90    91    1
   120   188   186    1
   121     1     2    1
   122    91    94    1
   123     2     3    1
   124   100    99   ar
   125    96    95   ar
   126     7     9   ar
   127    24    23    1
   128    24    25   ar
   129    99    97   ar
   130    95    94    1
   131    95    97   ar
   132   128   127    1
   133   186   187    1
   134   186   185    1
   135     3    12   am
   136     3     4    2
   137    13    16    1
   138    13    12    1
   139    13    14    1
   140    16    17    1
   141    12    18    1
   142   179   178    1
   143   177   176    2
   144   126   127    1
   145   126   123    1
   146   127   129    1
   147   185   182    1
   148    14    15    2
   149   182   181    1
   150   182   183    1
   151   122   123    1
   152   161   159    1
   153   176   181   am
   154   176   175    1
   155    17    18    1
   156   123   124    1
   157   124   125    2
   158   183   184    2
   159   178   175    1
   160   178   180    1
   161   149   148    2
   162   205   206   ar
   163   205   203   ar
   164   175   174    1
   165   206   204   ar
   166   159   160    1
   167   159   158    1
   168   154   155    1
   169   203   202   ar
   170   148   147    1
   171   150   151    1
   172   150   147    1
   173   158   155    1
   174   151   152    1
   175   204   202   ar
   176   155   156    1
   177   147   146    1
   178   202   201    1
   179   152   153    1
   180   219   220   ar
   181   219   217   ar
   182   220   218   ar
   183   136   135    1
   184   200   199    2
   185   137   135    1
   186   217   214   ar
   187   156   157    2
   188   218   216   ar
   189   201   198    1
   190   135   134    1
   191   199   198    1
   192   199   207   am
   193   198   197    1
   194   214   216   ar
   195   214   212   ar
   196   216   215   ar
   197   134   131    1
   198   144   143    1
   199   208   207    1
   200   208   209    1
   201   208   211    1
   202   209   210    2
   203   212   211    1
   204   212   213   ar
   205   215   213   ar
   206   131   132    1
   207   131   130    1
   208   142   143    1
   209   142   139    1
   210   143   145    1
   211   132   133    2
   212   140   139    1
   213   140   141    2
   214   139   138    1
