@<TRIPOS>MOLECULE
tmp/5am0A00.pdb
 191 185 0 0 0
SMALL
GASTEIGER

@<TRIPOS>ATOM
      1  N         20.2580   15.5550   16.0880 N.3   266  PHE266     -0.1228
      2  CA        21.3510   14.6250   15.9540 C.3   266  PHE266      0.1721
      3  C         21.5040   14.1340   14.5120 C.2   266  PHE266      0.2437
      4  O         20.4980   13.7180   13.9090 O.2   266  PHE266     -0.2733
      5  CB        21.1720   13.4270   16.9330 C.3   266  PHE266      0.0547
      6  CG        22.2060   12.3170   16.7940 C.ar  266  PHE266     -0.0202
      7  CD1       22.0840   11.3480   15.8020 C.ar  266  PHE266     -0.0042
      8  CD2       23.3180   12.2660   17.6360 C.ar  266  PHE266     -0.0042
      9  CE1       23.0710   10.3550   15.6370 C.ar  266  PHE266     -0.0003
     10  CE2       24.2900   11.2570   17.4930 C.ar  266  PHE266     -0.0003
     11  CZ        24.1600   10.3130   16.4880 C.ar  266  PHE266     -0.0000
     12  N         22.7530   14.0240   13.9840 N.am  267  PRO267     -0.2729
     13  CA        24.0610   14.4720   14.5190 C.3   267  PRO267      0.1401
     14  C         24.3620   15.7490   13.7290 C.2   267  PRO267      0.2269
     15  O         24.8440   15.7160   12.5960 O.2   267  PRO267     -0.2865
     16  CB        24.9810   13.2810   14.1590 C.3   267  PRO267      0.0296
     17  CG        24.3040   12.6210   12.9080 C.3   267  PRO267      0.0237
     18  CD        22.9630   13.3520   12.6860 C.3   267  PRO267      0.0939
     19  N         14.3650   17.6340   15.7680 N.3   334  ASP334     -0.1239
     20  CA        14.8220   16.3100   16.2410 C.3   334  ASP334      0.1674
     21  C         15.0840   16.3470   17.7770 C.2   334  ASP334      0.2266
     22  O         14.1740   16.7270   18.5110 O.2   334  ASP334     -0.2867
     23  CB        16.0300   15.8210   15.3760 C.3   334  ASP334      0.1410
     24  CG        16.5880   14.4650   15.7800 C.2   334  ASP334      0.3668
     25  OD1       16.0050   13.4430   15.3750 O.co2 334  ASP334     -0.2456
     26  OD2       17.5850   14.4330   16.5440 O.co2 334  ASP334     -0.2456
     27  N         16.8720    2.2200   15.7690 N.3   382  TYR382     -0.1241
     28  CA        18.1560    2.9570   15.7460 C.3   382  TYR382      0.1605
     29  C         18.5140    3.5140   17.1470 C.2   382  TYR382      0.2264
     30  O         19.6760    3.5080   17.5310 O.2   382  TYR382     -0.2867
     31  CB        18.1560    4.0620   14.6670 C.3   382  TYR382      0.0534
     32  CG        17.3960    5.3280   15.0160 C.ar  382  TYR382     -0.0201
     33  CD1       16.0040    5.3400   15.0530 C.ar  382  TYR382     -0.0009
     34  CD2       18.0640    6.5330   15.2200 C.ar  382  TYR382     -0.0009
     35  CE1       15.2970    6.5080   15.3370 C.ar  382  TYR382      0.0417
     36  CE2       17.3690    7.7070   15.5050 C.ar  382  TYR382      0.0417
     37  CZ        15.9820    7.6920   15.5610 C.ar  382  TYR382      0.1957
     38  OH        15.2810    8.8430   15.8460 O.3   382  TYR382     -0.2866
     39  N         21.8690    2.8290   19.4250 N.3   386  PHE386     -0.1241
     40  CA        22.6400    3.9180   20.0340 C.3   386  PHE386      0.1605
     41  C         22.9150    3.7430   21.5350 C.2   386  PHE386      0.2264
     42  O         23.6590    4.5410   22.0880 O.2   386  PHE386     -0.2867
     43  CB        21.9190    5.2570   19.7900 C.3   386  PHE386      0.0534
     44  CG        21.9530    5.7690   18.3730 C.ar  386  PHE386     -0.0203
     45  CD1       22.6770    5.0970   17.3830 C.ar  386  PHE386     -0.0042
     46  CD2       21.2840    6.9370   18.0240 C.ar  386  PHE386     -0.0042
     47  CE1       22.7400    5.5920   16.0850 C.ar  386  PHE386     -0.0003
     48  CE2       21.3380    7.4230   16.7160 C.ar  386  PHE386     -0.0003
     49  CZ        22.0670    6.7500   15.7550 C.ar  386  PHE386     -0.0000
     50  N         29.9650    5.4280   13.2170 N.3   396  LEU396     -0.1245
     51  CA        29.7830    6.8100   12.7510 C.3   396  LEU396      0.1561
     52  C         31.0810    7.5690   12.5230 C.2   396  LEU396      0.2260
     53  O         31.1320    8.4200   11.6380 O.2   396  LEU396     -0.2867
     54  CB        28.8380    7.5970   13.6940 C.3   396  LEU396      0.0270
     55  CG        27.4200    7.0270   13.8090 C.3   396  LEU396      0.0019
     56  CD1       26.7620    7.4870   15.0730 C.3   396  LEU396      0.0001
     57  CD2       26.5770    7.3980   12.6020 C.3   396  LEU396      0.0001
     58  N         23.5420    9.8280    5.7830 N.3   407  LEU407     -0.1245
     59  CA        22.4640   10.3790    6.6170 C.3   407  LEU407      0.1561
     60  C         21.6450   11.4680    5.9560 C.2   407  LEU407      0.2260
     61  O         20.4130   11.3950    5.9620 O.2   407  LEU407     -0.2867
     62  CB        23.0340   10.8990    7.9520 C.3   407  LEU407      0.0270
     63  CG        23.5000    9.8390    8.9490 C.3   407  LEU407      0.0019
     64  CD1       24.2590   10.4920   10.1050 C.3   407  LEU407      0.0001
     65  CD2       22.3430    9.0090    9.4690 C.3   407  LEU407      0.0001
     66  N         20.0670   12.8020    3.2760 N.3   409  ARG409     -0.1245
     67  CA        19.4620   12.4820    1.9790 C.3   409  ARG409      0.1563
     68  C         17.9600   12.7570    2.0640 C.2   409  ARG409      0.2260
     69  O         17.3810   12.6540    3.1430 O.2   409  ARG409     -0.2867
     70  CB        19.6810   10.9840    1.6440 C.3   409  ARG409      0.0307
     71  CG        21.1130   10.4900    1.8460 C.3   409  ARG409      0.0489
     72  CD        21.3810    9.1180    1.2440 C.3   409  ARG409      0.2205
     73  NE        21.3460    9.1440   -0.2200 N.pl3 409  ARG409     -0.0865
     74  CZ        22.3560    9.5310   -0.9890 C.cat 409  ARG409      0.5346
     75  NH1       23.4910    9.9490   -0.4450 N.pl3 409  ARG409      0.1354
     76  NH2       22.2310    9.5250   -2.3080 N.pl3 409  ARG409      0.1354
     77  N         13.8550   12.0050    1.2230 N.3   411  SER411     -0.1217
     78  CA        13.0020   10.8200    1.4160 C.3   411  SER411      0.1889
     79  C         13.0590    9.7810    0.2680 C.2   411  SER411      0.2288
     80  O         12.9210    8.5860    0.5260 O.2   411  SER411     -0.2866
     81  CB        11.5600   11.2290    1.6930 C.3   411  SER411      0.2089
     82  OG        11.0210   11.9710    0.6090 O.3   411  SER411     -0.2183
     83  N         17.1810    7.6580    0.3060 N.3   414  SER414     -0.1217
     84  CA        17.8000    6.9520    1.4250 C.3   414  SER414      0.1889
     85  C         18.2580    5.5410    1.2080 C.2   414  SER414      0.2288
     86  O         17.5040    4.6900    0.7350 O.2   414  SER414     -0.2866
     87  CB        17.0060    7.0790    2.7160 C.3   414  SER414      0.2089
     88  OG        17.8380    6.8090    3.8340 O.3   414  SER414     -0.2183
     89  N         19.5600    4.0320    3.9320 N.3   416  LEU416     -0.1245
     90  CA        19.3520    3.5990    5.3130 C.3   416  LEU416      0.1561
     91  C         18.1040    2.7190    5.3830 C.2   416  LEU416      0.2260
     92  O         17.0590    3.0850    4.8380 O.2   416  LEU416     -0.2867
     93  CB        19.1390    4.8540    6.1930 C.3   416  LEU416      0.0270
     94  CG        20.1620    5.2060    7.2710 C.3   416  LEU416      0.0019
     95  CD1       21.5610    5.3930    6.6970 C.3   416  LEU416      0.0001
     96  CD2       19.7550    6.4870    7.9760 C.3   416  LEU416      0.0001
     97  N         16.7600    1.3010    8.5810 N.3   418  MET418     -0.1245
     98  CA        16.1380    1.6970    9.8610 C.3   418  MET418      0.1570
     99  C         15.4640    0.5210   10.5540 C.2   418  MET418      0.2261
    100  O         15.4290    0.4640   11.7880 O.2   418  MET418     -0.2867
    101  CB        15.2250    2.9360    9.7530 C.3   418  MET418      0.0387
    102  CG        15.9660    4.1720    9.2690 C.3   418  MET418      0.0595
    103  SD        17.3240    4.6600   10.3680 S.3   418  MET418     -0.1393
    104  CE        16.4090    5.6290   11.5360 C.3   418  MET418      0.0692
    105  N         23.8490    0.9110   11.0680 N.3   427  LEU427     -0.1245
    106  CA        23.0360    1.7550   10.1800 C.3   427  LEU427      0.1561
    107  C         23.4630    1.7330    8.7290 C.2   427  LEU427      0.2260
    108  O         22.6400    2.0230    7.8550 O.2   427  LEU427     -0.2867
    109  CB        23.0850    3.2260   10.6230 C.3   427  LEU427      0.0270
    110  CG        22.4170    3.5780   11.9310 C.3   427  LEU427      0.0019
    111  CD1       23.1350    4.7480   12.5710 C.3   427  LEU427      0.0001
    112  CD2       20.9280    3.8620   11.7290 C.3   427  LEU427      0.0001
    113  N         20.8450   10.2480   23.6590 N.3   465  TYR465     -0.1241
    114  CA        19.9350    9.0750   23.5970 C.3   465  TYR465      0.1605
    115  C         20.0980    8.1070   24.7750 C.2   465  TYR465      0.2264
    116  O         19.3120    7.1660   24.9230 O.2   465  TYR465     -0.2867
    117  CB        20.2080    8.2660   22.3040 C.3   465  TYR465      0.0534
    118  CG        19.9000    8.9620   21.0000 C.ar  465  TYR465     -0.0201
    119  CD1       20.8810    9.6810   20.3250 C.ar  465  TYR465     -0.0009
    120  CD2       18.6580    8.8110   20.3850 C.ar  465  TYR465     -0.0009
    121  CE1       20.6270   10.2700   19.0900 C.ar  465  TYR465      0.0417
    122  CE2       18.4000    9.3710   19.1360 C.ar  465  TYR465      0.0417
    123  CZ        19.3790   10.1150   18.5010 C.ar  465  TYR465      0.1957
    124  OH        19.1070   10.7190   17.3080 O.3   465  TYR465     -0.2866
    125  N          7.0190   13.0780    4.8870 N.3   494  LYS494     -0.1231
    126  CA         7.8930   11.9430    4.6160 C.3   494  LYS494      0.1693
    127  C          8.9860   11.6380    5.6370 C.2   494  LYS494      0.2592
    128  O          9.9720   10.9620    5.3180 O.2   494  LYS494     -0.2718
    129  CB         8.3950   11.9920    3.1690 C.3   494  LYS494      0.0285
    130  CG         7.2660   11.7440    2.1660 C.3   494  LYS494      0.0035
    131  CD         7.7080   11.7870    0.7180 C.3   494  LYS494      0.0206
    132  CE         6.5080   11.6500   -0.1870 C.3   494  LYS494      0.1093
    133  NZ         6.7910   12.1470   -1.5610 N.3   494  LYS494     -0.1314
    134  N          8.8010   12.0940    6.8890 N.am  495  ASP495     -0.1960
    135  CA         9.7100   11.6790    7.9350 C.3   495  ASP495      0.1840
    136  C          9.1390   10.3160    8.3710 C.2   495  ASP495      0.2622
    137  O          8.1040   10.2750    9.0140 O.2   495  ASP495     -0.2715
    138  CB         9.7580   12.6710    9.1190 C.3   495  ASP495      0.1450
    139  CG        10.8710   12.3510   10.0910 C.2   495  ASP495      0.3671
    140  OD1       11.1000   11.1420   10.3650 O.co2 495  ASP495     -0.2456
    141  OD2       11.4810   13.2990   10.6250 O.co2 495  ASP495     -0.2456
    142  N          9.8010    9.2120    8.0060 N.am  496  PHE496     -0.1960
    143  CA         9.3280    7.8610    8.3160 C.3   496  PHE496      0.1771
    144  C          9.5390    7.3700    9.7380 C.2   496  PHE496      0.2619
    145  O          9.0910    6.2780   10.0770 O.2   496  PHE496     -0.2715
    146  CB         9.7660    6.8420    7.2360 C.3   496  PHE496      0.0574
    147  CG         9.4230    7.2950    5.8350 C.ar  496  PHE496     -0.0200
    148  CD1        8.1070    7.5760    5.4760 C.ar  496  PHE496     -0.0042
    149  CD2       10.4170    7.4650    4.8790 C.ar  496  PHE496     -0.0042
    150  CE1        7.7930    8.0180    4.1880 C.ar  496  PHE496     -0.0003
    151  CE2       10.1000    7.9000    3.5850 C.ar  496  PHE496     -0.0003
    152  CZ         8.7920    8.1750    3.2500 C.ar  496  PHE496     -0.0000
    153  N         10.1620    8.1920   10.5950 N.am  497  VAL497     -0.1963
    154  CA        10.3800    7.8450   11.9980 C.3   497  VAL497      0.1727
    155  C          9.4920    8.7750   12.8470 C.2   497  VAL497      0.2616
    156  O          8.6490    8.2960   13.6000 O.2   497  VAL497     -0.2715
    157  CB        11.8860    7.9060   12.3650 C.3   497  VAL497      0.0290
    158  CG1       12.1170    7.7210   13.8610 C.3   497  VAL497      0.0023
    159  CG2       12.6810    6.8700   11.5620 C.3   497  VAL497      0.0023
    160  N          9.6560   10.0960   12.6730 N.am  498  LEU498     -0.1977
    161  CA         8.8500   11.1090   13.3640 C.3   498  LEU498      0.1596
    162  C          7.6860   11.4520   12.4090 C.2   498  LEU498      0.2287
    163  O          7.6320   12.5200   11.8000 O.2   498  LEU498     -0.2864
    164  CB         9.7300   12.3350   13.7170 C.3   498  LEU498      0.0297
    165  CG        11.0440   12.0220   14.4940 C.3   498  LEU498      0.0022
    166  CD1       11.9410   13.2650   14.5990 C.3   498  LEU498      0.0001
    167  CD2       10.7490   11.4620   15.8840 C.3   498  LEU498      0.0001
    168  N         13.2630   13.8520    6.9530 N.3   523  HIS523     -0.1226
    169  CA        13.7280   14.1550    8.3060 C.3   523  HIS523      0.1752
    170  C         14.5240   15.4550    8.4290 C.2   523  HIS523      0.2596
    171  O         14.4210   16.1220    9.4560 O.2   523  HIS523     -0.2718
    172  CB        14.5630   12.9900    8.8790 C.3   523  HIS523      0.0759
    173  CG        14.9870   13.2160   10.2970 C.ar  523  HIS523      0.0818
    174  ND1       16.3000   13.5160   10.6170 N.ar  523  HIS523     -0.2268
    175  CD2       14.2420   13.2750   11.4270 C.ar  523  HIS523      0.1154
    176  CE1       16.3190   13.6940   11.9280 C.ar  523  HIS523      0.1986
    177  NE2       15.1100   13.5470   12.4610 N.ar  523  HIS523     -0.2212
    178  N         15.3630   15.7760    7.4210 N.am  524  TRP524     -0.1976
    179  CA        16.3000   16.9240    7.4520 C.3   524  TRP524      0.1640
    180  C         15.6300   18.1490    6.9290 C.2   524  TRP524      0.2290
    181  O         16.0830   18.7710    5.9710 O.2   524  TRP524     -0.2864
    182  CB        17.5920   16.5840    6.7050 C.3   524  TRP524      0.0576
    183  CG        18.0270   15.1730    6.9490 C.ar  524  TRP524      0.0006
    184  CD1       17.7510   14.0880    6.1650 C.ar  524  TRP524      0.0946
    185  CD2       18.6540   14.6690    8.1250 C.ar  524  TRP524      0.0152
    186  NE1       18.1850   12.9430    6.7750 N.ar  524  TRP524     -0.2442
    187  CE2       18.7770   13.2700    7.9660 C.ar  524  TRP524      0.0810
    188  CE3       19.1600   15.2670    9.2980 C.ar  524  TRP524      0.0012
    189  CZ2       19.3980   12.4600    8.9210 C.ar  524  TRP524      0.0191
    190  CZ3       19.7780   14.4620   10.2370 C.ar  524  TRP524      0.0001
    191  CH2       19.8910   13.0740   10.0490 C.ar  524  TRP524      0.0015
@<TRIPOS>BOND
     1    76    74    1
     2   133   132    1
     3    74    75    1
     4    74    73    2
     5    73    72    1
     6   132   131    1
     7    79    80    2
     8    79    78    1
     9    83    84    1
    10    82    81    1
    11   131   130    1
    12    86    85    2
    13    85    84    1
    14    77    78    1
    15    72    71    1
    16    78    81    1
    17    84    87    1
    18    70    71    1
    19    70    67    1
    20    67    68    1
    21    67    66    1
    22    68    69    2
    23   130   129    1
    24    87    88    1
    25   129   126    1
    26   152   151   ar
    27   152   150   ar
    28   151   149   ar
    29    89    90    1
    30   150   148   ar
    31   126   125    1
    32   126   127    1
    33    92    91    2
    34   149   147   ar
    35    90    91    1
    36    90    93    1
    37   128   127    2
    38   148   147   ar
    39   127   134   am
    40    58    59    1
    41   147   146    1
    42    60    61    2
    43    60    59    1
    44   181   180    2
    45   184   186   ar
    46   184   183   ar
    47    93    94    1
    48    59    62    1
    49    95    94    1
    50   182   183    1
    51   182   179    1
    52   186   187   ar
    53   134   135    1
    54   180   179    1
    55   183   185   ar
    56   168   169    1
    57   146   143    1
    58    94    96    1
    59   178   179    1
    60   178   170   am
    61   108   107    2
    62   135   136    1
    63   135   138    1
    64    62    63    1
    65   187   185   ar
    66   187   189   ar
    67   142   143    1
    68   142   136   am
    69   185   188   ar
    70   169   170    1
    71   169   172    1
    72   143   144    1
    73   136   137    2
    74   170   171    2
    75    97    98    1
    76   107   106    1
    77   172   173    1
    78   189   191   ar
    79    63    65    1
    80    63    64    1
    81   138   139    1
    82   102   101    1
    83   102   103    1
    84   188   190   ar
    85   144   145    2
    86   144   153   am
    87   101    98    1
    88    98    99    1
    89   191   190   ar
    90   139   140   ar
    91   139   141   ar
    92   106   109    1
    93   106   105    1
    94   173   174   ar
    95   173   175   ar
    96   103   104    1
    97    99   100    2
    98   153   154    1
    99   174   176   ar
   100   109   110    1
   101   175   177   ar
   102   159   157    1
   103    53    52    2
   104   112   110    1
   105   163   162    2
   106   176   177   ar
   107   110   111    1
   108   154   157    1
   109   154   155    1
   110   157   158    1
   111   162   161    1
   112    52    51    1
   113    15    14    2
   114    57    55    1
   115   160   155   am
   116   160   161    1
   117    18    17    1
   118    18    12    1
   119    51    50    1
   120    51    54    1
   121   155   156    2
   122    17    16    1
   123   161   164    1
   124    54    55    1
   125   164   165    1
   126    14    13    1
   127    55    56    1
   128     4     3    2
   129    12     3   am
   130    12    13    1
   131    16    13    1
   132   165   166    1
   133   165   167    1
   134     3     2    1
   135    31    32    1
   136    31    28    1
   137    32    33   ar
   138    32    34   ar
   139    33    35   ar
   140    34    36   ar
   141    35    37   ar
   142    25    24   ar
   143    23    24    1
   144    23    20    1
   145    36    37   ar
   146    37    38    1
   147     9     7   ar
   148     9    11   ar
   149    28    27    1
   150    28    29    1
   151    49    47   ar
   152    49    48   ar
   153    19    20    1
   154    24    26   ar
   155     7     6   ar
   156     2     1    1
   157     2     5    1
   158    47    45   ar
   159    20    21    1
   160    11    10   ar
   161    48    46   ar
   162     6     5    1
   163     6     8   ar
   164    29    30    2
   165   124   123    1
   166    45    44   ar
   167    10     8   ar
   168    21    22    2
   169    46    44   ar
   170    44    43    1
   171   123   121   ar
   172   123   122   ar
   173   121   119   ar
   174   122   120   ar
   175    39    40    1
   176    43    40    1
   177    40    41    1
   178   119   118   ar
   179   120   118   ar
   180   118   117    1
   181    41    42    2
   182   117   114    1
   183   114   113    1
   184   114   115    1
   185   115   116    2
