@<TRIPOS>MOLECULE
tmp/5am1A00.pdb
 220 214 0 0 0
SMALL
GASTEIGER

@<TRIPOS>ATOM
      1  N         20.3690   15.6990   16.2170 N.3   266  PHE266     -0.1228
      2  CA        21.4380   14.7250   16.0940 C.3   266  PHE266      0.1721
      3  C         21.5650   14.1940   14.6820 C.2   266  PHE266      0.2437
      4  O         20.5610   13.7330   14.1430 O.2   266  PHE266     -0.2733
      5  CB        21.1700   13.5350   17.0540 C.3   266  PHE266      0.0547
      6  CG        22.1680   12.4040   16.9440 C.ar  266  PHE266     -0.0202
      7  CD1       22.0040   11.3970   15.9950 C.ar  266  PHE266     -0.0042
      8  CD2       23.2850   12.3560   17.7720 C.ar  266  PHE266     -0.0042
      9  CE1       22.9440   10.3620   15.8760 C.ar  266  PHE266     -0.0003
     10  CE2       24.2230   11.3250   17.6530 C.ar  266  PHE266     -0.0003
     11  CZ        24.0470   10.3360   16.7030 C.ar  266  PHE266     -0.0000
     12  N         22.7900   14.1050   14.1110 N.am  267  PRO267     -0.2729
     13  CA        24.0940   14.5680   14.6220 C.3   267  PRO267      0.1401
     14  C         24.4280   15.8500   13.8530 C.2   267  PRO267      0.2269
     15  O         25.0130   15.8190   12.7610 O.2   267  PRO267     -0.2865
     16  CB        25.0100   13.3850   14.2680 C.3   267  PRO267      0.0296
     17  CG        24.3190   12.7040   13.0350 C.3   267  PRO267      0.0237
     18  CD        22.9890   13.4270   12.8180 C.3   267  PRO267      0.0939
     19  N         14.4970   18.0740   15.9010 N.3   334  ASP334     -0.1225
     20  CA        14.9630   16.7590   16.3540 C.3   334  ASP334      0.1805
     21  C         15.2400   16.7400   17.8750 C.2   334  ASP334      0.2597
     22  O         14.3330   17.0800   18.6260 O.2   334  ASP334     -0.2718
     23  CB        16.1710   16.3160   15.4730 C.3   334  ASP334      0.1424
     24  CG        16.6530   14.9180   15.7690 C.2   334  ASP334      0.3668
     25  OD1       15.9550   13.9690   15.3880 O.co2 334  ASP334     -0.2456
     26  OD2       17.6560   14.7820   16.4960 O.co2 334  ASP334     -0.2456
     27  N         16.4700   16.4070   18.3410 N.am  335  TRP335     -0.1976
     28  CA        16.8000   16.4370   19.7740 C.3   335  TRP335      0.1640
     29  C         16.6820   17.8750   20.3460 C.2   335  TRP335      0.2290
     30  O         16.3070   18.0350   21.4970 O.2   335  TRP335     -0.2864
     31  CB        18.1780   15.8180   20.0590 C.3   335  TRP335      0.0576
     32  CG        18.1150   14.3470   20.3700 C.ar  335  TRP335      0.0006
     33  CD1       18.5220   13.3210   19.5680 C.ar  335  TRP335      0.0946
     34  CD2       17.5720   13.7440   21.5530 C.ar  335  TRP335      0.0152
     35  NE1       18.2850   12.1150   20.1860 N.ar  335  TRP335     -0.2442
     36  CE2       17.6880   12.3430   21.4010 C.ar  335  TRP335      0.0810
     37  CE3       16.9890   14.2540   22.7320 C.ar  335  TRP335      0.0012
     38  CZ2       17.2800   11.4430   22.3980 C.ar  335  TRP335      0.0191
     39  CZ3       16.5790   13.3630   23.7170 C.ar  335  TRP335      0.0001
     40  CH2       16.7330   11.9760   23.5510 C.ar  335  TRP335      0.0015
     41  N         13.0450   18.5100   21.2360 N.3   338  MET338     -0.1245
     42  CA        12.7260   17.9130   22.5270 C.3   338  MET338      0.1570
     43  C         13.1750   18.8270   23.6630 C.2   338  MET338      0.2261
     44  O         12.4240   18.9850   24.6390 O.2   338  MET338     -0.2867
     45  CB        13.3830   16.5350   22.6830 C.3   338  MET338      0.0387
     46  CG        12.8720   15.7670   23.8860 C.3   338  MET338      0.0595
     47  SD        11.2010   15.0810   23.6470 S.3   338  MET338     -0.1393
     48  CE        10.1850   16.3000   24.5020 C.3   338  MET338      0.0692
     49  N          9.8850   17.1230   15.8430 N.3   359  THR359     -0.1204
     50  CA         9.7390   16.5480   17.1950 C.3   359  THR359      0.1979
     51  C          8.4140   16.8740   17.8460 C.2   359  THR359      0.2459
     52  O          8.1490   18.0480   18.1390 O.2   359  THR359     -0.2732
     53  CB        10.8940   16.9440   18.1180 C.3   359  THR359      0.1783
     54  OG1       12.0810   16.8010   17.3850 O.3   359  THR359     -0.2211
     55  CG2       10.9610   16.0890   19.4100 C.3   359  THR359      0.0376
     56  N          7.5850   15.8440   18.1290 N.am  360  PRO360     -0.2728
     57  CA         6.3170   16.1140   18.8160 C.3   360  PRO360      0.1401
     58  C          6.5300   16.2560   20.3240 C.2   360  PRO360      0.2269
     59  O          7.5630   15.8390   20.8650 O.2   360  PRO360     -0.2865
     60  CB         5.5000   14.8480   18.5290 C.3   360  PRO360      0.0296
     61  CG         6.5370   13.7490   18.4690 C.3   360  PRO360      0.0237
     62  CD         7.7720   14.3900   17.8830 C.3   360  PRO360      0.0939
     63  N          5.3820   14.6310   23.5490 N.3   362  ILE362     -0.1245
     64  CA         4.7190   13.4360   24.0810 C.3   362  ILE362      0.1561
     65  C          5.0680   13.3350   25.5630 C.2   362  ILE362      0.2260
     66  O          6.2520   13.2370   25.8990 O.2   362  ILE362     -0.2867
     67  CB         5.0700   12.1170   23.3100 C.3   362  ILE362      0.0252
     68  CG1        4.7480   12.2290   21.7940 C.3   362  ILE362      0.0019
     69  CG2        4.3600   10.8820   23.9680 C.3   362  ILE362      0.0019
     70  CD1        5.3710   11.1370   20.9230 C.3   362  ILE362      0.0001
     71  N         10.2900    2.3070   23.9230 N.3   374  ILE374     -0.1245
     72  CA        11.1310    2.3220   22.7260 C.3   374  ILE374      0.1561
     73  C         11.1020    0.9940   21.9600 C.2   374  ILE374      0.2260
     74  O         11.1880    0.9980   20.7300 O.2   374  ILE374     -0.2867
     75  CB        12.5470    2.9140   23.0120 C.3   374  ILE374      0.0252
     76  CG1       12.8410    4.1310   22.1160 C.3   374  ILE374      0.0019
     77  CG2       13.6820    1.8830   22.9870 C.3   374  ILE374      0.0019
     78  CD1       12.1270    5.4650   22.5320 C.3   374  ILE374      0.0001
     79  N         12.3950    2.8200   16.1860 N.3   380  PHE380     -0.1241
     80  CA        13.3450    3.3020   17.1880 C.3   380  PHE380      0.1605
     81  C         14.3500    2.2420   17.6770 C.2   380  PHE380      0.2264
     82  O         14.9070    2.3880   18.7680 O.2   380  PHE380     -0.2867
     83  CB        12.6060    3.9900   18.3610 C.3   380  PHE380      0.0534
     84  CG        11.7700    5.2080   18.0080 C.ar  380  PHE380     -0.0203
     85  CD1       12.2650    6.1920   17.1540 C.ar  380  PHE380     -0.0042
     86  CD2       10.5100    5.3910   18.5630 C.ar  380  PHE380     -0.0042
     87  CE1       11.5020    7.3200   16.8400 C.ar  380  PHE380     -0.0003
     88  CE2        9.7450    6.5210   18.2470 C.ar  380  PHE380     -0.0003
     89  CZ        10.2460    7.4760   17.3850 C.ar  380  PHE380     -0.0000
     90  N         17.4230    1.4930   16.3700 N.3   382  TYR382     -0.1227
     91  CA        18.7540    2.1110   16.3420 C.3   382  TYR382      0.1736
     92  C         19.1240    2.7580   17.7010 C.2   382  TYR382      0.2595
     93  O         20.2990    2.8180   18.0310 O.2   382  TYR382     -0.2718
     94  CB        18.8490    3.1450   15.1880 C.3   382  TYR382      0.0548
     95  CG        17.9410    4.3430   15.3790 C.ar  382  TYR382     -0.0200
     96  CD1       16.6300    4.3320   14.9130 C.ar  382  TYR382     -0.0009
     97  CD2       18.3820    5.4760   16.0640 C.ar  382  TYR382     -0.0009
     98  CE1       15.7760    5.4120   15.1330 C.ar  382  TYR382      0.0417
     99  CE2       17.5340    6.5560   16.2950 C.ar  382  TYR382      0.0417
    100  CZ        16.2320    6.5200   15.8280 C.ar  382  TYR382      0.1957
    101  OH        15.3980    7.5880   16.0300 O.3   382  TYR382     -0.2866
    102  N         18.1210    3.2370   18.4750 N.am  383  GLN383     -0.1979
    103  CA        18.3250    3.8530   19.7910 C.3   383  GLN383      0.1601
    104  C         18.9400    2.8660   20.7840 C.2   383  GLN383      0.2287
    105  O         19.7780    3.2690   21.5970 O.2   383  GLN383     -0.2864
    106  CB        17.0220    4.4400   20.3430 C.3   383  GLN383      0.0394
    107  CG        16.4460    5.5640   19.4740 C.3   383  GLN383      0.0908
    108  CD        15.3010    6.3130   20.1110 C.2   383  GLN383      0.2608
    109  OE1       15.1600    6.3960   21.3300 O.2   383  GLN383     -0.2717
    110  NE2       14.5010    6.9500   19.2950 N.am  383  GLN383     -0.0878
    111  N         22.5010    2.5700   20.0650 N.3   386  PHE386     -0.1241
    112  CA        23.2060    3.7720   20.5250 C.3   386  PHE386      0.1605
    113  C         23.5030    3.7410   22.0240 C.2   386  PHE386      0.2264
    114  O         24.2580    4.5890   22.5060 O.2   386  PHE386     -0.2867
    115  CB        22.3810    5.0370   20.1770 C.3   386  PHE386      0.0534
    116  CG        22.3240    5.4790   18.7320 C.ar  386  PHE386     -0.0203
    117  CD1       23.1010    4.8540   17.7600 C.ar  386  PHE386     -0.0042
    118  CD2       21.5430    6.5660   18.3540 C.ar  386  PHE386     -0.0042
    119  CE1       23.0980    5.3070   16.4400 C.ar  386  PHE386     -0.0003
    120  CE2       21.5130    6.9990   17.0200 C.ar  386  PHE386     -0.0003
    121  CZ        22.3000    6.3770   16.0760 C.ar  386  PHE386     -0.0000
    122  N         30.2960    5.4710   13.5550 N.3   396  LEU396     -0.1245
    123  CA        30.0210    6.8290   13.0650 C.3   396  LEU396      0.1561
    124  C         31.2800    7.6530   12.8040 C.2   396  LEU396      0.2260
    125  O         31.3020    8.4430   11.8650 O.2   396  LEU396     -0.2867
    126  CB        28.9820    7.5590   13.9560 C.3   396  LEU396      0.0270
    127  CG        27.5740    6.9420   13.9520 C.3   396  LEU396      0.0019
    128  CD1       26.7710    7.3800   15.1380 C.3   396  LEU396      0.0001
    129  CD2       26.8280    7.2840   12.6820 C.3   396  LEU396      0.0001
    130  N         23.6740    9.9200    5.9890 N.3   407  LEU407     -0.1245
    131  CA        22.5930   10.4750    6.8120 C.3   407  LEU407      0.1561
    132  C         21.7900   11.5780    6.1490 C.2   407  LEU407      0.2260
    133  O         20.5590   11.5120    6.1170 O.2   407  LEU407     -0.2867
    134  CB        23.1370   10.9590    8.1680 C.3   407  LEU407      0.0270
    135  CG        23.5920    9.8760    9.1300 C.3   407  LEU407      0.0019
    136  CD1       24.2750   10.4920   10.3210 C.3   407  LEU407      0.0001
    137  CD2       22.4300    9.0190    9.5870 C.3   407  LEU407      0.0001
    138  N         16.8320    1.3740    8.3410 N.3   418  MET418     -0.1245
    139  CA        16.8150    1.4550    9.8040 C.3   418  MET418      0.1570
    140  C         16.0640    0.4100   10.6240 C.2   418  MET418      0.2261
    141  O         15.9480    0.5540   11.8480 O.2   418  MET418     -0.2867
    142  CB        16.5620    2.8640   10.3060 C.3   418  MET418      0.0387
    143  CG        17.8000    3.5450   10.7870 C.3   418  MET418      0.0595
    144  SD        17.5290    5.3290   10.9160 S.3   418  MET418     -0.1393
    145  CE        17.1320    5.6810    9.2240 C.3   418  MET418      0.0692
    146  N         24.5730    0.7000   11.5700 N.3   427  LEU427     -0.1245
    147  CA        23.7760    1.6440   10.7930 C.3   427  LEU427      0.1561
    148  C         24.0490    1.5480    9.2960 C.2   427  LEU427      0.2260
    149  O         23.0990    1.5790    8.5120 O.2   427  LEU427     -0.2867
    150  CB        24.0540    3.0970   11.2640 C.3   427  LEU427      0.0270
    151  CG        22.9490    3.8850   12.0050 C.3   427  LEU427      0.0019
    152  CD1       21.6570    3.9900   11.1990 C.3   427  LEU427      0.0001
    153  CD2       22.6960    3.3410   13.3780 C.3   427  LEU427      0.0001
    154  N         21.0690   10.3540   23.8580 N.3   465  TYR465     -0.1241
    155  CA        20.2220    9.1420   23.8480 C.3   465  TYR465      0.1605
    156  C         20.4350    8.2720   25.0730 C.2   465  TYR465      0.2264
    157  O         19.6890    7.3090   25.2590 O.2   465  TYR465     -0.2867
    158  CB        20.6320    8.2500   22.6640 C.3   465  TYR465      0.0534
    159  CG        20.2890    8.7760   21.2940 C.ar  465  TYR465     -0.0201
    160  CD1       19.0850    8.4390   20.6810 C.ar  465  TYR465     -0.0009
    161  CD2       21.2000    9.5370   20.5700 C.ar  465  TYR465     -0.0009
    162  CE1       18.7860    8.8720   19.3940 C.ar  465  TYR465      0.0417
    163  CE2       20.9040    9.9900   19.2890 C.ar  465  TYR465      0.0417
    164  CZ        19.7000    9.6440   18.7020 C.ar  465  TYR465      0.1957
    165  OH        19.4100   10.0860   17.4460 O.3   465  TYR465     -0.2866
    166  N         17.7380    8.1220   28.8900 N.3   468  MET468     -0.1245
    167  CA        16.3130    7.8020   28.7600 C.3   468  MET468      0.1570
    168  C         15.5850    7.6810   30.1040 C.2   468  MET468      0.2261
    169  O         14.5130    8.2590   30.2500 O.2   468  MET468     -0.2867
    170  CB        16.0540    6.5940   27.8260 C.3   468  MET468      0.0387
    171  CG        16.5430    6.7810   26.3640 C.3   468  MET468      0.0595
    172  SD        16.0420    8.2820   25.4330 S.3   468  MET468     -0.1393
    173  CE        16.6390    7.8800   23.8480 C.3   468  MET468      0.0692
    174  N         11.0850    8.8240   10.9190 N.3   497  VAL497     -0.1231
    175  CA        11.4710    8.6550   12.3200 C.3   497  VAL497      0.1692
    176  C         10.4320    9.4250   13.1440 C.2   497  VAL497      0.2591
    177  O          9.7990    8.8550   14.0330 O.2   497  VAL497     -0.2718
    178  CB        12.9160    9.1630   12.5980 C.3   497  VAL497      0.0266
    179  CG1       13.2100    9.2320   14.0990 C.3   497  VAL497      0.0020
    180  CG2       13.9520    8.2990   11.8800 C.3   497  VAL497      0.0020
    181  N         10.2630   10.7190   12.8290 N.am  498  LEU498     -0.1980
    182  CA         9.3410   11.6350   13.5130 C.3   498  LEU498      0.1596
    183  C          8.1750   11.9030   12.5830 C.2   498  LEU498      0.2287
    184  O          8.1180   12.9290   11.8970 O.2   498  LEU498     -0.2864
    185  CB        10.0690   12.9350   13.9490 C.3   498  LEU498      0.0297
    186  CG        11.3220   12.7430   14.8370 C.3   498  LEU498      0.0022
    187  CD1       12.0420   14.0680   15.0690 C.3   498  LEU498      0.0001
    188  CD2       10.9530   12.1370   16.1880 C.3   498  LEU498      0.0001
    189  N          2.5560   11.1510   15.0770 N.3   502  MET502     -0.1245
    190  CA         3.0730   11.1080   16.4550 C.3   502  MET502      0.1570
    191  C          2.7290   12.4030   17.2430 C.2   502  MET502      0.2261
    192  O          2.7940   12.4100   18.4750 O.2   502  MET502     -0.2867
    193  CB         4.5920   10.9320   16.4310 C.3   502  MET502      0.0387
    194  CG         5.0400    9.4990   16.3390 C.3   502  MET502      0.0595
    195  SD         6.8080    9.3480   15.9580 S.3   502  MET502     -0.1393
    196  CE         7.5180   10.0360   17.4160 C.3   502  MET502      0.0692
    197  N         13.4270   14.0520    7.0750 N.3   523  HIS523     -0.1226
    198  CA        13.8590   14.3550    8.4410 C.3   523  HIS523      0.1752
    199  C         14.7020   15.6280    8.5990 C.2   523  HIS523      0.2596
    200  O         14.5840   16.3030    9.6160 O.2   523  HIS523     -0.2718
    201  CB        14.5610   13.1510    9.0990 C.3   523  HIS523      0.0759
    202  CG        15.1080   13.4910   10.4460 C.ar  523  HIS523      0.0818
    203  ND1       14.2730   13.6250   11.5430 N.ar  523  HIS523     -0.2268
    204  CD2       16.3650   13.8580   10.8020 C.ar  523  HIS523      0.1154
    205  CE1       15.0520   14.0160   12.5390 C.ar  523  HIS523      0.1986
    206  NE2       16.3210   14.1690   12.1390 N.ar  523  HIS523     -0.2212
    207  N         15.5620   15.9330    7.6220 N.am  524  TRP524     -0.1976
    208  CA        16.4820   17.0720    7.6270 C.3   524  TRP524      0.1640
    209  C         15.7590   18.2770    7.0900 C.2   524  TRP524      0.2290
    210  O         16.2030   18.8890    6.1240 O.2   524  TRP524     -0.2864
    211  CB        17.7490   16.7230    6.8160 C.3   524  TRP524      0.0576
    212  CG        18.2320   15.3360    7.1090 C.ar  524  TRP524      0.0006
    213  CD1       17.9740   14.2150    6.3790 C.ar  524  TRP524      0.0946
    214  CD2       18.8760   14.8900    8.3190 C.ar  524  TRP524      0.0152
    215  NE1       18.4250   13.0990    7.0470 N.ar  524  TRP524     -0.2442
    216  CE2       19.0110   13.4860    8.2260 C.ar  524  TRP524      0.0810
    217  CE3       19.3800   15.5450    9.4560 C.ar  524  TRP524      0.0012
    218  CZ2       19.6320   12.7260    9.2220 C.ar  524  TRP524      0.0191
    219  CZ3       19.9790   14.7920   10.4490 C.ar  524  TRP524      0.0001
    220  CH2       20.1060   13.4000   10.3270 C.ar  524  TRP524      0.0015
@<TRIPOS>BOND
     1   130   131    1
     2   133   132    2
     3   210   209    2
     4   132   131    1
     5   213   215   ar
     6   213   212   ar
     7   131   134    1
     8   211   212    1
     9   211   208    1
    10   215   216   ar
    11   197   198    1
    12   209   208    1
    13   212   214   ar
    14   207   208    1
    15   207   199   am
    16   134   135    1
    17   216   214   ar
    18   216   218   ar
    19   214   217   ar
    20   138   139    1
    21   198   199    1
    22   198   201    1
    23   149   148    2
    24   199   200    2
    25   201   202    1
    26   135   137    1
    27   135   136    1
    28   218   220   ar
    29   145   144    1
    30   148   147    1
    31   217   219   ar
    32   139   142    1
    33   139   140    1
    34   142   143    1
    35   220   219   ar
    36   202   204   ar
    37   202   203   ar
    38   140   141    2
    39   143   144    1
    40   147   150    1
    41   147   146    1
    42   204   206   ar
    43   174   175    1
    44   152   151    1
    45   150   151    1
    46   203   205   ar
    47   125   124    2
    48   180   178    1
    49   184   183    2
    50   151   153    1
    51   206   205   ar
    52   175   178    1
    53   175   176    1
    54   183   182    1
    55   178   179    1
    56   129   127    1
    57    15    14    2
    58   124   123    1
    59    18    17    1
    60    18    12    1
    61   181   176   am
    62   181   182    1
    63    17    16    1
    64   123   122    1
    65   123   126    1
    66   176   177    2
    67   182   185    1
    68    14    13    1
    69   185   186    1
    70   127   126    1
    71   127   128    1
    72    12    13    1
    73    12     3   am
    74     4     3    2
    75    16    13    1
    76     3     2    1
    77   186   187    1
    78   186   188    1
    79    96    98   ar
    80    96    95   ar
    81   189   190    1
    82    98   100   ar
    83    94    95    1
    84    94    91    1
    85    95    97   ar
    86    25    24   ar
    87    23    24    1
    88    23    20    1
    89    24    26   ar
    90   100   101    1
    91   100    99   ar
    92    49    50    1
    93     9     7   ar
    94     9    11   ar
    95    19    20    1
    96   195   194    1
    97   195   196    1
    98     7     6   ar
    99    97    99   ar
   100   121   119   ar
   101   121   120   ar
   102     2     1    1
   103     2     5    1
   104    79    80    1
   105   194   193    1
   106    91    90    1
   107    91    92    1
   108    20    21    1
   109   193   190    1
   110   119   117   ar
   111   190   191    1
   112    11    10   ar
   113    87    85   ar
   114    87    89   ar
   115     6     5    1
   116     6     8   ar
   117   120   118   ar
   118    85    84   ar
   119    80    81    1
   120    80    83    1
   121    50    51    1
   122    50    53    1
   123   191   192    2
   124    54    53    1
   125    89    88   ar
   126   165   164    1
   127    10     8   ar
   128    81    82    2
   129    92    93    2
   130    92   102   am
   131   117   116   ar
   132    51    56   am
   133    51    52    2
   134    21    27   am
   135    21    22    2
   136    62    56    1
   137    62    61    1
   138    84    83    1
   139    84    86   ar
   140    53    55    1
   141    56    57    1
   142    88    86   ar
   143    27    28    1
   144   118   116   ar
   145    61    60    1
   146   102   103    1
   147    60    57    1
   148   164   163   ar
   149   164   162   ar
   150   116   115    1
   151    57    58    1
   152   163   161   ar
   153   110   108   am
   154   162   160   ar
   155   107   108    1
   156   107   106    1
   157    33    35   ar
   158    33    32   ar
   159    28    31    1
   160    28    29    1
   161   103   106    1
   162   103   104    1
   163    31    32    1
   164   111   112    1
   165   108   109    2
   166   115   112    1
   167    35    36   ar
   168    58    59    2
   169    29    30    2
   170    32    34   ar
   171   112   113    1
   172   161   159   ar
   173   160   159   ar
   174    74    73    2
   175   104   105    2
   176    70    68    1
   177    41    42    1
   178   159   158    1
   179    36    34   ar
   180    36    38   ar
   181    34    37   ar
   182    68    67    1
   183    73    72    1
   184   113   114    2
   185    76    78    1
   186    76    75    1
   187    38    40   ar
   188    42    45    1
   189    42    43    1
   190   158   155    1
   191    45    46    1
   192    72    75    1
   193    72    71    1
   194    37    39   ar
   195    77    75    1
   196    67    69    1
   197    67    64    1
   198    63    64    1
   199    40    39   ar
   200    47    46    1
   201    47    48    1
   202    43    44    2
   203   173   172    1
   204   155   154    1
   205   155   156    1
   206    64    65    1
   207   156   157    2
   208   172   171    1
   209    65    66    2
   210   171   170    1
   211   170   167    1
   212   167   166    1
   213   167   168    1
   214   168   169    2
