@<TRIPOS>MOLECULE
tmp/5am2A03.pdb
 173 173 0 0 0
SMALL
GASTEIGER

@<TRIPOS>ATOM
      1  N        -18.0820  -15.7040   30.0830 N.3   304  MET304     -0.1245
      2  CA       -17.2550  -16.8700   29.7790 C.3   304  MET304      0.1570
      3  C        -17.2770  -17.9600   30.8430 C.2   304  MET304      0.2261
      4  O        -17.3590  -19.1450   30.5020 O.2   304  MET304     -0.2867
      5  CB       -15.8280  -16.4600   29.4160 C.3   304  MET304      0.0387
      6  CG       -15.7280  -15.7760   28.0530 C.3   304  MET304      0.0595
      7  SD       -15.2300  -16.8590   26.6860 S.3   304  MET304     -0.1393
      8  CE       -16.6570  -17.8920   26.5660 C.3   304  MET304      0.0692
      9  N        -16.2030  -16.2510   18.4680 N.3   330  TRP330     -0.1241
     10  CA       -16.4560  -16.3550   19.9090 C.3   330  TRP330      0.1605
     11  C        -16.2800  -17.7780   20.4370 C.2   330  TRP330      0.2264
     12  O        -15.8300  -17.9440   21.5710 O.2   330  TRP330     -0.2867
     13  CB       -17.8560  -15.8530   20.2920 C.3   330  TRP330      0.0550
     14  CG       -17.7970  -14.5020   20.9440 C.ar  330  TRP330      0.0003
     15  CD1      -18.3360  -13.3430   20.4650 C.ar  330  TRP330      0.0946
     16  CD2      -17.1240  -14.1590   22.1640 C.ar  330  TRP330      0.0152
     17  NE1      -18.0510  -12.3030   21.3210 N.ar  330  TRP330     -0.2442
     18  CE2      -17.3030  -12.7730   22.3660 C.ar  330  TRP330      0.0810
     19  CE3      -16.3620  -14.8800   23.0960 C.ar  330  TRP330      0.0012
     20  CZ2      -16.8060  -12.1080   23.4980 C.ar  330  TRP330      0.0191
     21  CZ3      -15.8680  -14.2190   24.2170 C.ar  330  TRP330      0.0001
     22  CH2      -16.0750  -12.8450   24.3970 C.ar  330  TRP330      0.0015
     23  N        -12.6650  -18.2810   21.2280 N.3   333  MET333     -0.1245
     24  CA       -12.2560  -17.7510   22.5280 C.3   333  MET333      0.1570
     25  C        -12.7650  -18.6790   23.6640 C.2   333  MET333      0.2261
     26  O        -12.0200  -18.9580   24.6080 O.2   333  MET333     -0.2867
     27  CB       -12.7250  -16.3040   22.7430 C.3   333  MET333      0.0387
     28  CG       -11.9180  -15.5560   23.8440 C.3   333  MET333      0.0595
     29  SD       -10.1170  -15.4390   23.5330 S.3   333  MET333     -0.1393
     30  CE       -10.0930  -14.0670   22.3690 C.3   333  MET333      0.0692
     31  N        -10.3800  -20.8700   26.6990 N.3   337  TYR337     -0.1241
     32  CA       -10.6700  -20.8080   28.1250 C.3   337  TYR337      0.1605
     33  C        -11.1170  -22.1410   28.7270 C.2   337  TYR337      0.2264
     34  O        -10.8380  -22.4110   29.9100 O.2   337  TYR337     -0.2867
     35  CB       -11.5450  -19.5910   28.4790 C.3   337  TYR337      0.0534
     36  CG       -10.6840  -18.3420   28.5060 C.ar  337  TYR337     -0.0201
     37  CD1      -10.3550  -17.6740   27.3310 C.ar  337  TYR337     -0.0009
     38  CD2      -10.0910  -17.9080   29.6890 C.ar  337  TYR337     -0.0009
     39  CE1       -9.4960  -16.5680   27.3400 C.ar  337  TYR337      0.0417
     40  CE2       -9.2170  -16.8210   29.7080 C.ar  337  TYR337      0.0417
     41  CZ        -8.9370  -16.1430   28.5340 C.ar  337  TYR337      0.1957
     42  OH        -8.0990  -15.0540   28.5480 O.3   337  TYR337     -0.2866
     43  N         -6.2040  -14.9060   23.8610 N.3   357  ILE357     -0.1231
     44  CA        -5.9510  -13.5550   24.3620 C.3   357  ILE357      0.1678
     45  C         -6.0510  -13.5560   25.8700 C.2   357  ILE357      0.2434
     46  O         -7.1500  -13.7690   26.4140 O.2   357  ILE357     -0.2733
     47  CB        -6.8890  -12.4870   23.7030 C.3   357  ILE357      0.0265
     48  CG1       -6.6540  -12.3630   22.1670 C.3   357  ILE357      0.0019
     49  CG2       -6.7910  -11.1140   24.4050 C.3   357  ILE357      0.0020
     50  CD1       -5.1890  -11.9130   21.6730 C.3   357  ILE357      0.0001
     51  N         -4.8960  -13.3430   26.5460 N.am  358  PRO358     -0.2718
     52  CA        -4.9070  -13.2700   28.0080 C.3   358  PRO358      0.1535
     53  C         -5.3710  -11.9010   28.4730 C.2   358  PRO358      0.2598
     54  O         -5.4070  -10.9340   27.6970 O.2   358  PRO358     -0.2715
     55  CB        -3.4400  -13.4870   28.3850 C.3   358  PRO358      0.0310
     56  CG        -2.6720  -13.0230   27.2190 C.3   358  PRO358      0.0237
     57  CD        -3.5390  -13.1180   26.0030 C.3   358  PRO358      0.0939
     58  N         -5.7040  -11.8140   29.7460 N.am  359  ALA359     -0.1978
     59  CA        -6.0800  -10.5490   30.3450 C.3   359  ALA359      0.1597
     60  C         -4.7960   -9.7540   30.6200 C.2   359  ALA359      0.2287
     61  O         -3.7720  -10.3380   30.9650 O.2   359  ALA359     -0.2864
     62  CB        -6.8110  -10.8040   31.6490 C.3   359  ALA359      0.0319
     63  N         -9.0460   -2.8950   24.6820 N.3   369  ILE369     -0.1245
     64  CA        -9.8130   -3.0700   23.4320 C.3   369  ILE369      0.1561
     65  C         -9.6600   -1.8570   22.5020 C.2   369  ILE369      0.2260
     66  O         -9.4350   -2.0440   21.3040 O.2   369  ILE369     -0.2867
     67  CB       -11.2990   -3.5380   23.6160 C.3   369  ILE369      0.0252
     68  CG1      -11.9770   -3.8170   22.2470 C.3   369  ILE369      0.0019
     69  CG2      -12.1210   -2.5660   24.4550 C.3   369  ILE369      0.0019
     70  CD1      -13.5050   -3.9150   22.2040 C.3   369  ILE369      0.0001
     71  N        -11.5520   -3.5980   16.4940 N.3   375  PHE375     -0.1241
     72  CA       -12.6710   -3.9970   17.3470 C.3   375  PHE375      0.1605
     73  C        -13.6400   -2.8630   17.6550 C.2   375  PHE375      0.2264
     74  O        -14.5790   -3.0830   18.4140 O.2   375  PHE375     -0.2867
     75  CB       -12.1630   -4.6430   18.6520 C.3   375  PHE375      0.0534
     76  CG       -11.3600   -5.9060   18.4550 C.ar  375  PHE375     -0.0203
     77  CD1      -11.9670   -7.0760   18.0160 C.ar  375  PHE375     -0.0042
     78  CD2      -10.0060   -5.9380   18.7570 C.ar  375  PHE375     -0.0042
     79  CE1      -11.2290   -8.2540   17.8680 C.ar  375  PHE375     -0.0003
     80  CE2       -9.2590   -7.1010   18.5680 C.ar  375  PHE375     -0.0003
     81  CZ        -9.8800   -8.2560   18.1480 C.ar  375  PHE375     -0.0000
     82  N        -17.3070   -3.4750   17.9270 N.3   378  GLN378     -0.1245
     83  CA       -17.8380   -4.1410   19.1170 C.3   378  GLN378      0.1566
     84  C        -18.3810   -3.1430   20.1530 C.2   378  GLN378      0.2260
     85  O        -19.1780   -3.5320   20.9980 O.2   378  GLN378     -0.2867
     86  CB       -16.8060   -5.0920   19.7340 C.3   378  GLN378      0.0367
     87  CG       -16.3220   -6.1180   18.7170 C.3   378  GLN378      0.0905
     88  CD       -15.5040   -7.2400   19.2660 C.2   378  GLN378      0.2608
     89  OE1      -15.2760   -7.3510   20.4730 O.2   378  GLN378     -0.2717
     90  NE2      -15.1000   -8.1340   18.3680 N.am  378  GLN378     -0.0878
     91  N        -22.9260  -12.0970   24.3460 N.3   455  TRP455     -0.1227
     92  CA       -21.5540  -12.6580   24.4170 C.3   455  TRP455      0.1737
     93  C        -20.5050  -11.5290   24.4810 C.2   455  TRP455      0.2595
     94  O        -19.4550  -11.7330   25.0670 O.2   455  TRP455     -0.2718
     95  CB       -21.2530  -13.5550   23.2060 C.3   455  TRP455      0.0564
     96  CG       -21.8600  -14.9300   23.2820 C.ar  455  TRP455      0.0003
     97  CD1      -23.1840  -15.2500   23.2250 C.ar  455  TRP455      0.0946
     98  CD2      -21.1430  -16.1770   23.2870 C.ar  455  TRP455      0.0152
     99  NE1      -23.3410  -16.6200   23.2620 N.ar  455  TRP455     -0.2442
    100  CE2      -22.1030  -17.2100   23.3180 C.ar  455  TRP455      0.0810
    101  CE3      -19.7720  -16.5200   23.3210 C.ar  455  TRP455      0.0012
    102  CZ2      -21.7430  -18.5680   23.3280 C.ar  455  TRP455      0.0191
    103  CZ3      -19.4200  -17.8670   23.3420 C.ar  455  TRP455      0.0001
    104  CH2      -20.4000  -18.8670   23.3300 C.ar  455  TRP455      0.0015
    105  N        -20.8080  -10.3400   23.9100 N.am  456  TYR456     -0.1976
    106  CA       -19.8790   -9.1790   23.8950 C.3   456  TYR456      0.1639
    107  C        -20.0590   -8.2520   25.0720 C.2   456  TYR456      0.2290
    108  O        -19.2970   -7.2910   25.2210 O.2   456  TYR456     -0.2864
    109  CB       -20.1520   -8.3230   22.6340 C.3   456  TYR456      0.0560
    110  CG       -19.7990   -8.9820   21.3350 C.ar  456  TYR456     -0.0198
    111  CD1      -18.5180   -8.8810   20.8030 C.ar  456  TYR456     -0.0009
    112  CD2      -20.7380   -9.7370   20.6380 C.ar  456  TYR456     -0.0009
    113  CE1      -18.1950   -9.4780   19.5810 C.ar  456  TYR456      0.0417
    114  CE2      -20.4290  -10.3290   19.4190 C.ar  456  TYR456      0.0417
    115  CZ       -19.1570  -10.1980   18.8930 C.ar  456  TYR456      0.1957
    116  OH       -18.8620  -10.8170   17.7050 O.3   456  TYR456     -0.2866
    117  N        -19.8840   -8.7860   28.3830 N.3   458  ASN458     -0.1225
    118  CA       -19.3230   -9.2620   29.6420 C.3   458  ASN458      0.1785
    119  C        -17.8440   -9.0260   29.7560 C.2   458  ASN458      0.2597
    120  O        -17.1820   -9.7560   30.5080 O.2   458  ASN458     -0.2718
    121  CB       -19.6360  -10.7520   29.8150 C.3   458  ASN458      0.1169
    122  CG       -21.0870  -10.9850   30.1340 C.2   458  ASN458      0.2627
    123  OD1      -21.4960  -10.8880   31.2830 O.2   458  ASN458     -0.2716
    124  ND2      -21.8950  -11.3380   29.1380 N.am  458  ASN458     -0.0877
    125  N        -17.3200   -7.9800   29.0780 N.am  459  MET459     -0.1979
    126  CA       -15.8740   -7.6790   29.0960 C.3   459  MET459      0.1605
    127  C        -15.2680   -7.6010   30.4850 C.2   459  MET459      0.2287
    128  O        -14.2150   -8.1960   30.7150 O.2   459  MET459     -0.2864
    129  CB       -15.5310   -6.3990   28.2950 C.3   459  MET459      0.0413
    130  CG       -15.9400   -6.4730   26.8420 C.3   459  MET459      0.0598
    131  SD       -15.3030   -5.1670   25.7520 S.3   459  MET459     -0.1393
    132  CE       -16.4820   -3.8830   26.0640 C.3   459  MET459      0.0692
    133  N        -15.4550  -11.0330   32.3270 N.3   462  ASN462     -0.1225
    134  CA       -14.5200  -11.9470   31.6510 C.3   462  ASN462      0.1785
    135  C        -13.0850  -11.6190   31.9900 C.2   462  ASN462      0.2597
    136  O        -12.2800  -12.5310   32.1810 O.2   462  ASN462     -0.2718
    137  CB       -14.7260  -11.9480   30.1360 C.3   462  ASN462      0.1169
    138  CG       -16.0300  -12.5620   29.6940 C.2   462  ASN462      0.2627
    139  OD1      -16.6790  -13.3210   30.4440 O.2   462  ASN462     -0.2716
    140  ND2      -16.4090  -12.2970   28.4480 N.am  462  ASN462     -0.0877
    141  N        -12.7640  -10.3150   32.0970 N.am  463  TRP463     -0.1976
    142  CA       -11.4070   -9.8750   32.4500 C.3   463  TRP463      0.1640
    143  C        -11.0570  -10.3400   33.8770 C.2   463  TRP463      0.2290
    144  O         -9.9900  -10.9190   34.0760 O.2   463  TRP463     -0.2864
    145  CB       -11.2850   -8.3590   32.2820 C.3   463  TRP463      0.0576
    146  CG        -9.9430   -7.7930   32.6350 C.ar  463  TRP463      0.0006
    147  CD1       -8.8740   -7.6300   31.8030 C.ar  463  TRP463      0.0946
    148  CD2       -9.5560   -7.2390   33.9020 C.ar  463  TRP463      0.0152
    149  NE1       -7.8280   -7.0480   32.4860 N.ar  463  TRP463     -0.2442
    150  CE2       -8.2260   -6.7770   33.7690 C.ar  463  TRP463      0.0810
    151  CE3      -10.1920   -7.1290   35.1520 C.ar  463  TRP463      0.0012
    152  CZ2       -7.5180   -6.2060   34.8390 C.ar  463  TRP463      0.0191
    153  CZ3       -9.4840   -6.5780   36.2170 C.ar  463  TRP463      0.0001
    154  CH2       -8.1660   -6.1170   36.0510 C.ar  463  TRP463      0.0015
    155  N        -12.3540  -12.8610   35.5730 N.3   465  TRP465     -0.1227
    156  CA       -12.2220  -14.3160   35.5330 C.3   465  TRP465      0.1737
    157  C        -10.9020  -14.7330   34.8880 C.2   465  TRP465      0.2595
    158  O        -10.1780  -15.5600   35.4610 O.2   465  TRP465     -0.2718
    159  CB       -13.4440  -14.9310   34.8080 C.3   465  TRP465      0.0564
    160  CG       -13.5000  -16.4330   34.8500 C.ar  465  TRP465      0.0003
    161  CD1      -13.7030  -17.2230   35.9460 C.ar  465  TRP465      0.0946
    162  CD2      -13.5010  -17.3090   33.7140 C.ar  465  TRP465      0.0152
    163  NE1      -13.7500  -18.5500   35.5670 N.ar  465  TRP465     -0.2442
    164  CE2      -13.6690  -18.6250   34.1970 C.ar  465  TRP465      0.0810
    165  CE3      -13.3530  -17.1040   32.3330 C.ar  465  TRP465      0.0012
    166  CZ2      -13.6960  -19.7380   33.3400 C.ar  465  TRP465      0.0191
    167  CZ3      -13.3830  -18.2060   31.4830 C.ar  465  TRP465      0.0001
    168  CH2      -13.5780  -19.4990   31.9860 C.ar  465  TRP465      0.0015
    169  N        -10.5640  -14.1570   33.7140 N.am  466  ALA466     -0.1980
    170  CA        -9.3330  -14.4770   32.9750 C.3   466  ALA466      0.1597
    171  C         -8.0690  -14.2000   33.8010 C.2   466  ALA466      0.2287
    172  O         -7.1010  -14.9560   33.7170 O.2   466  ALA466     -0.2864
    173  CB        -9.2830  -13.7080   31.6640 C.3   466  ALA466      0.0319
@<TRIPOS>BOND
     1    71    72    1
     2    72    73    1
     3    72    75    1
     4    73    74    2
     5   116   115    1
     6    79    77   ar
     7    79    81   ar
     8    82    83    1
     9    77    76   ar
    10    81    80   ar
    11    90    88   am
    12    76    75    1
    13    76    78   ar
    14     9    10    1
    15    80    78   ar
    16    87    88    1
    17    87    86    1
    18   115   114   ar
    19   115   113   ar
    20    83    86    1
    21    83    84    1
    22    88    89    2
    23   114   112   ar
    24   113   111   ar
    25    10    13    1
    26    10    11    1
    27    84    85    2
    28    13    14    1
    29    11    12    2
    30    15    14   ar
    31    15    17   ar
    32   112   110   ar
    33   111   110   ar
    34    14    16   ar
    35    23    24    1
    36    66    65    2
    37    17    18   ar
    38   110   109    1
    39    50    48    1
    40    16    18   ar
    41    16    19   ar
    42    48    47    1
    43    70    68    1
    44    68    67    1
    45    18    20   ar
    46    30    29    1
    47    65    64    1
    48    24    27    1
    49    24    25    1
    50   109   106    1
    51    27    28    1
    52    19    21   ar
    53    95    96    1
    54    95    92    1
    55    97    99   ar
    56    97    96   ar
    57    99   100   ar
    58    96    98   ar
    59    98   100   ar
    60    98   101   ar
    61   100   102   ar
    62   101   103   ar
    63   102   104   ar
    64   104   103   ar
    65    64    67    1
    66    64    63    1
    67    20    22   ar
    68    29    28    1
    69    67    69    1
    70    25    26    2
    71    47    44    1
    72    47    49    1
    73    43    44    1
    74   106   105    1
    75   106   107    1
    76   105    93   am
    77    21    22   ar
    78    91    92    1
    79    44    45    1
    80    92    93    1
    81    93    94    2
    82   107   108    2
    83   131   132    1
    84   131   130    1
    85    45    46    2
    86    45    51   am
    87    57    51    1
    88    57    56    1
    89    51    52    1
    90     8     7    1
    91     7     6    1
    92    31    32    1
    93   130   129    1
    94    56    55    1
    95    37    39   ar
    96    37    36   ar
    97    39    41   ar
    98    54    53    2
    99    52    55    1
   100    52    53    1
   101     6     5    1
   102    32    35    1
   103    32    33    1
   104   129   126    1
   105   117   118    1
   106   140   138   am
   107    53    58   am
   108    35    36    1
   109    36    38   ar
   110    41    42    1
   111    41    40   ar
   112    33    34    2
   113   125   126    1
   114   125   119   am
   115   126   127    1
   116   124   122   am
   117     5     2    1
   118   118   119    1
   119   118   121    1
   120    38    40   ar
   121   138   137    1
   122   138   139    2
   123    58    59    1
   124   119   120    2
   125     2     1    1
   126     2     3    1
   127   121   122    1
   128   122   123    2
   129   137   134    1
   130    59    60    1
   131    59    62    1
   132   127   128    2
   133     4     3    2
   134    60    61    2
   135   167   168   ar
   136   167   165   ar
   137   134   135    1
   138   134   133    1
   139   173   170    1
   140   147   149   ar
   141   147   146   ar
   142   168   166   ar
   143   135   141   am
   144   135   136    2
   145   141   142    1
   146   145   142    1
   147   145   146    1
   148   165   162   ar
   149   142   143    1
   150   149   150   ar
   151   146   148   ar
   152   170   169    1
   153   170   171    1
   154   166   164   ar
   155   169   157   am
   156   162   164   ar
   157   162   160   ar
   158   172   171    2
   159   150   148   ar
   160   150   152   ar
   161   143   144    2
   162   148   151   ar
   163   164   163   ar
   164   159   160    1
   165   159   156    1
   166   152   154   ar
   167   160   161   ar
   168   157   158    2
   169   157   156    1
   170   151   153   ar
   171   156   155    1
   172   163   161   ar
   173   154   153   ar
