@<TRIPOS>MOLECULE
tmp/5am2A01.pdb
 137 132 0 0 0
SMALL
GASTEIGER

@<TRIPOS>ATOM
      1  N        -20.0950  -15.7130   16.2770 N.3   261  PHE261     -0.1228
      2  CA       -21.1980  -14.7730   16.1610 C.3   261  PHE261      0.1721
      3  C        -21.3490  -14.2470   14.7460 C.2   261  PHE261      0.2437
      4  O        -20.3530  -13.8090   14.1530 O.2   261  PHE261     -0.2733
      5  CB       -20.9490  -13.5850   17.1140 C.3   261  PHE261      0.0547
      6  CG       -21.9240  -12.4340   16.9720 C.ar  261  PHE261     -0.0202
      7  CD1      -21.6850  -11.4070   16.0610 C.ar  261  PHE261     -0.0042
      8  CD2      -23.0970  -12.3960   17.7240 C.ar  261  PHE261     -0.0042
      9  CE1      -22.5880  -10.3360   15.9340 C.ar  261  PHE261     -0.0003
     10  CE2      -23.9870  -11.3130   17.6170 C.ar  261  PHE261     -0.0003
     11  CZ       -23.7330  -10.3010   16.7050 C.ar  261  PHE261     -0.0000
     12  N        -22.5890  -14.1400   14.2210 N.am  262  PRO262     -0.2729
     13  CA       -23.8850  -14.6250   14.7430 C.3   262  PRO262      0.1401
     14  C        -24.1680  -15.8680   13.9080 C.2   262  PRO262      0.2269
     15  O        -24.6810  -15.7980   12.7910 O.2   262  PRO262     -0.2865
     16  CB       -24.8370  -13.4740   14.3760 C.3   262  PRO262      0.0296
     17  CG       -24.1660  -12.7880   13.1250 C.3   262  PRO262      0.0237
     18  CD       -22.7980  -13.4450   12.9400 C.3   262  PRO262      0.0939
     19  N        -14.2100  -17.8290   15.9760 N.3   329  ASP329     -0.1239
     20  CA       -14.6930  -16.5300   16.4760 C.3   329  ASP329      0.1674
     21  C        -14.9880  -16.6150   17.9790 C.2   329  ASP329      0.2266
     22  O        -14.1090  -17.0770   18.7000 O.2   329  ASP329     -0.2867
     23  CB       -15.8830  -16.0700   15.6120 C.3   329  ASP329      0.1410
     24  CG       -16.4320  -14.6970   15.9750 C.2   329  ASP329      0.3668
     25  OD1      -15.8430  -13.6870   15.5310 O.co2 329  ASP329     -0.2456
     26  OD2      -17.4620  -14.6360   16.6940 O.co2 329  ASP329     -0.2456
     27  N         -9.4610   -2.3850   15.2340 N.3   374  VAL374     -0.1245
     28  CA       -10.2810   -3.2860   14.3970 C.3   374  VAL374      0.1561
     29  C        -11.5580   -3.7300   15.1540 C.2   374  VAL374      0.2260
     30  O        -12.5180   -4.1660   14.5280 O.2   374  VAL374     -0.2867
     31  CB        -9.5070   -4.5120   13.8370 C.3   374  VAL374      0.0252
     32  CG1       -8.4350   -4.0950   12.8290 C.3   374  VAL374      0.0019
     33  CG2       -8.9170   -5.3770   14.9510 C.3   374  VAL374      0.0019
     34  N        -16.0870   -1.6700   16.1220 N.3   377  TYR377     -0.1241
     35  CA       -17.4380   -2.1380   15.8170 C.3   377  TYR377      0.1605
     36  C        -18.1030   -2.8570   17.0180 C.2   377  TYR377      0.2264
     37  O        -19.3220   -2.8470   17.1200 O.2   377  TYR377     -0.2867
     38  CB       -17.4320   -3.0230   14.5520 C.3   377  TYR377      0.0534
     39  CG       -17.0300   -4.4620   14.8190 C.ar  377  TYR377     -0.0201
     40  CD1      -15.6900   -4.8400   14.8410 C.ar  377  TYR377     -0.0009
     41  CD2      -17.9870   -5.4410   15.0620 C.ar  377  TYR377     -0.0009
     42  CE1      -15.3130   -6.1510   15.1240 C.ar  377  TYR377      0.0417
     43  CE2      -17.6230   -6.7570   15.3490 C.ar  377  TYR377      0.0417
     44  CZ       -16.2830   -7.1120   15.3620 C.ar  377  TYR377      0.1957
     45  OH       -15.9030   -8.4060   15.6320 O.3   377  TYR377     -0.2866
     46  N        -22.0220   -2.8150   19.8080 N.3   381  PHE381     -0.1241
     47  CA       -22.7580   -3.9320   20.4150 C.3   381  PHE381      0.1605
     48  C        -23.0550   -3.7570   21.8890 C.2   381  PHE381      0.2264
     49  O        -23.8100   -4.5590   22.4390 O.2   381  PHE381     -0.2867
     50  CB       -21.9700   -5.2470   20.2220 C.3   381  PHE381      0.0534
     51  CG       -21.8030   -5.7560   18.8130 C.ar  381  PHE381     -0.0203
     52  CD1      -22.4990   -5.1750   17.7510 C.ar  381  PHE381     -0.0042
     53  CD2      -20.9600   -6.8260   18.5420 C.ar  381  PHE381     -0.0042
     54  CE1      -22.3720   -5.6680   16.4560 C.ar  381  PHE381     -0.0003
     55  CE2      -20.8190   -7.3090   17.2370 C.ar  381  PHE381     -0.0003
     56  CZ       -21.5280   -6.7290   16.2050 C.ar  381  PHE381     -0.0000
     57  N        -30.0150   -5.4620   13.5170 N.3   391  LEU391     -0.1245
     58  CA       -29.7610   -6.8110   13.0000 C.3   391  LEU391      0.1561
     59  C        -31.0350   -7.6270   12.7750 C.2   391  LEU391      0.2260
     60  O        -31.0870   -8.4120   11.8330 O.2   391  LEU391     -0.2867
     61  CB       -28.7500   -7.5410   13.9390 C.3   391  LEU391      0.0270
     62  CG       -27.3270   -6.9340   13.9510 C.3   391  LEU391      0.0019
     63  CD1      -26.5400   -7.3690   15.1940 C.3   391  LEU391      0.0001
     64  CD2      -26.5510   -7.3240   12.6680 C.3   391  LEU391      0.0001
     65  N        -23.4820   -9.9220    6.0420 N.3   402  LEU402     -0.1245
     66  CA       -22.3620  -10.4210    6.8270 C.3   402  LEU402      0.1561
     67  C        -21.5500  -11.5100    6.1730 C.2   402  LEU402      0.2260
     68  O        -20.3170  -11.4490    6.2070 O.2   402  LEU402     -0.2867
     69  CB       -22.8660  -10.9150    8.2060 C.3   402  LEU402      0.0270
     70  CG       -23.3490   -9.8580    9.1820 C.3   402  LEU402      0.0019
     71  CD1      -23.9870  -10.5080   10.4110 C.3   402  LEU402      0.0001
     72  CD2      -22.2420   -8.9220    9.5890 C.3   402  LEU402      0.0001
     73  N        -19.8350   -3.6040    3.9230 N.3   411  LEU411     -0.1245
     74  CA       -19.8460   -2.9690    5.2390 C.3   411  LEU411      0.1561
     75  C        -18.6590   -2.0340    5.4200 C.2   411  LEU411      0.2260
     76  O        -18.8480   -0.8240    5.5110 O.2   411  LEU411     -0.2867
     77  CB       -19.8350   -4.0720    6.3180 C.3   411  LEU411      0.0270
     78  CG       -21.1650   -4.4740    7.0000 C.3   411  LEU411      0.0019
     79  CD1      -22.3040   -4.6530    6.0090 C.3   411  LEU411      0.0001
     80  CD2      -21.0000   -5.7690    7.7700 C.3   411  LEU411      0.0001
     81  N        -17.9920    2.7740   12.8970 N.3   413  CYS413     -0.1235
     82  CA       -19.3250    2.4560   13.3970 C.3   413  CYS413      0.1677
     83  C        -20.0760    3.6350   13.9990 C.2   413  CYS413      0.2270
     84  O        -21.2250    3.4770   14.4250 O.2   413  CYS413     -0.2867
     85  CB       -19.3430    1.2170   14.2820 C.3   413  CYS413      0.0956
     86  SG       -19.7620   -0.2940   13.3820 S.3   413  CYS413     -0.0801
     87  N        -24.1560   -0.7310   11.4560 N.3   418  LEU418     -0.1245
     88  CA       -23.3420   -1.6070   10.6140 C.3   418  LEU418      0.1561
     89  C        -23.7530   -1.5300    9.1580 C.2   418  LEU418      0.2260
     90  O        -22.9360   -1.8310    8.2900 O.2   418  LEU418     -0.2867
     91  CB       -23.4490   -3.0750   11.0900 C.3   418  LEU418      0.0270
     92  CG       -23.3940   -3.3180   12.6000 C.3   418  LEU418      0.0019
     93  CD1      -24.0090   -4.6400   12.9610 C.3   418  LEU418      0.0001
     94  CD2      -21.9910   -3.1970   13.1370 C.3   418  LEU418      0.0001
     95  N        -20.8080  -10.3400   23.9100 N.3   456  TYR456     -0.1241
     96  CA       -19.8790   -9.1790   23.8950 C.3   456  TYR456      0.1605
     97  C        -20.0590   -8.2520   25.0720 C.2   456  TYR456      0.2264
     98  O        -19.2970   -7.2910   25.2210 O.2   456  TYR456     -0.2867
     99  CB       -20.1520   -8.3230   22.6340 C.3   456  TYR456      0.0534
    100  CG       -19.7990   -8.9820   21.3350 C.ar  456  TYR456     -0.0201
    101  CD1      -18.5180   -8.8810   20.8030 C.ar  456  TYR456     -0.0009
    102  CD2      -20.7380   -9.7370   20.6380 C.ar  456  TYR456     -0.0009
    103  CE1      -18.1950   -9.4780   19.5810 C.ar  456  TYR456      0.0417
    104  CE2      -20.4290  -10.3290   19.4190 C.ar  456  TYR456      0.0417
    105  CZ       -19.1570  -10.1980   18.8930 C.ar  456  TYR456      0.1957
    106  OH       -18.8620  -10.8170   17.7050 O.3   456  TYR456     -0.2866
    107  N        -10.2370   -8.5300   11.0250 N.3   488  VAL488     -0.1245
    108  CA       -10.4530   -8.2340   12.4460 C.3   488  VAL488      0.1561
    109  C         -9.5760   -9.1760   13.2780 C.2   488  VAL488      0.2260
    110  O         -8.7890   -8.7300   14.0970 O.2   488  VAL488     -0.2867
    111  CB       -11.9500   -8.3340   12.8310 C.3   488  VAL488      0.0252
    112  CG1      -12.1490   -8.2550   14.3390 C.3   488  VAL488      0.0019
    113  CG2      -12.7630   -7.2520   12.1310 C.3   488  VAL488      0.0019
    114  N        -13.1440  -14.0350    7.1610 N.3   514  HIS514     -0.1226
    115  CA       -13.6230  -14.3340    8.5270 C.3   514  HIS514      0.1752
    116  C        -14.4140  -15.6340    8.6310 C.2   514  HIS514      0.2596
    117  O        -14.3510  -16.2970    9.6760 O.2   514  HIS514     -0.2718
    118  CB       -14.5080  -13.1980    9.0560 C.3   514  HIS514      0.0759
    119  CG       -15.0080  -13.4500   10.4480 C.ar  514  HIS514      0.0818
    120  ND1      -14.1430  -13.4370   11.5310 N.ar  514  HIS514     -0.2268
    121  CD2      -16.2410  -13.8250   10.8720 C.ar  514  HIS514      0.1154
    122  CE1      -14.8860  -13.7630   12.5830 C.ar  514  HIS514      0.1986
    123  NE2      -16.1520  -13.9980   12.2380 N.ar  514  HIS514     -0.2212
    124  N        -15.2090  -15.9540    7.6120 N.am  515  TRP515     -0.1976
    125  CA       -16.1310  -17.1110    7.6120 C.3   515  TRP515      0.1640
    126  C        -15.4290  -18.3500    7.1290 C.2   515  TRP515      0.2290
    127  O        -15.8630  -18.9950    6.1800 O.2   515  TRP515     -0.2864
    128  CB       -17.3900  -16.7760    6.7950 C.3   515  TRP515      0.0576
    129  CG       -17.8910  -15.3880    7.0890 C.ar  515  TRP515      0.0006
    130  CD1      -17.6620  -14.2610    6.3420 C.ar  515  TRP515      0.0946
    131  CD2      -18.5170  -14.9440    8.3000 C.ar  515  TRP515      0.0152
    132  NE1      -18.1500  -13.1550    6.9910 N.ar  515  TRP515     -0.2442
    133  CE2      -18.6860  -13.5450    8.1960 C.ar  515  TRP515      0.0810
    134  CE3      -18.9780  -15.6040    9.4670 C.ar  515  TRP515      0.0012
    135  CZ2      -19.3080  -12.7960    9.1920 C.ar  515  TRP515      0.0191
    136  CZ3      -19.6030  -14.8560   10.4460 C.ar  515  TRP515      0.0001
    137  CH2      -19.7400  -13.4660   10.3190 C.ar  515  TRP515      0.0015
@<TRIPOS>BOND
     1    73    74    1
     2    74    75    1
     3    74    77    1
     4    75    76    2
     5    79    78    1
     6    65    66    1
     7    67    68    2
     8    67    66    1
     9   127   126    2
    10    77    78    1
    11   130   132   ar
    12   130   129   ar
    13   128   129    1
    14   128   125    1
    15    66    69    1
    16   132   133   ar
    17    78    80    1
    18   129   131   ar
    19   126   125    1
    20   114   115    1
    21   125   124    1
    22   124   116   am
    23   133   131   ar
    24   133   135   ar
    25    69    70    1
    26    90    89    2
    27   131   134   ar
    28   115   116    1
    29   115   118    1
    30   116   117    2
    31   118   119    1
    32    89    88    1
    33    70    72    1
    34    70    71    1
    35   135   137   ar
    36   134   136   ar
    37   137   136   ar
    38   119   121   ar
    39   119   120   ar
    40    88    91    1
    41    88    87    1
    42   121   123   ar
    43   107   108    1
    44    91    92    1
    45   120   122   ar
    46    60    59    2
    47   113   111    1
    48   123   122   ar
    49   108   111    1
    50   108   109    1
    51    92    93    1
    52    92    94    1
    53    64    62    1
    54    59    58    1
    55    15    14    2
    56    32    31    1
    57   111   112    1
    58    81    82    1
    59    18    17    1
    60    18    12    1
    61    58    57    1
    62    58    61    1
    63    17    16    1
    64   109   110    2
    65    86    85    1
    66    82    83    1
    67    82    85    1
    68    31    28    1
    69    31    33    1
    70    14    13    1
    71    61    62    1
    72    62    63    1
    73    83    84    2
    74     4     3    2
    75    12    13    1
    76    12     3   am
    77    16    13    1
    78    28    29    1
    79    28    27    1
    80    30    29    2
    81    38    39    1
    82    38    35    1
    83     3     2    1
    84    39    40   ar
    85    39    41   ar
    86    40    42   ar
    87    41    43   ar
    88    42    44   ar
    89    43    44   ar
    90    44    45    1
    91    25    24   ar
    92    23    24    1
    93    23    20    1
    94    35    34    1
    95    35    36    1
    96     9     7   ar
    97     9    11   ar
    98    24    26   ar
    99    19    20    1
   100     7     6   ar
   101     2     1    1
   102     2     5    1
   103    56    54   ar
   104    56    55   ar
   105    54    52   ar
   106    20    21    1
   107    11    10   ar
   108     6     5    1
   109     6     8   ar
   110    36    37    2
   111    55    53   ar
   112    10     8   ar
   113   106   105    1
   114    52    51   ar
   115    21    22    2
   116    53    51   ar
   117    51    50    1
   118   105   104   ar
   119   105   103   ar
   120   104   102   ar
   121   103   101   ar
   122    46    47    1
   123    50    47    1
   124    47    48    1
   125   102   100   ar
   126   101   100   ar
   127   100    99    1
   128    48    49    2
   129    99    96    1
   130    96    95    1
   131    96    97    1
   132    97    98    2
