@<TRIPOS>MOLECULE
tmp/5am2A04.pdb
 115 110 0 0 0
SMALL
GASTEIGER

@<TRIPOS>ATOM
      1  N        -12.6650  -18.2810   21.2280 N.3   333  MET333     -0.1245
      2  CA       -12.2560  -17.7510   22.5280 C.3   333  MET333      0.1570
      3  C        -12.7650  -18.6790   23.6640 C.2   333  MET333      0.2261
      4  O        -12.0200  -18.9580   24.6080 O.2   333  MET333     -0.2867
      5  CB       -12.7250  -16.3040   22.7430 C.3   333  MET333      0.0387
      6  CG       -11.9180  -15.5560   23.8440 C.3   333  MET333      0.0595
      7  SD       -10.1170  -15.4390   23.5330 S.3   333  MET333     -0.1393
      8  CE       -10.0930  -14.0670   22.3690 C.3   333  MET333      0.0692
      9  N         -6.2040  -14.9060   23.8610 N.3   357  ILE357     -0.1231
     10  CA        -5.9510  -13.5550   24.3620 C.3   357  ILE357      0.1678
     11  C         -6.0510  -13.5560   25.8700 C.2   357  ILE357      0.2434
     12  O         -7.1500  -13.7690   26.4140 O.2   357  ILE357     -0.2733
     13  CB        -6.8890  -12.4870   23.7030 C.3   357  ILE357      0.0265
     14  CG1       -6.6540  -12.3630   22.1670 C.3   357  ILE357      0.0019
     15  CG2       -6.7910  -11.1140   24.4050 C.3   357  ILE357      0.0020
     16  CD1       -5.1890  -11.9130   21.6730 C.3   357  ILE357      0.0001
     17  N         -4.8960  -13.3430   26.5460 N.am  358  PRO358     -0.2718
     18  CA        -4.9070  -13.2700   28.0080 C.3   358  PRO358      0.1535
     19  C         -5.3710  -11.9010   28.4730 C.2   358  PRO358      0.2598
     20  O         -5.4070  -10.9340   27.6970 O.2   358  PRO358     -0.2715
     21  CB        -3.4400  -13.4870   28.3850 C.3   358  PRO358      0.0310
     22  CG        -2.6720  -13.0230   27.2190 C.3   358  PRO358      0.0237
     23  CD        -3.5390  -13.1180   26.0030 C.3   358  PRO358      0.0939
     24  N         -5.7040  -11.8140   29.7460 N.am  359  ALA359     -0.1964
     25  CA        -6.0800  -10.5490   30.3450 C.3   359  ALA359      0.1728
     26  C         -4.7960   -9.7540   30.6200 C.2   359  ALA359      0.2616
     27  O         -3.7720  -10.3380   30.9650 O.2   359  ALA359     -0.2715
     28  CB        -6.8110  -10.8040   31.6490 C.3   359  ALA359      0.0334
     29  N         -4.8500   -8.4310   30.4610 N.am  360  ASN360     -0.1972
     30  CA        -3.7320   -7.5620   30.8290 C.3   360  ASN360      0.1688
     31  C         -4.1330   -7.0630   32.2250 C.2   360  ASN360      0.2292
     32  O         -5.1240   -6.3400   32.3300 O.2   360  ASN360     -0.2864
     33  CB        -3.5520   -6.3900   29.8350 C.3   360  ASN360      0.1181
     34  CG        -2.4200   -5.4270   30.1980 C.2   360  ASN360      0.2629
     35  OD1       -1.8620   -5.4350   31.3110 O.2   360  ASN360     -0.2716
     36  ND2       -2.0580   -4.5590   29.2630 N.am  360  ASN360     -0.0877
     37  N        -10.0210   -3.6320   30.5360 N.3   365  PRO365     -0.2116
     38  CA       -10.2980   -4.2650   29.2310 C.3   365  PRO365      0.1372
     39  C        -10.8650   -3.2900   28.2010 C.2   365  PRO365      0.2244
     40  O        -10.6800   -3.5280   27.0090 O.2   365  PRO365     -0.2868
     41  CB       -11.2650   -5.3990   29.5710 C.3   365  PRO365      0.0268
     42  CG       -11.9060   -4.9780   30.8430 C.3   365  PRO365      0.0207
     43  CD       -10.8520   -4.2250   31.6040 C.3   365  PRO365      0.0892
     44  N         -7.6370   -1.5180   26.8910 N.3   368  SER368     -0.1202
     45  CA        -7.0130   -2.5620   26.0820 C.3   368  SER368      0.2020
     46  C         -7.6900   -2.7750   24.7170 C.2   368  SER368      0.2618
     47  O         -6.9870   -2.8060   23.7090 O.2   368  SER368     -0.2717
     48  CB        -6.9740   -3.8620   26.8710 C.3   368  SER368      0.2103
     49  OG        -6.0560   -3.7840   27.9470 O.3   368  SER368     -0.2182
     50  N         -9.0460   -2.8950   24.6820 N.am  369  ILE369     -0.1979
     51  CA        -9.8130   -3.0700   23.4320 C.3   369  ILE369      0.1595
     52  C         -9.6600   -1.8570   22.5020 C.2   369  ILE369      0.2287
     53  O         -9.4350   -2.0440   21.3040 O.2   369  ILE369     -0.2864
     54  CB       -11.2990   -3.5380   23.6160 C.3   369  ILE369      0.0276
     55  CG1      -11.9770   -3.8170   22.2470 C.3   369  ILE369      0.0022
     56  CG2      -12.1210   -2.5660   24.4550 C.3   369  ILE369      0.0022
     57  CD1      -13.5050   -3.9150   22.2040 C.3   369  ILE369      0.0001
     58  N         -6.6860   -1.6210   20.0570 N.3   372  ASN372     -0.1240
     59  CA        -6.7950   -2.4900   18.8850 C.3   372  ASN372      0.1653
     60  C         -8.0530   -2.0050   18.1230 C.2   372  ASN372      0.2266
     61  O         -9.1500   -2.5310   18.3510 O.2   372  ASN372     -0.2867
     62  CB        -6.8850   -3.9630   19.3170 C.3   372  ASN372      0.1155
     63  CG        -5.6830   -4.4070   20.1190 C.2   372  ASN372      0.2627
     64  OD1       -4.6740   -4.8470   19.5690 O.2   372  ASN372     -0.2716
     65  ND2       -5.7420   -4.2470   21.4350 N.am  372  ASN372     -0.0877
     66  N        -11.5520   -3.5980   16.4940 N.3   375  PHE375     -0.1241
     67  CA       -12.6710   -3.9970   17.3470 C.3   375  PHE375      0.1605
     68  C        -13.6400   -2.8630   17.6550 C.2   375  PHE375      0.2264
     69  O        -14.5790   -3.0830   18.4140 O.2   375  PHE375     -0.2867
     70  CB       -12.1630   -4.6430   18.6520 C.3   375  PHE375      0.0534
     71  CG       -11.3600   -5.9060   18.4550 C.ar  375  PHE375     -0.0203
     72  CD1      -11.9670   -7.0760   18.0160 C.ar  375  PHE375     -0.0042
     73  CD2      -10.0060   -5.9380   18.7570 C.ar  375  PHE375     -0.0042
     74  CE1      -11.2290   -8.2540   17.8680 C.ar  375  PHE375     -0.0003
     75  CE2       -9.2590   -7.1010   18.5680 C.ar  375  PHE375     -0.0003
     76  CZ        -9.8800   -8.2560   18.1480 C.ar  375  PHE375     -0.0000
     77  N        -17.3070   -3.4750   17.9270 N.3   378  GLN378     -0.1245
     78  CA       -17.8380   -4.1410   19.1170 C.3   378  GLN378      0.1566
     79  C        -18.3810   -3.1430   20.1530 C.2   378  GLN378      0.2260
     80  O        -19.1780   -3.5320   20.9980 O.2   378  GLN378     -0.2867
     81  CB       -16.8060   -5.0920   19.7340 C.3   378  GLN378      0.0367
     82  CG       -16.3220   -6.1180   18.7170 C.3   378  GLN378      0.0905
     83  CD       -15.5040   -7.2400   19.2660 C.2   378  GLN378      0.2608
     84  OE1      -15.2760   -7.3510   20.4730 O.2   378  GLN378     -0.2717
     85  NE2      -15.1000   -8.1340   18.3680 N.am  378  GLN378     -0.0878
     86  N        -17.3200   -7.9800   29.0780 N.3   459  MET459     -0.1245
     87  CA       -15.8740   -7.6790   29.0960 C.3   459  MET459      0.1570
     88  C        -15.2680   -7.6010   30.4850 C.2   459  MET459      0.2261
     89  O        -14.2150   -8.1960   30.7150 O.2   459  MET459     -0.2867
     90  CB       -15.5310   -6.3990   28.2950 C.3   459  MET459      0.0387
     91  CG       -15.9400   -6.4730   26.8420 C.3   459  MET459      0.0595
     92  SD       -15.3030   -5.1670   25.7520 S.3   459  MET459     -0.1393
     93  CE       -16.4820   -3.8830   26.0640 C.3   459  MET459      0.0692
     94  N        -12.7640  -10.3150   32.0970 N.3   463  TRP463     -0.1241
     95  CA       -11.4070   -9.8750   32.4500 C.3   463  TRP463      0.1605
     96  C        -11.0570  -10.3400   33.8770 C.2   463  TRP463      0.2264
     97  O         -9.9900  -10.9190   34.0760 O.2   463  TRP463     -0.2867
     98  CB       -11.2850   -8.3590   32.2820 C.3   463  TRP463      0.0550
     99  CG        -9.9430   -7.7930   32.6350 C.ar  463  TRP463      0.0003
    100  CD1       -8.8740   -7.6300   31.8030 C.ar  463  TRP463      0.0946
    101  CD2       -9.5560   -7.2390   33.9020 C.ar  463  TRP463      0.0152
    102  NE1       -7.8280   -7.0480   32.4860 N.ar  463  TRP463     -0.2442
    103  CE2       -8.2260   -6.7770   33.7690 C.ar  463  TRP463      0.0810
    104  CE3      -10.1920   -7.1290   35.1520 C.ar  463  TRP463      0.0012
    105  CZ2       -7.5180   -6.2060   34.8390 C.ar  463  TRP463      0.0191
    106  CZ3       -9.4840   -6.5780   36.2170 C.ar  463  TRP463      0.0001
    107  CH2       -8.1660   -6.1170   36.0510 C.ar  463  TRP463      0.0015
    108  N         -2.2110  -11.0850   15.2610 N.3   493  MET493     -0.1245
    109  CA        -2.7240  -11.0520   16.6320 C.3   493  MET493      0.1570
    110  C         -2.4220  -12.3300   17.4300 C.2   493  MET493      0.2261
    111  O         -2.5300  -12.3170   18.6590 O.2   493  MET493     -0.2867
    112  CB        -4.2340  -10.8200   16.6210 C.3   493  MET493      0.0387
    113  CG        -4.6320   -9.3680   16.4700 C.3   493  MET493      0.0595
    114  SD        -6.4470   -9.1810   16.4110 S.3   493  MET493     -0.1393
    115  CE        -6.8990  -10.2620   17.7220 C.3   493  MET493      0.0692
@<TRIPOS>BOND
     1   108   109    1
     2   114   113    1
     3   114   115    1
     4   113   112    1
     5    66    67    1
     6   112   109    1
     7   109   110    1
     8    67    68    1
     9    67    70    1
    10   110   111    2
    11    68    69    2
    12    74    72   ar
    13    74    76   ar
    14    77    78    1
    15    72    71   ar
    16    60    61    2
    17    60    59    1
    18    76    75   ar
    19    85    83   am
    20    71    70    1
    21    71    73   ar
    22    75    73   ar
    23    82    83    1
    24    82    81    1
    25    59    62    1
    26    59    58    1
    27    78    81    1
    28    78    79    1
    29    83    84    2
    30    62    63    1
    31    64    63    2
    32    63    65   am
    33    79    80    2
    34     1     2    1
    35    53    52    2
    36    16    14    1
    37    14    13    1
    38    57    55    1
    39    55    54    1
    40     8     7    1
    41    52    51    1
    42     2     5    1
    43     2     3    1
    44     5     6    1
    45    51    54    1
    46    51    50    1
    47     7     6    1
    48    54    56    1
    49     3     4    2
    50    13    10    1
    51    13    15    1
    52    47    46    2
    53     9    10    1
    54    10    11    1
    55    50    46   am
    56    46    45    1
    57    92    93    1
    58    92    91    1
    59    11    12    2
    60    11    17   am
    61    23    17    1
    62    23    22    1
    63    45    48    1
    64    45    44    1
    65    17    18    1
    66    91    90    1
    67    48    49    1
    68    40    39    2
    69    22    21    1
    70    20    19    2
    71    18    21    1
    72    18    19    1
    73    39    38    1
    74    90    87    1
    75    19    24   am
    76    86    87    1
    77    87    88    1
    78    38    41    1
    79    38    37    1
    80    36    34   am
    81    41    42    1
    82    24    25    1
    83    33    34    1
    84    33    30    1
    85    34    35    2
    86    25    26    1
    87    25    28    1
    88    29    26   am
    89    29    30    1
    90    88    89    2
    91    37    43    1
    92    26    27    2
    93    30    31    1
    94    42    43    1
    95   100   102   ar
    96   100    99   ar
    97    94    95    1
    98    31    32    2
    99    98    95    1
   100    98    99    1
   101    95    96    1
   102   102   103   ar
   103    99   101   ar
   104   103   101   ar
   105   103   105   ar
   106    96    97    2
   107   101   104   ar
   108   105   107   ar
   109   104   106   ar
   110   107   106   ar
