@<TRIPOS>MOLECULE
tmp/5am2A02.pdb
 146 143 0 0 0
SMALL
GASTEIGER

@<TRIPOS>ATOM
      1  N        -20.0950  -15.7130   16.2770 N.3   261  PHE261     -0.1228
      2  CA       -21.1980  -14.7730   16.1610 C.3   261  PHE261      0.1721
      3  C        -21.3490  -14.2470   14.7460 C.2   261  PHE261      0.2437
      4  O        -20.3530  -13.8090   14.1530 O.2   261  PHE261     -0.2733
      5  CB       -20.9490  -13.5850   17.1140 C.3   261  PHE261      0.0547
      6  CG       -21.9240  -12.4340   16.9720 C.ar  261  PHE261     -0.0202
      7  CD1      -21.6850  -11.4070   16.0610 C.ar  261  PHE261     -0.0042
      8  CD2      -23.0970  -12.3960   17.7240 C.ar  261  PHE261     -0.0042
      9  CE1      -22.5880  -10.3360   15.9340 C.ar  261  PHE261     -0.0003
     10  CE2      -23.9870  -11.3130   17.6170 C.ar  261  PHE261     -0.0003
     11  CZ       -23.7330  -10.3010   16.7050 C.ar  261  PHE261     -0.0000
     12  N        -22.5890  -14.1400   14.2210 N.am  262  PRO262     -0.2729
     13  CA       -23.8850  -14.6250   14.7430 C.3   262  PRO262      0.1401
     14  C        -24.1680  -15.8680   13.9080 C.2   262  PRO262      0.2269
     15  O        -24.6810  -15.7980   12.7910 O.2   262  PRO262     -0.2865
     16  CB       -24.8370  -13.4740   14.3760 C.3   262  PRO262      0.0296
     17  CG       -24.1660  -12.7880   13.1250 C.3   262  PRO262      0.0237
     18  CD       -22.7980  -13.4450   12.9400 C.3   262  PRO262      0.0939
     19  N        -14.2100  -17.8290   15.9760 N.3   329  ASP329     -0.1239
     20  CA       -14.6930  -16.5300   16.4760 C.3   329  ASP329      0.1674
     21  C        -14.9880  -16.6150   17.9790 C.2   329  ASP329      0.2266
     22  O        -14.1090  -17.0770   18.7000 O.2   329  ASP329     -0.2867
     23  CB       -15.8830  -16.0700   15.6120 C.3   329  ASP329      0.1410
     24  CG       -16.4320  -14.6970   15.9750 C.2   329  ASP329      0.3668
     25  OD1      -15.8430  -13.6870   15.5310 O.co2 329  ASP329     -0.2456
     26  OD2      -17.4620  -14.6360   16.6940 O.co2 329  ASP329     -0.2456
     27  N        -16.0870   -1.6700   16.1220 N.3   377  TYR377     -0.1241
     28  CA       -17.4380   -2.1380   15.8170 C.3   377  TYR377      0.1605
     29  C        -18.1030   -2.8570   17.0180 C.2   377  TYR377      0.2264
     30  O        -19.3220   -2.8470   17.1200 O.2   377  TYR377     -0.2867
     31  CB       -17.4320   -3.0230   14.5520 C.3   377  TYR377      0.0534
     32  CG       -17.0300   -4.4620   14.8190 C.ar  377  TYR377     -0.0201
     33  CD1      -15.6900   -4.8400   14.8410 C.ar  377  TYR377     -0.0009
     34  CD2      -17.9870   -5.4410   15.0620 C.ar  377  TYR377     -0.0009
     35  CE1      -15.3130   -6.1510   15.1240 C.ar  377  TYR377      0.0417
     36  CE2      -17.6230   -6.7570   15.3490 C.ar  377  TYR377      0.0417
     37  CZ       -16.2830   -7.1120   15.3620 C.ar  377  TYR377      0.1957
     38  OH       -15.9030   -8.4060   15.6320 O.3   377  TYR377     -0.2866
     39  N        -25.4490   -9.6290    4.0950 N.3   401  SER401     -0.1202
     40  CA       -24.4420   -8.5730    4.2670 C.3   401  SER401      0.2020
     41  C        -23.2510   -9.1030    5.0100 C.2   401  SER401      0.2618
     42  O        -22.1310   -8.7360    4.7030 O.2   401  SER401     -0.2717
     43  CB       -25.0040   -7.3770    5.0310 C.3   401  SER401      0.2103
     44  OG       -26.0950   -6.7940    4.3390 O.3   401  SER401     -0.2182
     45  N        -23.4820   -9.9220    6.0420 N.am  402  LEU402     -0.1979
     46  CA       -22.3620  -10.4210    6.8270 C.3   402  LEU402      0.1596
     47  C        -21.5500  -11.5100    6.1730 C.2   402  LEU402      0.2287
     48  O        -20.3170  -11.4490    6.2070 O.2   402  LEU402     -0.2864
     49  CB       -22.8660  -10.9150    8.2060 C.3   402  LEU402      0.0297
     50  CG       -23.3490   -9.8580    9.1820 C.3   402  LEU402      0.0022
     51  CD1      -23.9870  -10.5080   10.4110 C.3   402  LEU402      0.0001
     52  CD2      -22.2420   -8.9220    9.5890 C.3   402  LEU402      0.0001
     53  N        -19.9210  -12.8810    3.5850 N.3   404  ARG404     -0.1245
     54  CA       -19.2750  -12.5180    2.3220 C.3   404  ARG404      0.1563
     55  C        -17.7830  -12.7760    2.4150 C.2   404  ARG404      0.2260
     56  O        -17.2000  -12.6470    3.4930 O.2   404  ARG404     -0.2867
     57  CB       -19.5190  -11.0120    2.0210 C.3   404  ARG404      0.0307
     58  CG       -20.9890  -10.5930    2.1240 C.3   404  ARG404      0.0489
     59  CD       -21.2970   -9.2040    1.5900 C.3   404  ARG404      0.2205
     60  NE       -21.3080   -9.1780    0.1270 N.pl3 404  ARG404     -0.0865
     61  CZ       -22.3640   -9.4670   -0.6300 C.cat 404  ARG404      0.5346
     62  NH1      -23.5190   -9.8060   -0.0710 N.pl3 404  ARG404      0.1354
     63  NH2      -22.2780   -9.4030   -1.9520 N.pl3 404  ARG404      0.1354
     64  N        -13.6510  -11.9990    1.5680 N.3   406  SER406     -0.1217
     65  CA       -12.8340  -10.7930    1.8020 C.3   406  SER406      0.1889
     66  C        -12.9540   -9.6590    0.7600 C.2   406  SER406      0.2288
     67  O        -12.8850   -8.4870    1.1320 O.2   406  SER406     -0.2866
     68  CB       -11.3710  -11.1540    2.0180 C.3   406  SER406      0.2089
     69  OG       -10.8470  -11.8540    0.9040 O.3   406  SER406     -0.2183
     70  N        -16.9780   -7.4650    0.5320 N.3   409  SER409     -0.1217
     71  CA       -17.5040   -6.6090    1.6080 C.3   409  SER409      0.1889
     72  C        -18.4240   -5.4890    1.1250 C.2   409  SER409      0.2288
     73  O        -18.1970   -4.9150    0.0540 O.2   409  SER409     -0.2866
     74  CB       -16.3790   -6.0360    2.4620 C.3   409  SER409      0.2089
     75  OG       -16.8890   -5.1060    3.4070 O.3   409  SER409     -0.2183
     76  N        -19.8350   -3.6040    3.9230 N.3   411  LEU411     -0.1245
     77  CA       -19.8460   -2.9690    5.2390 C.3   411  LEU411      0.1561
     78  C        -18.6590   -2.0340    5.4200 C.2   411  LEU411      0.2260
     79  O        -18.8480   -0.8240    5.5110 O.2   411  LEU411     -0.2867
     80  CB       -19.8350   -4.0720    6.3180 C.3   411  LEU411      0.0270
     81  CG       -21.1650   -4.4740    7.0000 C.3   411  LEU411      0.0019
     82  CD1      -22.3040   -4.6530    6.0090 C.3   411  LEU411      0.0001
     83  CD2      -21.0000   -5.7690    7.7700 C.3   411  LEU411      0.0001
     84  N         -6.9060  -13.2020    5.1970 N.3   485  LYS485     -0.1231
     85  CA        -7.7850  -12.0810    4.9250 C.3   485  LYS485      0.1693
     86  C         -8.8820  -11.7950    5.9710 C.2   485  LYS485      0.2592
     87  O         -9.8270  -11.0590    5.6710 O.2   485  LYS485     -0.2718
     88  CB        -8.3240  -12.1890    3.4870 C.3   485  LYS485      0.0285
     89  CG        -7.1870  -12.2870    2.4500 C.3   485  LYS485      0.0035
     90  CD        -7.5720  -11.7950    1.0660 C.3   485  LYS485      0.0206
     91  CE        -6.3540  -11.6720    0.1690 C.3   485  LYS485      0.1093
     92  NZ        -6.5820  -12.3310   -1.1430 N.3   485  LYS485     -0.1314
     93  N         -8.7350  -12.3080    7.2250 N.am  486  ASP486     -0.1960
     94  CA        -9.6840  -11.8950    8.2580 C.3   486  ASP486      0.1840
     95  C         -9.1340  -10.5430    8.7340 C.2   486  ASP486      0.2622
     96  O         -8.0740  -10.5010    9.3350 O.2   486  ASP486     -0.2715
     97  CB        -9.7700  -12.8980    9.4360 C.3   486  ASP486      0.1450
     98  CG       -10.8600  -12.5670   10.4300 C.2   486  ASP486      0.3671
     99  OD1      -11.1030  -11.3610   10.6700 O.co2 486  ASP486     -0.2456
    100  OD2      -11.4210  -13.5150   11.0360 O.co2 486  ASP486     -0.2456
    101  N         -9.8450   -9.4460    8.4280 N.am  487  PHE487     -0.1960
    102  CA        -9.3830   -8.1010    8.7690 C.3   487  PHE487      0.1771
    103  C         -9.6120   -7.6520   10.1920 C.2   487  PHE487      0.2619
    104  O         -9.1600   -6.5630   10.5720 O.2   487  PHE487     -0.2715
    105  CB        -9.7540   -7.0610    7.6820 C.3   487  PHE487      0.0574
    106  CG        -9.2080   -7.4480    6.3180 C.ar  487  PHE487     -0.0200
    107  CD1       -7.8410   -7.6450    6.1240 C.ar  487  PHE487     -0.0042
    108  CD2      -10.0600   -7.6360    5.2380 C.ar  487  PHE487     -0.0042
    109  CE1       -7.3430   -8.0330    4.8710 C.ar  487  PHE487     -0.0003
    110  CE2       -9.5600   -8.0100    3.9840 C.ar  487  PHE487     -0.0003
    111  CZ        -8.2090   -8.2050    3.8090 C.ar  487  PHE487     -0.0000
    112  N        -10.2370   -8.5300   11.0250 N.am  488  VAL488     -0.1977
    113  CA       -10.4530   -8.2340   12.4460 C.3   488  VAL488      0.1596
    114  C         -9.5760   -9.1760   13.2780 C.2   488  VAL488      0.2287
    115  O         -8.7890   -8.7300   14.0970 O.2   488  VAL488     -0.2864
    116  CB       -11.9500   -8.3340   12.8310 C.3   488  VAL488      0.0276
    117  CG1      -12.1490   -8.2550   14.3390 C.3   488  VAL488      0.0022
    118  CG2      -12.7630   -7.2520   12.1310 C.3   488  VAL488      0.0022
    119  N        -11.1460  -15.3490    4.4020 N.3   513  GLY513     -0.1210
    120  CA       -11.7700  -14.2740    5.1710 C.3   513  GLY513      0.1956
    121  C        -12.1860  -14.7390    6.5600 C.2   513  GLY513      0.2612
    122  O        -11.5680  -15.6520    7.1190 O.2   513  GLY513     -0.2717
    123  N        -13.1440  -14.0350    7.1610 N.am  514  HIS514     -0.1961
    124  CA       -13.6230  -14.3340    8.5270 C.3   514  HIS514      0.1787
    125  C        -14.4140  -15.6340    8.6310 C.2   514  HIS514      0.2620
    126  O        -14.3510  -16.2970    9.6760 O.2   514  HIS514     -0.2715
    127  CB       -14.5080  -13.1980    9.0560 C.3   514  HIS514      0.0785
    128  CG       -15.0080  -13.4500   10.4480 C.ar  514  HIS514      0.0821
    129  ND1      -14.1430  -13.4370   11.5310 N.ar  514  HIS514     -0.2267
    130  CD2      -16.2410  -13.8250   10.8720 C.ar  514  HIS514      0.1154
    131  CE1      -14.8860  -13.7630   12.5830 C.ar  514  HIS514      0.1986
    132  NE2      -16.1520  -13.9980   12.2380 N.ar  514  HIS514     -0.2212
    133  N        -15.2090  -15.9540    7.6120 N.am  515  TRP515     -0.1974
    134  CA       -16.1310  -17.1110    7.6120 C.3   515  TRP515      0.1640
    135  C        -15.4290  -18.3500    7.1290 C.2   515  TRP515      0.2290
    136  O        -15.8630  -18.9950    6.1800 O.2   515  TRP515     -0.2864
    137  CB       -17.3900  -16.7760    6.7950 C.3   515  TRP515      0.0576
    138  CG       -17.8910  -15.3880    7.0890 C.ar  515  TRP515      0.0006
    139  CD1      -17.6620  -14.2610    6.3420 C.ar  515  TRP515      0.0946
    140  CD2      -18.5170  -14.9440    8.3000 C.ar  515  TRP515      0.0152
    141  NE1      -18.1500  -13.1550    6.9910 N.ar  515  TRP515     -0.2442
    142  CE2      -18.6860  -13.5450    8.1960 C.ar  515  TRP515      0.0810
    143  CE3      -18.9780  -15.6040    9.4670 C.ar  515  TRP515      0.0012
    144  CZ2      -19.3080  -12.7960    9.1920 C.ar  515  TRP515      0.0191
    145  CZ3      -19.6030  -14.8560   10.4460 C.ar  515  TRP515      0.0001
    146  CH2      -19.7400  -13.4660   10.3190 C.ar  515  TRP515      0.0015
@<TRIPOS>BOND
     1    63    61    1
     2    92    91    1
     3    61    62    1
     4    61    60    2
     5    73    72    2
     6    60    59    1
     7    91    90    1
     8    70    71    1
     9    66    67    2
    10    66    65    1
    11    69    68    1
    12    90    89    1
    13    72    71    1
    14    64    65    1
    15    59    58    1
    16    71    74    1
    17    65    68    1
    18    57    58    1
    19    57    54    1
    20    54    55    1
    21    54    53    1
    22    55    56    2
    23    89    88    1
    24    74    75    1
    25    88    85    1
    26   111   110   ar
    27   111   109   ar
    28    76    77    1
    29   110   108   ar
    30    39    40    1
    31    40    41    1
    32    40    43    1
    33    44    43    1
    34   119   120    1
    35    42    41    2
    36   109   107   ar
    37    85    84    1
    38    85    86    1
    39    41    45   am
    40   120   121    1
    41   108   106   ar
    42    77    78    1
    43    77    80    1
    44    78    79    2
    45    87    86    2
    46    86    93   am
    47    82    81    1
    48    45    46    1
    49   107   106   ar
    50    47    48    2
    51    47    46    1
    52   136   135    2
    53   106   105    1
    54    80    81    1
    55   139   141   ar
    56   139   138   ar
    57   121   122    2
    58   121   123   am
    59   137   138    1
    60   137   134    1
    61    46    49    1
    62   141   142   ar
    63    81    83    1
    64   138   140   ar
    65   135   134    1
    66   123   124    1
    67    93    94    1
    68   134   133    1
    69   133   125   am
    70   105   102    1
    71   142   140   ar
    72   142   144   ar
    73    49    50    1
    74    94    95    1
    75    94    97    1
    76   140   143   ar
    77   101    95   am
    78   101   102    1
    79   124   125    1
    80   124   127    1
    81   125   126    2
    82    95    96    2
    83   102   103    1
    84   127   128    1
    85    50    52    1
    86    50    51    1
    87   144   146   ar
    88    97    98    1
    89   143   145   ar
    90   103   104    2
    91   103   112   am
    92   146   145   ar
    93    98    99   ar
    94    98   100   ar
    95   128   130   ar
    96   128   129   ar
    97   130   132   ar
    98   112   113    1
    99   129   131   ar
   100   118   116    1
   101   132   131   ar
   102   113   116    1
   103   113   114    1
   104    15    14    2
   105   116   117    1
   106    18    17    1
   107    18    12    1
   108    17    16    1
   109   114   115    2
   110    14    13    1
   111     4     3    2
   112    12    13    1
   113    12     3   am
   114    16    13    1
   115    31    32    1
   116    31    28    1
   117     3     2    1
   118    32    33   ar
   119    32    34   ar
   120    33    35   ar
   121    34    36   ar
   122    35    37   ar
   123    36    37   ar
   124    37    38    1
   125    25    24   ar
   126    23    24    1
   127    23    20    1
   128    28    27    1
   129    28    29    1
   130     9     7   ar
   131     9    11   ar
   132    24    26   ar
   133    19    20    1
   134     7     6   ar
   135     2     1    1
   136     2     5    1
   137    20    21    1
   138    11    10   ar
   139     6     5    1
   140     6     8   ar
   141    29    30    2
   142    10     8   ar
   143    21    22    2
