@<TRIPOS>MOLECULE
tmp/5am4A00.pdb
 192 188 0 0 0
SMALL
GASTEIGER

@<TRIPOS>ATOM
      1  N        -19.9990  -15.6560   15.8490 N.3   266  PHE266     -0.1228
      2  CA       -21.1130  -14.7390   15.6970 C.3   266  PHE266      0.1721
      3  C        -21.2030  -14.2270   14.2570 C.2   266  PHE266      0.2437
      4  O        -20.1810  -13.7650   13.7050 O.2   266  PHE266     -0.2733
      5  CB       -20.9670  -13.5540   16.6820 C.3   266  PHE266      0.0547
      6  CG       -21.9810  -12.4380   16.5040 C.ar  266  PHE266     -0.0202
      7  CD1      -21.7850  -11.4400   15.5470 C.ar  266  PHE266     -0.0042
      8  CD2      -23.1220  -12.3740   17.3030 C.ar  266  PHE266     -0.0042
      9  CE1      -22.7330  -10.4250   15.3660 C.ar  266  PHE266     -0.0003
     10  CE2      -24.0510  -11.3390   17.1450 C.ar  266  PHE266     -0.0003
     11  CZ       -23.8580  -10.3830   16.1580 C.ar  266  PHE266     -0.0000
     12  N        -22.4280  -14.1460   13.6900 N.am  267  PRO267     -0.2729
     13  CA       -23.7290  -14.6290   14.1980 C.3   267  PRO267      0.1401
     14  C        -24.0300  -15.8960   13.4010 C.2   267  PRO267      0.2269
     15  O        -24.5540  -15.8510   12.2850 O.2   267  PRO267     -0.2865
     16  CB       -24.6570  -13.4620   13.8460 C.3   267  PRO267      0.0296
     17  CG       -24.0050  -12.8220   12.5390 C.3   267  PRO267      0.0237
     18  CD       -22.6210  -13.4840   12.3840 C.3   267  PRO267      0.0939
     19  N        -14.0590  -17.7410   15.5570 N.3   334  ASP334     -0.1239
     20  CA       -14.5410  -16.4210   16.0210 C.3   334  ASP334      0.1674
     21  C        -14.8320  -16.4840   17.5500 C.2   334  ASP334      0.2266
     22  O        -13.9250  -16.9170   18.2710 O.2   334  ASP334     -0.2867
     23  CB       -15.7260  -15.9410   15.1440 C.3   334  ASP334      0.1410
     24  CG       -16.2470  -14.5630   15.4890 C.2   334  ASP334      0.3668
     25  OD1      -15.6150  -13.5710   15.0740 O.co2 334  ASP334     -0.2456
     26  OD2      -17.2820  -14.4780   16.2060 O.co2 334  ASP334     -0.2456
     27  N        -16.8070   -1.9380   15.6190 N.3   382  TYR382     -0.1241
     28  CA       -18.1150   -2.6160   15.6060 C.3   382  TYR382      0.1605
     29  C        -18.4410   -3.1920   17.0060 C.2   382  TYR382      0.2264
     30  O        -19.6100   -3.2780   17.3840 O.2   382  TYR382     -0.2867
     31  CB       -18.1610   -3.7220   14.5300 C.3   382  TYR382      0.0534
     32  CG       -17.4120   -4.9970   14.8720 C.ar  382  TYR382     -0.0201
     33  CD1      -16.0680   -5.1500   14.5420 C.ar  382  TYR382     -0.0009
     34  CD2      -18.0560   -6.0620   15.5030 C.ar  382  TYR382     -0.0009
     35  CE1      -15.3850   -6.3350   14.8190 C.ar  382  TYR382      0.0417
     36  CE2      -17.3920   -7.2640   15.7560 C.ar  382  TYR382      0.0417
     37  CZ       -16.0470   -7.3840   15.4400 C.ar  382  TYR382      0.1957
     38  OH       -15.3760   -8.5510   15.7210 O.3   382  TYR382     -0.2866
     39  N        -21.8750   -2.6780   19.3120 N.3   386  PHE386     -0.1241
     40  CA       -22.5700   -3.8110   19.9210 C.3   386  PHE386      0.1605
     41  C        -22.8680   -3.6720   21.3930 C.2   386  PHE386      0.2264
     42  O        -23.6530   -4.4560   21.9020 O.2   386  PHE386     -0.2867
     43  CB       -21.7670   -5.1090   19.6490 C.3   386  PHE386      0.0534
     44  CG       -21.8670   -5.6670   18.2460 C.ar  386  PHE386     -0.0203
     45  CD1      -22.5190   -4.9560   17.2320 C.ar  386  PHE386     -0.0042
     46  CD2      -21.3200   -6.9070   17.9340 C.ar  386  PHE386     -0.0042
     47  CE1      -22.6600   -5.4990   15.9560 C.ar  386  PHE386     -0.0003
     48  CE2      -21.4150   -7.4290   16.6400 C.ar  386  PHE386     -0.0003
     49  CZ       -22.0990   -6.7350   15.6590 C.ar  386  PHE386     -0.0000
     50  N        -29.7730   -5.5310   12.9720 N.3   396  LEU396     -0.1245
     51  CA       -29.5410   -6.8960   12.4930 C.3   396  LEU396      0.1561
     52  C        -30.8260   -7.6880   12.2750 C.2   396  LEU396      0.2260
     53  O        -30.8890   -8.4880   11.3420 O.2   396  LEU396     -0.2867
     54  CB       -28.5760   -7.6380   13.4360 C.3   396  LEU396      0.0270
     55  CG       -27.1370   -7.0930   13.4430 C.3   396  LEU396      0.0019
     56  CD1      -26.4170   -7.4880   14.6980 C.3   396  LEU396      0.0001
     57  CD2      -26.3510   -7.5650   12.1900 C.3   396  LEU396      0.0001
     58  N        -25.1600   -9.6180    3.4940 N.3   406  SER406     -0.1202
     59  CA       -24.1730   -8.5550    3.6930 C.3   406  SER406      0.2020
     60  C        -22.9870   -9.0580    4.4930 C.2   406  SER406      0.2618
     61  O        -21.8770   -8.5810    4.2890 O.2   406  SER406     -0.2717
     62  CB       -24.7850   -7.3780    4.4500 C.3   406  SER406      0.2103
     63  OG       -25.8580   -6.7850    3.7410 O.3   406  SER406     -0.2182
     64  N        -23.2260   -9.9680    5.4540 N.am  407  LEU407     -0.1979
     65  CA       -22.1530  -10.4680    6.3070 C.3   407  LEU407      0.1596
     66  C        -21.3540  -11.5920    5.6670 C.2   407  LEU407      0.2287
     67  O        -20.1190  -11.5280    5.6570 O.2   407  LEU407     -0.2864
     68  CB       -22.6900  -10.9000    7.6990 C.3   407  LEU407      0.0297
     69  CG       -23.2360   -9.8050    8.5900 C.3   407  LEU407      0.0022
     70  CD1      -23.8940  -10.3830    9.8390 C.3   407  LEU407      0.0001
     71  CD2      -22.1740   -8.7950    8.9340 C.3   407  LEU407      0.0001
     72  N        -19.7190  -12.9950    3.0800 N.3   409  ARG409     -0.1245
     73  CA       -19.0790  -12.6490    1.8010 C.3   409  ARG409      0.1563
     74  C        -17.5960  -12.9620    1.8920 C.2   409  ARG409      0.2260
     75  O        -17.0050  -12.8310    2.9600 O.2   409  ARG409     -0.2867
     76  CB       -19.2790  -11.1450    1.4830 C.3   409  ARG409      0.0307
     77  CG       -20.7100  -10.6540    1.6560 C.3   409  ARG409      0.0489
     78  CD       -20.9210   -9.2450    1.1250 C.3   409  ARG409      0.2205
     79  NE       -20.8750   -9.1940   -0.3400 N.pl3 409  ARG409     -0.0865
     80  CZ       -21.9040   -9.4450   -1.1400 C.cat 409  ARG409      0.5346
     81  NH1      -23.0790   -9.8030   -0.6330 N.pl3 409  ARG409      0.1354
     82  NH2      -21.7590   -9.3750   -2.4580 N.pl3 409  ARG409      0.1354
     83  N        -16.5960   -6.5490    0.8480 N.3   415  VAL415     -0.1231
     84  CA       -16.8970   -6.7120    2.2790 C.3   415  VAL415      0.1692
     85  C        -17.1430   -5.3580    2.9660 C.2   415  VAL415      0.2591
     86  O        -16.5460   -4.3450    2.5760 O.2   415  VAL415     -0.2718
     87  CB       -15.8600   -7.5680    3.0570 C.3   415  VAL415      0.0266
     88  CG1      -15.8210   -8.9990    2.5370 C.3   415  VAL415      0.0020
     89  CG2      -14.4670   -6.9340    3.0430 C.3   415  VAL415      0.0020
     90  N        -18.0340   -5.3500    3.9700 N.am  416  LEU416     -0.1980
     91  CA       -18.3690   -4.1660    4.7730 C.3   416  LEU416      0.1596
     92  C        -17.0960   -3.5400    5.3410 C.2   416  LEU416      0.2287
     93  O        -16.1910   -4.2700    5.7710 O.2   416  LEU416     -0.2864
     94  CB       -19.2500   -4.5760    5.9680 C.3   416  LEU416      0.0297
     95  CG       -20.6460   -5.0980    5.6990 C.3   416  LEU416      0.0022
     96  CD1      -21.2010   -5.7850    6.9310 C.3   416  LEU416      0.0001
     97  CD2      -21.5720   -3.9740    5.3260 C.3   416  LEU416      0.0001
     98  N        -15.2180   -1.9750    8.2500 N.3   418  MET418     -0.1245
     99  CA       -15.4180   -2.0270    9.6970 C.3   418  MET418      0.1570
    100  C        -15.0140   -0.7060   10.3730 C.2   418  MET418      0.2261
    101  O        -15.2590   -0.5170   11.5610 O.2   418  MET418     -0.2867
    102  CB       -14.7230   -3.2650   10.2960 C.3   418  MET418      0.0387
    103  CG       -15.2870   -4.6000    9.7830 C.3   418  MET418      0.0595
    104  SD       -16.8260   -5.1150   10.5780 S.3   418  MET418     -0.1393
    105  CE       -17.9910   -4.5660    9.4330 C.3   418  MET418      0.0692
    106  N        -23.8350   -0.9040   10.9800 N.3   427  LEU427     -0.1245
    107  CA       -23.0140   -1.7460   10.1130 C.3   427  LEU427      0.1561
    108  C        -23.4180   -1.6750    8.6530 C.2   427  LEU427      0.2260
    109  O        -22.5690   -1.8470    7.7760 O.2   427  LEU427     -0.2867
    110  CB       -23.1460   -3.2170   10.5480 C.3   427  LEU427      0.0270
    111  CG       -22.4720   -3.6400   11.8430 C.3   427  LEU427      0.0019
    112  CD1      -23.0700   -4.9660   12.3310 C.3   427  LEU427      0.0001
    113  CD2      -20.9770   -3.7880   11.6500 C.3   427  LEU427      0.0001
    114  N        -20.7150  -10.2240   23.3740 N.3   465  TYR465     -0.1241
    115  CA       -19.8040   -9.0640   23.3230 C.3   465  TYR465      0.1605
    116  C        -19.9540   -8.1180   24.4970 C.2   465  TYR465      0.2264
    117  O        -19.1940   -7.1520   24.5990 O.2   465  TYR465     -0.2867
    118  CB       -20.0890   -8.2370   22.0550 C.3   465  TYR465      0.0534
    119  CG       -19.7490   -8.9280   20.7590 C.ar  465  TYR465     -0.0201
    120  CD1      -18.4960   -8.7700   20.1710 C.ar  465  TYR465     -0.0009
    121  CD2      -20.7140   -9.6520   20.0600 C.ar  465  TYR465     -0.0009
    122  CE1      -18.1950   -9.3570   18.9460 C.ar  465  TYR465      0.0417
    123  CE2      -20.4200  -10.2530   18.8420 C.ar  465  TYR465      0.0417
    124  CZ       -19.1680  -10.0800   18.2770 C.ar  465  TYR465      0.1957
    125  OH       -18.8760  -10.6890   17.0930 O.3   465  TYR465     -0.2866
    126  N         -6.8420  -13.1940    4.6010 N.3   494  LYS494     -0.1231
    127  CA        -7.7120  -12.0520    4.3340 C.3   494  LYS494      0.1693
    128  C         -8.8200  -11.7720    5.3530 C.2   494  LYS494      0.2592
    129  O         -9.8060  -11.0940    5.0390 O.2   494  LYS494     -0.2718
    130  CB        -8.1960  -12.0940    2.8810 C.3   494  LYS494      0.0285
    131  CG        -7.0260  -11.8750    1.9040 C.3   494  LYS494      0.0035
    132  CD        -7.4200  -12.0810    0.4600 C.3   494  LYS494      0.0206
    133  CE        -6.3190  -11.6910   -0.4950 C.3   494  LYS494      0.1093
    134  NZ        -6.7550  -11.8330   -1.9110 N.3   494  LYS494     -0.1314
    135  N         -8.6310  -12.2380    6.6000 N.am  495  ASP495     -0.1960
    136  CA        -9.5740  -11.8630    7.6350 C.3   495  ASP495      0.1840
    137  C         -9.0630  -10.4950    8.0900 C.2   495  ASP495      0.2622
    138  O         -8.0220  -10.4200    8.7370 O.2   495  ASP495     -0.2715
    139  CB        -9.6160  -12.8680    8.7970 C.3   495  ASP495      0.1450
    140  CG       -10.6810  -12.5550    9.8380 C.2   495  ASP495      0.3671
    141  OD1      -10.9810  -11.3620   10.0490 O.co2 495  ASP495     -0.2456
    142  OD2      -11.1910  -13.4910   10.4500 O.co2 495  ASP495     -0.2456
    143  N         -9.7950   -9.4200    7.7230 N.am  496  PHE496     -0.1960
    144  CA        -9.4090   -8.0320    7.9660 C.3   496  PHE496      0.1771
    145  C         -9.6120   -7.5200    9.3890 C.2   496  PHE496      0.2619
    146  O         -9.2670   -6.3760    9.6740 O.2   496  PHE496     -0.2715
    147  CB       -10.0280   -7.0750    6.9040 C.3   496  PHE496      0.0574
    148  CG        -9.7920   -7.4760    5.4600 C.ar  496  PHE496     -0.0200
    149  CD1       -8.5040   -7.6830    4.9780 C.ar  496  PHE496     -0.0042
    150  CD2      -10.8610   -7.6700    4.5910 C.ar  496  PHE496     -0.0042
    151  CE1       -8.2900   -8.0720    3.6510 C.ar  496  PHE496     -0.0003
    152  CE2      -10.6440   -8.0500    3.2610 C.ar  496  PHE496     -0.0003
    153  CZ        -9.3580   -8.2500    2.8020 C.ar  496  PHE496     -0.0000
    154  N        -10.1830   -8.3430   10.2770 N.am  497  VAL497     -0.1963
    155  CA       -10.4040   -7.9740   11.6730 C.3   497  VAL497      0.1727
    156  C         -9.4870   -8.8700   12.5150 C.2   497  VAL497      0.2616
    157  O         -8.6290   -8.3620   13.2430 O.2   497  VAL497     -0.2715
    158  CB       -11.9010   -8.0930   12.0790 C.3   497  VAL497      0.0290
    159  CG1      -12.0840   -7.9480   13.5850 C.3   497  VAL497      0.0023
    160  CG2      -12.7690   -7.0770   11.3260 C.3   497  VAL497      0.0023
    161  N         -9.6400  -10.2060   12.3590 N.am  498  LEU498     -0.1977
    162  CA        -8.8240  -11.1950   13.0640 C.3   498  LEU498      0.1596
    163  C         -7.6320  -11.5070   12.1610 C.2   498  LEU498      0.2287
    164  O         -7.5310  -12.5850   11.5730 O.2   498  LEU498     -0.2864
    165  CB        -9.6680  -12.4450   13.4050 C.3   498  LEU498      0.0297
    166  CG       -10.9060  -12.2250   14.3070 C.3   498  LEU498      0.0022
    167  CD1      -11.7010  -13.5340   14.4800 C.3   498  LEU498      0.0001
    168  CD2      -10.5100  -11.6680   15.6560 C.3   498  LEU498      0.0001
    169  N        -13.0130  -14.0040    6.6800 N.3   523  HIS523     -0.1226
    170  CA       -13.5090  -14.3540    8.0140 C.3   523  HIS523      0.1752
    171  C        -14.2690  -15.6840    8.1110 C.2   523  HIS523      0.2596
    172  O        -14.2470  -16.3190    9.1660 O.2   523  HIS523     -0.2718
    173  CB       -14.3960  -13.2280    8.5620 C.3   523  HIS523      0.0759
    174  CG       -14.8280  -13.4440    9.9800 C.ar  523  HIS523      0.0818
    175  ND1      -16.1370  -13.7680   10.2920 N.ar  523  HIS523     -0.2268
    176  CD2      -14.0940  -13.4690   11.1170 C.ar  523  HIS523      0.1154
    177  CE1      -16.1690  -13.9030   11.6080 C.ar  523  HIS523      0.1986
    178  NE2      -14.9660  -13.7380   12.1460 N.ar  523  HIS523     -0.2212
    179  N        -15.0250  -16.0520    7.0720 N.am  524  TRP524     -0.1976
    180  CA       -15.9200  -17.2230    7.1360 C.3   524  TRP524      0.1640
    181  C        -15.2160  -18.4740    6.6510 C.2   524  TRP524      0.2290
    182  O        -15.6650  -19.1630    5.7270 O.2   524  TRP524     -0.2864
    183  CB       -17.2230  -16.9300    6.3860 C.3   524  TRP524      0.0576
    184  CG       -17.7250  -15.5390    6.6170 C.ar  524  TRP524      0.0006
    185  CD1      -17.5240  -14.4510    5.8160 C.ar  524  TRP524      0.0946
    186  CD2      -18.4010  -15.0610    7.7830 C.ar  524  TRP524      0.0152
    187  NE1      -18.0330  -13.3230    6.4160 N.ar  524  TRP524     -0.2442
    188  CE2      -18.5670  -13.6660    7.6290 C.ar  524  TRP524      0.0810
    189  CE3      -18.8310  -15.6690    8.9840 C.ar  524  TRP524      0.0012
    190  CZ2      -19.2150  -12.8790    8.5880 C.ar  524  TRP524      0.0191
    191  CZ3      -19.4670  -14.8820    9.9360 C.ar  524  TRP524      0.0001
    192  CH2      -19.6320  -13.5010    9.7440 C.ar  524  TRP524      0.0015
@<TRIPOS>BOND
     1    82    80    1
     2   134   133    1
     3    80    81    1
     4    80    79    2
     5   133   132    1
     6    79    78    1
     7   132   131    1
     8    83    84    1
     9    78    77    1
    10    76    77    1
    11    76    73    1
    12    73    74    1
    13    73    72    1
    14    74    75    2
    15   131   130    1
    16    84    85    1
    17    84    87    1
    18    88    87    1
    19    86    85    2
    20   153   152   ar
    21   153   151   ar
    22   130   127    1
    23    85    90   am
    24    89    87    1
    25   152   150   ar
    26    58    59    1
    27   151   149   ar
    28    59    62    1
    29    59    60    1
    30    63    62    1
    31    90    91    1
    32    61    60    2
    33   127   126    1
    34   127   128    1
    35    60    64   am
    36   150   148   ar
    37    91    92    1
    38    91    94    1
    39   149   148   ar
    40   129   128    2
    41    97    95    1
    42    92    93    2
    43   128   135   am
    44    64    65    1
    45   148   147    1
    46    67    66    2
    47    66    65    1
    48    95    94    1
    49    95    96    1
    50   182   181    2
    51   185   187   ar
    52   185   184   ar
    53    65    68    1
    54   183   184    1
    55   183   180    1
    56   187   188   ar
    57   135   136    1
    58   184   186   ar
    59   181   180    1
    60   169   170    1
    61   147   144    1
    62   179   180    1
    63   179   171   am
    64   188   186   ar
    65   188   190   ar
    66   136   137    1
    67   136   139    1
    68    68    69    1
    69   143   144    1
    70   143   137   am
    71   109   108    2
    72   186   189   ar
    73   144   145    1
    74   170   171    1
    75   170   173    1
    76   137   138    2
    77   171   172    2
    78    98    99    1
    79   173   174    1
    80   190   192   ar
    81    69    71    1
    82    69    70    1
    83   108   107    1
    84   139   140    1
    85   189   191   ar
    86   145   146    2
    87   145   154   am
    88   105   104    1
    89    99   102    1
    90    99   100    1
    91   192   191   ar
    92   103   102    1
    93   103   104    1
    94   140   141   ar
    95   140   142   ar
    96   174   175   ar
    97   174   176   ar
    98   107   110    1
    99   107   106    1
   100   154   155    1
   101   175   177   ar
   102   100   101    2
   103   110   111    1
   104   176   178   ar
   105   160   158    1
   106    53    52    2
   107   164   163    2
   108   177   178   ar
   109   113   111    1
   110   155   158    1
   111   155   156    1
   112   111   112    1
   113   158   159    1
   114   163   162    1
   115    57    55    1
   116    52    51    1
   117    15    14    2
   118   161   156   am
   119   161   162    1
   120    18    17    1
   121    18    12    1
   122    51    50    1
   123    51    54    1
   124   156   157    2
   125    17    16    1
   126   162   165    1
   127    14    13    1
   128   165   166    1
   129    54    55    1
   130    55    56    1
   131    12    13    1
   132    12     3   am
   133     4     3    2
   134    16    13    1
   135     3     2    1
   136   166   167    1
   137   166   168    1
   138    31    32    1
   139    31    28    1
   140    33    35   ar
   141    33    32   ar
   142    35    37   ar
   143    32    34   ar
   144    25    24   ar
   145    23    24    1
   146    23    20    1
   147     9     7   ar
   148     9    11   ar
   149    37    38    1
   150    37    36   ar
   151    24    26   ar
   152    34    36   ar
   153     7     6   ar
   154    19    20    1
   155    28    27    1
   156    28    29    1
   157    49    47   ar
   158    49    48   ar
   159     2     1    1
   160     2     5    1
   161    47    45   ar
   162    20    21    1
   163    11    10   ar
   164     6     5    1
   165     6     8   ar
   166    48    46   ar
   167    29    30    2
   168   125   124    1
   169    10     8   ar
   170    45    44   ar
   171    21    22    2
   172    46    44   ar
   173    44    43    1
   174   124   123   ar
   175   124   122   ar
   176   123   121   ar
   177   122   120   ar
   178    39    40    1
   179    43    40    1
   180    40    41    1
   181   121   119   ar
   182   120   119   ar
   183   119   118    1
   184    41    42    2
   185   118   115    1
   186   115   114    1
   187   115   116    1
   188   116   117    2
