@<TRIPOS>MOLECULE
tmp/5am5A00.pdb
 175 170 0 0 0
SMALL
GASTEIGER

@<TRIPOS>ATOM
      1  N         20.1860   15.4580   16.0690 N.3   266  PHE266     -0.1228
      2  CA        21.2960   14.5370   15.9130 C.3   266  PHE266      0.1721
      3  C         21.4910   14.0300   14.4670 C.2   266  PHE266      0.2437
      4  O         20.5120   13.5430   13.8790 O.2   266  PHE266     -0.2733
      5  CB        21.0610   13.3360   16.8560 C.3   266  PHE266      0.0547
      6  CG        22.0710   12.2270   16.7100 C.ar  266  PHE266     -0.0202
      7  CD1       21.9170   11.2440   15.7340 C.ar  266  PHE266     -0.0042
      8  CD2       23.1960   12.1760   17.5300 C.ar  266  PHE266     -0.0042
      9  CE1       22.8730   10.2270   15.5870 C.ar  266  PHE266     -0.0003
     10  CE2       24.1450   11.1590   17.3800 C.ar  266  PHE266     -0.0003
     11  CZ        23.9760   10.1930   16.4110 C.ar  266  PHE266     -0.0000
     12  N         22.7410   13.9530   13.9230 N.am  267  PRO267     -0.2729
     13  CA        24.0510   14.4190   14.4450 C.3   267  PRO267      0.1401
     14  C         24.3600   15.7050   13.6700 C.2   267  PRO267      0.2269
     15  O         24.9380   15.6910   12.5840 O.2   267  PRO267     -0.2865
     16  CB        24.9830   13.2530   14.0710 C.3   267  PRO267      0.0296
     17  CG        24.2640   12.5340   12.8640 C.3   267  PRO267      0.0237
     18  CD        22.9460   13.2720   12.6310 C.3   267  PRO267      0.0939
     19  N         14.3000   17.5970   15.8490 N.3   334  ASP334     -0.1239
     20  CA        14.7760   16.2870   16.3130 C.3   334  ASP334      0.1674
     21  C         15.0850   16.3580   17.8210 C.2   334  ASP334      0.2266
     22  O         14.1850   16.7210   18.5600 O.2   334  ASP334     -0.2867
     23  CB        15.9500   15.7630   15.4200 C.3   334  ASP334      0.1410
     24  CG        16.4360   14.3580   15.7560 C.2   334  ASP334      0.3668
     25  OD1       15.7370   13.3940   15.4110 O.co2 334  ASP334     -0.2456
     26  OD2       17.4690   14.2370   16.4440 O.co2 334  ASP334     -0.2456
     27  N         16.8140    1.8270   15.8330 N.3   382  TYR382     -0.1241
     28  CA        18.1040    2.5040   15.7980 C.3   382  TYR382      0.1605
     29  C         18.4930    3.1090   17.2000 C.2   382  TYR382      0.2264
     30  O         19.6740    3.1560   17.5090 O.2   382  TYR382     -0.2867
     31  CB        18.1050    3.5670   14.6850 C.3   382  TYR382      0.0534
     32  CG        17.3790    4.8450   15.0490 C.ar  382  TYR382     -0.0201
     33  CD1       16.0120    4.9740   14.8480 C.ar  382  TYR382     -0.0009
     34  CD2       18.0620    5.9260   15.6060 C.ar  382  TYR382     -0.0009
     35  CE1       15.3440    6.1530   15.1570 C.ar  382  TYR382      0.0417
     36  CE2       17.3950    7.1000   15.9550 C.ar  382  TYR382      0.0417
     37  CZ        16.0340    7.2130   15.7190 C.ar  382  TYR382      0.1957
     38  OH        15.3550    8.3660   16.0430 O.3   382  TYR382     -0.2866
     39  N         21.8820    2.5430   19.5170 N.3   386  PHE386     -0.1241
     40  CA        22.6150    3.6820   20.0780 C.3   386  PHE386      0.1605
     41  C         22.9100    3.5340   21.5530 C.2   386  PHE386      0.2264
     42  O         23.6950    4.3070   22.0800 O.2   386  PHE386     -0.2867
     43  CB        21.8610    5.0040   19.7990 C.3   386  PHE386      0.0534
     44  CG        21.9080    5.5200   18.3800 C.ar  386  PHE386     -0.0203
     45  CD1       22.6540    4.8640   17.4030 C.ar  386  PHE386     -0.0042
     46  CD2       21.2300    6.6780   18.0230 C.ar  386  PHE386     -0.0042
     47  CE1       22.7350    5.3690   16.1050 C.ar  386  PHE386     -0.0003
     48  CE2       21.2880    7.1670   16.7150 C.ar  386  PHE386     -0.0003
     49  CZ        22.0460    6.5140   15.7670 C.ar  386  PHE386     -0.0000
     50  N         23.5410    9.7470    5.7060 N.3   407  LEU407     -0.1245
     51  CA        22.4590   10.2870    6.5430 C.3   407  LEU407      0.1561
     52  C         21.6840   11.4050    5.9070 C.2   407  LEU407      0.2260
     53  O         20.4490   11.3940    5.9360 O.2   407  LEU407     -0.2867
     54  CB        22.9920   10.7770    7.8890 C.3   407  LEU407      0.0270
     55  CG        23.4650    9.7370    8.8600 C.3   407  LEU407      0.0019
     56  CD1       24.2480   10.3880    9.9620 C.3   407  LEU407      0.0001
     57  CD2       22.3060    8.8770    9.3940 C.3   407  LEU407      0.0001
     58  N         20.1580   12.6900    3.3430 N.3   409  ARG409     -0.1245
     59  CA        19.5030   12.3490    2.0690 C.3   409  ARG409      0.1563
     60  C         18.0100   12.6020    2.1750 C.2   409  ARG409      0.2260
     61  O         17.4470   12.3660    3.2400 O.2   409  ARG409     -0.2867
     62  CB        19.6870   10.8390    1.7640 C.3   409  ARG409      0.0307
     63  CG        21.1050   10.3110    1.8550 C.3   409  ARG409      0.0489
     64  CD        21.3060    8.9470    1.1900 C.3   409  ARG409      0.2205
     65  NE        21.3000    9.0390   -0.2750 N.pl3 409  ARG409     -0.0865
     66  CZ        22.3150    9.4750   -1.0220 C.cat 409  ARG409      0.5346
     67  NH1       23.4400    9.8870   -0.4510 N.pl3 409  ARG409      0.1354
     68  NH2       22.2040    9.5200   -2.3390 N.pl3 409  ARG409      0.1354
     69  N         13.9020   11.6510    1.4680 N.3   411  SER411     -0.1217
     70  CA        13.1120   10.4260    1.6870 C.3   411  SER411      0.1889
     71  C         13.2570    9.3530    0.5780 C.2   411  SER411      0.2288
     72  O         13.3340    8.1590    0.8860 O.2   411  SER411     -0.2866
     73  CB        11.6430   10.7730    1.9160 C.3   411  SER411      0.2089
     74  OG        11.1510   11.7160    0.9750 O.3   411  SER411     -0.2183
     75  N         17.1490    7.8170    0.2680 N.3   414  SER414     -0.1217
     76  CA        17.6600    7.0580    1.4090 C.3   414  SER414      0.1889
     77  C         18.2090    5.6840    1.1270 C.2   414  SER414      0.2288
     78  O         17.7040    4.9610    0.2650 O.2   414  SER414     -0.2866
     79  CB        16.7030    7.0580    2.5940 C.3   414  SER414      0.2089
     80  OG        17.3850    6.5540    3.7350 O.3   414  SER414     -0.2183
     81  N         19.3200    3.8380    4.1560 N.3   416  LEU416     -0.1245
     82  CA        19.1930    3.1810    5.4600 C.3   416  LEU416      0.1561
     83  C         17.9460    2.3020    5.5530 C.2   416  LEU416      0.2260
     84  O         16.8480    2.7390    5.1810 O.2   416  LEU416     -0.2867
     85  CB        19.1890    4.1910    6.6370 C.3   416  LEU416      0.0270
     86  CG        20.1190    5.4030    6.6180 C.3   416  LEU416      0.0019
     87  CD1       19.8880    6.2590    7.8500 C.3   416  LEU416      0.0001
     88  CD2       21.5890    4.9990    6.5310 C.3   416  LEU416      0.0001
     89  N         16.1700    1.1490    8.3120 N.3   418  MET418     -0.1245
     90  CA        15.7800    1.4820    9.6910 C.3   418  MET418      0.1570
     91  C         15.1860    0.3580   10.5440 C.2   418  MET418      0.2261
     92  O         15.4160    0.3350   11.7570 O.2   418  MET418     -0.2867
     93  CB        14.8000    2.6720    9.6820 C.3   418  MET418      0.0387
     94  CG        15.3630    3.9470    9.0680 C.3   418  MET418      0.0595
     95  SD        16.7670    4.6800    9.9500 S.3   418  MET418     -0.1393
     96  CE        16.0120    5.1230   11.4230 C.3   418  MET418      0.0692
     97  N         23.7660    0.8590   11.0070 N.3   427  LEU427     -0.1245
     98  CA        22.9460    1.7430   10.1850 C.3   427  LEU427      0.1561
     99  C         23.3740    1.7600    8.7280 C.2   427  LEU427      0.2260
    100  O         22.5310    2.0300    7.8720 O.2   427  LEU427     -0.2867
    101  CB        23.0150    3.1840   10.7120 C.3   427  LEU427      0.0270
    102  CG        22.1160    3.5740   11.8740 C.3   427  LEU427      0.0019
    103  CD1       22.6440    4.8350   12.5180 C.3   427  LEU427      0.0001
    104  CD2       20.6910    3.8540   11.4080 C.3   427  LEU427      0.0001
    105  N         20.7330   10.1390   23.5850 N.3   465  TYR465     -0.1241
    106  CA        19.8600    8.9520   23.5040 C.3   465  TYR465      0.1605
    107  C         20.0420    7.9840   24.6620 C.2   465  TYR465      0.2264
    108  O         19.2920    7.0120   24.7670 O.2   465  TYR465     -0.2867
    109  CB        20.1770    8.1360   22.2390 C.3   465  TYR465      0.0534
    110  CG        19.8450    8.8060   20.9310 C.ar  465  TYR465     -0.0201
    111  CD1       18.5950    8.6390   20.3370 C.ar  465  TYR465     -0.0009
    112  CD2       20.8050    9.5330   20.2390 C.ar  465  TYR465     -0.0009
    113  CE1       18.3030    9.2090   19.1000 C.ar  465  TYR465      0.0417
    114  CE2       20.5170   10.1270   19.0160 C.ar  465  TYR465      0.0417
    115  CZ        19.2650    9.9570   18.4480 C.ar  465  TYR465      0.1957
    116  OH        18.9930   10.5450   17.2450 O.3   465  TYR465     -0.2866
    117  N          7.1580   12.9310    4.8530 N.3   494  LYS494     -0.1231
    118  CA         8.0040   11.7890    4.5920 C.3   494  LYS494      0.1693
    119  C          9.0940   11.4900    5.6410 C.2   494  LYS494      0.2592
    120  O         10.0910   10.8390    5.3260 O.2   494  LYS494     -0.2718
    121  CB         8.5050   11.8470    3.1360 C.3   494  LYS494      0.0285
    122  CG         7.3640   11.7130    2.1270 C.3   494  LYS494      0.0035
    123  CD         7.8400   11.6880    0.6990 C.3   494  LYS494      0.0206
    124  CE         6.6940   11.7210   -0.2890 C.3   494  LYS494      0.1093
    125  NZ         7.1890   11.7980   -1.6950 N.3   494  LYS494     -0.1314
    126  N          8.9010   11.9440    6.9000 N.am  495  ASP495     -0.1960
    127  CA         9.8320   11.5650    7.9800 C.3   495  ASP495      0.1840
    128  C          9.3360   10.1870    8.4140 C.2   495  ASP495      0.2622
    129  O          8.1940   10.0850    8.8360 O.2   495  ASP495     -0.2715
    130  CB         9.8280   12.5530    9.1790 C.3   495  ASP495      0.1450
    131  CG        10.9790   12.3220   10.1600 C.2   495  ASP495      0.3671
    132  OD1       11.2620   11.1410   10.4880 O.co2 495  ASP495     -0.2456
    133  OD2       11.5600   13.3240   10.6470 O.co2 495  ASP495     -0.2456
    134  N         10.1600    9.1360    8.2630 N.am  496  PHE496     -0.1960
    135  CA         9.7490    7.7730    8.5740 C.3   496  PHE496      0.1771
    136  C          9.8750    7.3360   10.0190 C.2   496  PHE496      0.2619
    137  O          9.3120    6.3020   10.4000 O.2   496  PHE496     -0.2715
    138  CB        10.2460    6.7440    7.5230 C.3   496  PHE496      0.0574
    139  CG         9.7780    7.0840    6.1170 C.ar  496  PHE496     -0.0200
    140  CD1        8.5070    7.6270    5.8930 C.ar  496  PHE496     -0.0042
    141  CD2       10.6150    6.9000    5.0230 C.ar  496  PHE496     -0.0042
    142  CE1        8.0820    7.9680    4.6010 C.ar  496  PHE496     -0.0003
    143  CE2       10.1850    7.2400    3.7260 C.ar  496  PHE496     -0.0003
    144  CZ         8.9270    7.7880    3.5290 C.ar  496  PHE496     -0.0000
    145  N         10.5220    8.1620   10.8430 N.am  497  VAL497     -0.1977
    146  CA        10.6630    7.9140   12.2770 C.3   497  VAL497      0.1596
    147  C          9.7020    8.8400   13.0480 C.2   497  VAL497      0.2287
    148  O          8.8310    8.3570   13.7770 O.2   497  VAL497     -0.2864
    149  CB        12.1340    8.0530   12.7350 C.3   497  VAL497      0.0276
    150  CG1       12.2500    8.0930   14.2490 C.3   497  VAL497      0.0022
    151  CG2       12.9830    6.9240   12.1700 C.3   497  VAL497      0.0022
    152  N         13.2640   13.7830    7.0020 N.3   523  HIS523     -0.1226
    153  CA        13.7710   14.0840    8.3330 C.3   523  HIS523      0.1752
    154  C         14.5520   15.4070    8.4560 C.2   523  HIS523      0.2596
    155  O         14.3890   16.1110    9.4460 O.2   523  HIS523     -0.2718
    156  CB        14.5790   12.9020    8.9220 C.3   523  HIS523      0.0759
    157  CG        15.0580   13.1770   10.3140 C.ar  523  HIS523      0.0818
    158  ND1       14.1950   13.1530   11.3800 N.ar  523  HIS523     -0.2268
    159  CD2       16.2780   13.5730   10.7490 C.ar  523  HIS523      0.1154
    160  CE1       14.9150   13.4950   12.4330 C.ar  523  HIS523      0.1986
    161  NE2       16.1700   13.7750   12.0970 N.ar  523  HIS523     -0.2212
    162  N         15.3970   15.7250    7.4640 N.am  524  TRP524     -0.1976
    163  CA        16.2680   16.9100    7.4210 C.3   524  TRP524      0.1640
    164  C         15.5110   18.1470    6.9050 C.2   524  TRP524      0.2290
    165  O         15.9150   18.7890    5.9400 O.2   524  TRP524     -0.2864
    166  CB        17.5240   16.5800    6.6070 C.3   524  TRP524      0.0576
    167  CG        18.0290   15.1880    6.8890 C.ar  524  TRP524      0.0006
    168  CD1       17.8220   14.0770    6.1250 C.ar  524  TRP524      0.0946
    169  CD2       18.6520   14.7300    8.1010 C.ar  524  TRP524      0.0152
    170  NE1       18.3080   12.9640    6.7650 N.ar  524  TRP524     -0.2442
    171  CE2       18.8280   13.3330    7.9790 C.ar  524  TRP524      0.0810
    172  CE3       19.0710   15.3660    9.2900 C.ar  524  TRP524      0.0012
    173  CZ2       19.4410   12.5630    8.9780 C.ar  524  TRP524      0.0191
    174  CZ3       19.6610   14.5990   10.2860 C.ar  524  TRP524      0.0001
    175  CH2       19.8660   13.2200   10.1160 C.ar  524  TRP524      0.0015
@<TRIPOS>BOND
     1    68    66    1
     2   125   124    1
     3    66    67    1
     4    66    65    2
     5   124   123    1
     6    65    64    1
     7    78    77    2
     8    75    76    1
     9    71    72    2
    10    71    70    1
    11   123   122    1
    12    74    73    1
    13    77    76    1
    14    64    63    1
    15    76    79    1
    16    69    70    1
    17    70    73    1
    18    62    63    1
    19    62    59    1
    20    59    60    1
    21    59    58    1
    22   122   121    1
    23    60    61    2
    24    79    80    1
    25   121   118    1
    26   144   143   ar
    27   144   142   ar
    28   143   141   ar
    29    81    82    1
    30   118   117    1
    31   118   119    1
    32   142   140   ar
    33   141   139   ar
    34    84    83    2
    35   120   119    2
    36    82    83    1
    37    82    85    1
    38   119   126   am
    39    50    51    1
    40   140   139   ar
    41    52    53    2
    42    52    51    1
    43   165   164    2
    44   139   138    1
    45   168   170   ar
    46   168   167   ar
    47    88    86    1
    48    51    54    1
    49   166   167    1
    50   166   163    1
    51    86    85    1
    52    86    87    1
    53   170   171   ar
    54   167   169   ar
    55   126   127    1
    56   164   163    1
    57   152   153    1
    58   163   162    1
    59   162   154   am
    60   138   135    1
    61   100    99    2
    62    54    55    1
    63   171   169   ar
    64   171   173   ar
    65   127   128    1
    66   127   130    1
    67   169   172   ar
    68   134   128   am
    69   134   135    1
    70    89    90    1
    71   153   154    1
    72   153   156    1
    73   128   129    2
    74   154   155    2
    75   135   136    1
    76    99    98    1
    77    55    57    1
    78    55    56    1
    79   156   157    1
    80   173   175   ar
    81    94    93    1
    82    94    95    1
    83   130   131    1
    84   172   174   ar
    85    93    90    1
    86    90    91    1
    87    95    96    1
    88   136   137    2
    89   136   145   am
    90   175   174   ar
    91   131   132   ar
    92   131   133   ar
    93    98   101    1
    94    98    97    1
    95   157   159   ar
    96   157   158   ar
    97    91    92    2
    98   101   102    1
    99   159   161   ar
   100   145   146    1
   101   158   160   ar
   102   104   102    1
   103   102   103    1
   104   161   160   ar
   105   151   149    1
   106   146   149    1
   107   146   147    1
   108    15    14    2
   109    18    17    1
   110    18    12    1
   111   149   150    1
   112    17    16    1
   113   147   148    2
   114    14    13    1
   115     4     3    2
   116    12    13    1
   117    12     3   am
   118    16    13    1
   119     3     2    1
   120    31    32    1
   121    31    28    1
   122    33    32   ar
   123    33    35   ar
   124    32    34   ar
   125    35    37   ar
   126    25    24   ar
   127    23    24    1
   128    23    20    1
   129     9     7   ar
   130     9    11   ar
   131    34    36   ar
   132    37    36   ar
   133    37    38    1
   134     7     6   ar
   135    24    26   ar
   136    49    47   ar
   137    49    48   ar
   138    28    27    1
   139    28    29    1
   140    19    20    1
   141     2     1    1
   142     2     5    1
   143    47    45   ar
   144    20    21    1
   145    11    10   ar
   146     6     5    1
   147     6     8   ar
   148    48    46   ar
   149    29    30    2
   150   116   115    1
   151    10     8   ar
   152    45    44   ar
   153    21    22    2
   154    46    44   ar
   155    44    43    1
   156   115   114   ar
   157   115   113   ar
   158   114   112   ar
   159   113   111   ar
   160    39    40    1
   161    43    40    1
   162    40    41    1
   163   112   110   ar
   164   111   110   ar
   165   110   109    1
   166    41    42    2
   167   109   106    1
   168   106   105    1
   169   106   107    1
   170   107   108    2
