@<TRIPOS>MOLECULE
tmp/5am5A01.pdb
 194 189 0 0 0
SMALL
GASTEIGER

@<TRIPOS>ATOM
      1  N         18.1610   15.5010   29.8250 N.3   309  MET309     -0.1245
      2  CA        17.3230   16.6750   29.5750 C.3   309  MET309      0.1570
      3  C         17.3320   17.7230   30.6840 C.2   309  MET309      0.2261
      4  O         17.3640   18.8990   30.3690 O.2   309  MET309     -0.2867
      5  CB        15.9030   16.2510   29.2330 C.3   309  MET309      0.0387
      6  CG        15.2420   17.1720   28.2620 C.3   309  MET309      0.0595
      7  SD        15.1410   16.4460   26.6110 S.3   309  MET309     -0.1393
      8  CE        16.6670   17.0750   25.8880 C.3   309  MET309      0.0692
      9  N         16.3220   16.0760   18.2820 N.3   335  TRP335     -0.1241
     10  CA        16.6530   16.1540   19.7090 C.3   335  TRP335      0.1605
     11  C         16.4920   17.5630   20.2830 C.2   335  TRP335      0.2264
     12  O         16.0780   17.6900   21.4360 O.2   335  TRP335     -0.2867
     13  CB        18.0450   15.5610   20.0230 C.3   335  TRP335      0.0550
     14  CG        17.9680   14.1940   20.6230 C.ar  335  TRP335      0.0003
     15  CD1       18.4340   13.0370   20.0750 C.ar  335  TRP335      0.0946
     16  CD2       17.2900   13.8230   21.8360 C.ar  335  TRP335      0.0152
     17  NE1       18.1210   11.9710   20.8890 N.ar  335  TRP335     -0.2442
     18  CE2       17.4000   12.4220   21.9660 C.ar  335  TRP335      0.0810
     19  CE3       16.6550   14.5460   22.8580 C.ar  335  TRP335      0.0012
     20  CZ2       16.8690   11.7230   23.0590 C.ar  335  TRP335      0.0191
     21  CZ3       16.1310   13.8540   23.9440 C.ar  335  TRP335      0.0001
     22  CH2       16.2470   12.4590   24.0380 C.ar  335  TRP335      0.0015
     23  N         12.8080   18.0510   21.1480 N.3   338  MET338     -0.1245
     24  CA        12.4830   17.4380   22.4320 C.3   338  MET338      0.1570
     25  C         12.8730   18.3980   23.5660 C.2   338  MET338      0.2261
     26  O         12.1120   18.5560   24.5190 O.2   338  MET338     -0.2867
     27  CB        13.2510   16.1120   22.6130 C.3   338  MET338      0.0387
     28  CG        12.7360   15.2660   23.7380 C.3   338  MET338      0.0595
     29  SD        11.2990   14.2510   23.2830 S.3   338  MET338     -0.1393
     30  CE         9.9290   15.4580   23.6200 C.3   338  MET338      0.0692
     31  N         10.5660   20.6090   26.5340 N.3   342  TYR342     -0.1241
     32  CA        10.9250   20.5510   27.9560 C.3   342  TYR342      0.1605
     33  C         11.3240   21.9030   28.5680 C.2   342  TYR342      0.2264
     34  O         11.0330   22.1480   29.7420 O.2   342  TYR342     -0.2867
     35  CB        11.7960   19.3280   28.3170 C.3   342  TYR342      0.0534
     36  CG        10.9480   18.0710   28.3240 C.ar  342  TYR342     -0.0201
     37  CD1       10.7280   17.3450   27.1540 C.ar  342  TYR342     -0.0009
     38  CD2       10.2570   17.6810   29.4690 C.ar  342  TYR342     -0.0009
     39  CE1        9.8500   16.2570   27.1300 C.ar  342  TYR342      0.0417
     40  CE2        9.3930   16.5840   29.4580 C.ar  342  TYR342      0.0417
     41  CZ         9.1940   15.8720   28.2860 C.ar  342  TYR342      0.1957
     42  OH         8.3350   14.7960   28.2930 O.3   342  TYR342     -0.2866
     43  N          9.6020   16.7700   15.6560 N.3   359  THR359     -0.1218
     44  CA         9.5110   16.1910   16.9860 C.3   359  THR359      0.1862
     45  C          8.2060   16.5700   17.6590 C.2   359  THR359      0.2287
     46  O          8.0140   17.7500   17.9440 O.2   359  THR359     -0.2866
     47  CB        10.7580   16.5200   17.8450 C.3   359  THR359      0.1770
     48  OG1       11.9040   16.2650   17.0700 O.3   359  THR359     -0.2211
     49  CG2       10.8440   15.6800   19.1390 C.3   359  THR359      0.0375
     50  N          6.3330   14.5840   23.4640 N.3   362  ILE362     -0.1245
     51  CA         6.2410   13.2350   24.0160 C.3   362  ILE362      0.1561
     52  C          6.1300   13.2200   25.5570 C.2   362  ILE362      0.2260
     53  O          7.1480   13.4090   26.2540 O.2   362  ILE362     -0.2867
     54  CB         7.1900   12.1610   23.3500 C.3   362  ILE362      0.0252
     55  CG1        7.9390   11.2130   24.3340 C.3   362  ILE362      0.0019
     56  CG2        8.0720   12.7060   22.2130 C.3   362  ILE362      0.0019
     57  CD1        7.1690    9.9320   24.7060 C.3   362  ILE362      0.0001
     58  N          5.7160   11.6160   29.2330 N.3   364  ALA364     -0.1245
     59  CA         6.0820   10.3260   29.8090 C.3   364  ALA364      0.1562
     60  C          4.8560    9.5060   30.1930 C.2   364  ALA364      0.2260
     61  O          3.8500   10.0570   30.6340 O.2   364  ALA364     -0.2867
     62  CB         6.9910   10.5190   31.0060 C.3   364  ALA364      0.0290
     63  N         10.1870    4.8380   28.3470 N.3   370  PRO370     -0.2116
     64  CA        10.6110    5.0410   26.9450 C.3   370  PRO370      0.1372
     65  C         11.1840    3.7580   26.3190 C.2   370  PRO370      0.2244
     66  O         10.8740    3.4960   25.1520 O.2   370  PRO370     -0.2868
     67  CB        11.6630    6.1590   27.0350 C.3   370  PRO370      0.0268
     68  CG        11.6230    6.6410   28.4720 C.3   370  PRO370      0.0207
     69  CD        11.1210    5.4990   29.2760 C.3   370  PRO370      0.0892
     70  N          8.3660    1.4890   25.1460 N.3   373  SER373     -0.1202
     71  CA         7.7590    2.2130   24.0210 C.3   373  SER373      0.2020
     72  C          8.6170    2.1230   22.7520 C.2   373  SER373      0.2618
     73  O          8.0630    1.9320   21.6650 O.2   373  SER373     -0.2717
     74  CB         7.5380    3.6840   24.3800 C.3   373  SER373      0.2103
     75  OG         6.9500    3.8650   25.6590 O.3   373  SER373     -0.2182
     76  N          9.9600    2.2580   22.8890 N.am  374  ILE374     -0.1979
     77  CA        10.9170    2.1990   21.7770 C.3   374  ILE374      0.1595
     78  C         10.9720    0.8030   21.1390 C.2   374  ILE374      0.2287
     79  O         11.1300    0.6840   19.9190 O.2   374  ILE374     -0.2864
     80  CB        12.2950    2.8120   22.1740 C.3   374  ILE374      0.0276
     81  CG1       12.2390    4.3380   22.0060 C.3   374  ILE374      0.0022
     82  CG2       13.4660    2.2380   21.3630 C.3   374  ILE374      0.0022
     83  CD1       12.9940    5.1030   22.9760 C.3   374  ILE374      0.0001
     84  N         11.8980    2.8950   15.6690 N.3   380  PHE380     -0.1241
     85  CA        12.7420    3.3800   16.7550 C.3   380  PHE380      0.1605
     86  C         13.8610    2.4150   17.1730 C.2   380  PHE380      0.2264
     87  O         14.5390    2.6850   18.1690 O.2   380  PHE380     -0.2867
     88  CB        11.8920    3.8210   17.9680 C.3   380  PHE380      0.0534
     89  CG        11.2430    5.1770   17.8040 C.ar  380  PHE380     -0.0203
     90  CD1       12.0140    6.3300   17.7180 C.ar  380  PHE380     -0.0042
     91  CD2        9.8610    5.2990   17.7250 C.ar  380  PHE380     -0.0042
     92  CE1       11.4170    7.5810   17.5600 C.ar  380  PHE380     -0.0003
     93  CE2        9.2620    6.5510   17.5540 C.ar  380  PHE380     -0.0003
     94  CZ        10.0460    7.6830   17.4600 C.ar  380  PHE380     -0.0000
     95  N         17.5000    3.5320   18.0320 N.3   383  GLN383     -0.1245
     96  CA        17.7530    4.0870   19.3670 C.3   383  GLN383      0.1566
     97  C         18.3120    3.0190   20.3210 C.2   383  GLN383      0.2260
     98  O         19.1070    3.3630   21.2030 O.2   383  GLN383     -0.2867
     99  CB        16.5000    4.7380   19.9800 C.3   383  GLN383      0.0367
    100  CG        15.8710    5.8270   19.1310 C.3   383  GLN383      0.0905
    101  CD        15.1780    6.9080   19.9390 C.2   383  GLN383      0.2608
    102  OE1       15.2560    6.9900   21.1740 O.2   383  GLN383     -0.2717
    103  NE2       14.5110    7.7940   19.2440 N.am  383  GLN383     -0.0878
    104  N         22.9040   11.8120   24.1610 N.3   464  TRP464     -0.1227
    105  CA        21.5580   12.4200   24.2070 C.3   464  TRP464      0.1737
    106  C         20.4580   11.3140   24.2270 C.2   464  TRP464      0.2595
    107  O         19.4080   11.5190   24.8350 O.2   464  TRP464     -0.2718
    108  CB        21.3420   13.3380   23.0010 C.3   464  TRP464      0.0564
    109  CG        21.9400   14.7190   23.0980 C.ar  464  TRP464      0.0003
    110  CD1       23.2610   15.0490   22.9910 C.ar  464  TRP464      0.0946
    111  CD2       21.2190   15.9590   23.0930 C.ar  464  TRP464      0.0152
    112  NE1       23.4140   16.4180   23.0350 N.ar  464  TRP464     -0.2442
    113  CE2       22.1760   17.0030   23.0900 C.ar  464  TRP464      0.0810
    114  CE3       19.8530   16.2950   23.1190 C.ar  464  TRP464      0.0012
    115  CZ2       21.8080   18.3590   23.1020 C.ar  464  TRP464      0.0191
    116  CZ3       19.4960   17.6400   23.1800 C.ar  464  TRP464      0.0001
    117  CH2       20.4640   18.6520   23.1320 C.ar  464  TRP464      0.0015
    118  N         20.7330   10.1390   23.5850 N.am  465  TYR465     -0.1976
    119  CA        19.8600    8.9520   23.5040 C.3   465  TYR465      0.1639
    120  C         20.0420    7.9840   24.6620 C.2   465  TYR465      0.2290
    121  O         19.2920    7.0120   24.7670 O.2   465  TYR465     -0.2864
    122  CB        20.1770    8.1360   22.2390 C.3   465  TYR465      0.0560
    123  CG        19.8450    8.8060   20.9310 C.ar  465  TYR465     -0.0198
    124  CD1       18.5950    8.6390   20.3370 C.ar  465  TYR465     -0.0009
    125  CD2       20.8050    9.5330   20.2390 C.ar  465  TYR465     -0.0009
    126  CE1       18.3030    9.2090   19.1000 C.ar  465  TYR465      0.0417
    127  CE2       20.5170   10.1270   19.0160 C.ar  465  TYR465      0.0417
    128  CZ        19.2650    9.9570   18.4480 C.ar  465  TYR465      0.1957
    129  OH        18.9930   10.5450   17.2450 O.3   465  TYR465     -0.2866
    130  N         17.2880    7.7250   28.7520 N.3   468  MET468     -0.1245
    131  CA        15.8730    7.3350   28.7910 C.3   468  MET468      0.1570
    132  C         15.2460    7.2150   30.1810 C.2   468  MET468      0.2261
    133  O         14.1950    7.8120   30.4060 O.2   468  MET468     -0.2867
    134  CB        15.6190    6.0720   27.9600 C.3   468  MET468      0.0387
    135  CG        16.0040    6.2590   26.5190 C.3   468  MET468      0.0595
    136  SD        15.4080    4.9800   25.4200 S.3   468  MET468     -0.1393
    137  CE        16.4250    3.5910   25.9710 C.3   468  MET468      0.0692
    138  N         15.4940   10.8130   31.9360 N.3   471  ASN471     -0.1225
    139  CA        14.5220   11.7100   31.3170 C.3   471  ASN471      0.1785
    140  C         13.0970   11.3620   31.7170 C.2   471  ASN471      0.2597
    141  O         12.3200   12.2700   32.0120 O.2   471  ASN471     -0.2718
    142  CB        14.6640   11.6830   29.8010 C.3   471  ASN471      0.1169
    143  CG        15.9330   12.3220   29.3070 C.2   471  ASN471      0.2627
    144  OD1       16.6190   13.0680   30.0270 O.2   471  ASN471     -0.2716
    145  ND2       16.2670   12.0410   28.0680 N.am  471  ASN471     -0.0877
    146  N         12.7580   10.0590   31.7490 N.am  472  TRP472     -0.1976
    147  CA        11.4230    9.5750   32.1180 C.3   472  TRP472      0.1640
    148  C         11.0270    9.9960   33.5390 C.2   472  TRP472      0.2290
    149  O          9.9240   10.5010   33.7300 O.2   472  TRP472     -0.2864
    150  CB        11.3490    8.0600   31.9550 C.3   472  TRP472      0.0576
    151  CG        10.0300    7.4580   32.3370 C.ar  472  TRP472      0.0006
    152  CD1        8.9090    7.3680   31.5640 C.ar  472  TRP472      0.0946
    153  CD2        9.7250    6.8020   33.5650 C.ar  472  TRP472      0.0152
    154  NE1        7.9100    6.7350   32.2560 N.ar  472  TRP472     -0.2442
    155  CE2        8.3940    6.3370   33.4730 C.ar  472  TRP472      0.0810
    156  CE3       10.4520    6.5540   34.7440 C.ar  472  TRP472      0.0012
    157  CZ2        7.7600    5.6690   34.5270 C.ar  472  TRP472      0.0191
    158  CZ3        9.8120    5.9270   35.8050 C.ar  472  TRP472      0.0001
    159  CH2        8.4780    5.4930   35.6910 C.ar  472  TRP472      0.0015
    160  N         12.3330   12.5250   35.3490 N.3   474  TRP474     -0.1227
    161  CA        12.2660   13.9740   35.3260 C.3   474  TRP474      0.1737
    162  C         10.9760   14.4580   34.6820 C.2   474  TRP474      0.2595
    163  O         10.3200   15.3300   35.2500 O.2   474  TRP474     -0.2718
    164  CB        13.4920   14.5500   34.6050 C.3   474  TRP474      0.0564
    165  CG        13.5870   16.0460   34.6550 C.ar  474  TRP474      0.0003
    166  CD1       13.7130   16.8270   35.7690 C.ar  474  TRP474      0.0946
    167  CD2       13.5630   16.9420   33.5360 C.ar  474  TRP474      0.0152
    168  NE1       13.8060   18.1510   35.4090 N.ar  474  TRP474     -0.2442
    169  CE2       13.7290   18.2500   34.0430 C.ar  474  TRP474      0.0810
    170  CE3       13.4540   16.7670   32.1460 C.ar  474  TRP474      0.0012
    171  CZ2       13.8070   19.3720   33.2070 C.ar  474  TRP474      0.0191
    172  CZ3       13.4840   17.8880   31.3250 C.ar  474  TRP474      0.0001
    173  CH2       13.6810   19.1660   31.8530 C.ar  474  TRP474      0.0015
    174  N         10.5930   13.8670   33.5400 N.am  475  ALA475     -0.1980
    175  CA         9.3790   14.1980   32.7890 C.3   475  ALA475      0.1597
    176  C          8.1080   13.9180   33.5830 C.2   475  ALA475      0.2287
    177  O          7.1480   14.6760   33.4740 O.2   475  ALA475     -0.2864
    178  CB         9.3440   13.4270   31.4830 C.3   475  ALA475      0.0319
    179  N          9.8590   10.1670   12.8600 N.3   498  LEU498     -0.1245
    180  CA         9.0290   11.1800   13.5130 C.3   498  LEU498      0.1561
    181  C          7.8640   11.4830   12.5680 C.2   498  LEU498      0.2260
    182  O          7.8070   12.5550   11.9620 O.2   498  LEU498     -0.2867
    183  CB         9.8690   12.4540   13.8680 C.3   498  LEU498      0.0270
    184  CG        11.1210   12.2540   14.7690 C.3   498  LEU498      0.0019
    185  CD1       11.9790   13.5320   14.8480 C.3   498  LEU498      0.0001
    186  CD2       10.7360   11.8030   16.1730 C.3   498  LEU498      0.0001
    187  N          2.1990   10.8420   14.9130 N.3   502  MET502     -0.1245
    188  CA         2.7390   10.7740   16.2640 C.3   502  MET502      0.1570
    189  C          2.4200   12.0380   17.0620 C.2   502  MET502      0.2261
    190  O          2.5550   12.0260   18.2830 O.2   502  MET502     -0.2867
    191  CB         4.2570   10.6080   16.2060 C.3   502  MET502      0.0387
    192  CG         4.7100    9.1900   16.2440 C.3   502  MET502      0.0595
    193  SD         6.5160    9.0910   16.2920 S.3   502  MET502     -0.1393
    194  CE         6.8580    9.8150   17.8970 C.3   502  MET502      0.0692
@<TRIPOS>BOND
     1   182   181    2
     2   181   180    1
     3   179   180    1
     4   180   183    1
     5   183   184    1
     6   184   185    1
     7   184   186    1
     8   187   188    1
     9    43    44    1
    10    84    85    1
    11   191   192    1
    12   191   188    1
    13   192   193    1
    14   188   189    1
    15   193   194    1
    16    85    86    1
    17    85    88    1
    18    44    45    1
    19    44    47    1
    20   189   190    2
    21    48    47    1
    22    86    87    2
    23   129   128    1
    24    94    93   ar
    25    94    92   ar
    26    93    91   ar
    27    92    90   ar
    28    45    46    2
    29    90    89   ar
    30    91    89   ar
    31    89    88    1
    32    47    49    1
    33    95    96    1
    34     9    10    1
    35   128   127   ar
    36   128   126   ar
    37   127   125   ar
    38   126   124   ar
    39   100   101    1
    40   100    99    1
    41   103   101   am
    42    96    99    1
    43    96    97    1
    44    10    13    1
    45    10    11    1
    46    79    78    2
    47   101   102    2
    48    13    14    1
    49    15    14   ar
    50    15    17   ar
    51   125   123   ar
    52    11    12    2
    53    97    98    2
    54   124   123   ar
    55    14    16   ar
    56    17    18   ar
    57   123   122    1
    58    78    77    1
    59    23    24    1
    60    82    80    1
    61    73    72    2
    62    77    80    1
    63    77    76    1
    64    16    18   ar
    65    16    19   ar
    66    18    20   ar
    67    81    80    1
    68    81    83    1
    69    56    54    1
    70   122   119    1
    71    24    27    1
    72    24    25    1
    73    27    28    1
    74    72    76   am
    75    72    71    1
    76    19    21   ar
    77   110   112   ar
    78   110   109   ar
    79   108   109    1
    80   108   105    1
    81   112   113   ar
    82    20    22   ar
    83   113   111   ar
    84   113   115   ar
    85   111   109   ar
    86   111   114   ar
    87   115   117   ar
    88   114   116   ar
    89   117   116   ar
    90    29    30    1
    91    29    28    1
    92    54    51    1
    93    54    55    1
    94    50    51    1
    95   119   118    1
    96   119   120    1
    97    25    26    2
    98   118   106   am
    99    21    22   ar
   100    51    52    1
   101    71    74    1
   102    71    70    1
   103   104   105    1
   104   105   106    1
   105   106   107    2
   106    55    57    1
   107    74    75    1
   108   120   121    2
   109    66    65    2
   110   136   137    1
   111   136   135    1
   112    52    53    2
   113     8     7    1
   114    65    64    1
   115   135   134    1
   116    31    32    1
   117     7     6    1
   118    64    67    1
   119    64    63    1
   120    67    68    1
   121    39    37   ar
   122    39    41   ar
   123    37    36   ar
   124    32    35    1
   125    32    33    1
   126   134   131    1
   127   145   143   am
   128     6     5    1
   129    41    42    1
   130    41    40   ar
   131    35    36    1
   132    36    38   ar
   133    63    69    1
   134    68    69    1
   135    33    34    2
   136   130   131    1
   137   131   132    1
   138     5     2    1
   139    58    59    1
   140   143   142    1
   141   143   144    2
   142    40    38   ar
   143     2     1    1
   144     2     3    1
   145   142   139    1
   146    59    60    1
   147    59    62    1
   148   132   133    2
   149    60    61    2
   150     4     3    2
   151   139   140    1
   152   139   138    1
   153   172   173   ar
   154   172   170   ar
   155   178   175    1
   156   152   154   ar
   157   152   151   ar
   158   140   146   am
   159   140   141    2
   160   146   147    1
   161   173   171   ar
   162   150   147    1
   163   150   151    1
   164   147   148    1
   165   170   167   ar
   166   154   155   ar
   167   151   153   ar
   168   175   174    1
   169   175   176    1
   170   171   169   ar
   171   155   153   ar
   172   155   157   ar
   173   177   176    2
   174   167   169   ar
   175   167   165   ar
   176   148   149    2
   177   174   162   am
   178   153   156   ar
   179   169   168   ar
   180   157   159   ar
   181   164   165    1
   182   164   161    1
   183   165   166   ar
   184   162   163    2
   185   162   161    1
   186   156   158   ar
   187   161   160    1
   188   168   166   ar
   189   159   158   ar
