@<TRIPOS>MOLECULE
tmp/5am6B00.pdb
 140 131 0 0 0
SMALL
GASTEIGER

@<TRIPOS>ATOM
      1  N        221.9680  -36.1470   64.4370 N.3    25  LYS25      -0.1245
      2  CA       223.2750  -35.5620   64.7350 C.3    25  LYS25       0.1561
      3  C        223.9350  -34.9360   63.4960 C.2    25  LYS25       0.2260
      4  O        223.6350  -35.3260   62.3660 O.2    25  LYS25      -0.2867
      5  CB       224.2120  -36.6030   65.3770 C.3    25  LYS25       0.0271
      6  CG       224.6470  -37.7630   64.4770 C.3    25  LYS25       0.0035
      7  CD       225.8720  -38.4800   65.0470 C.3    25  LYS25       0.0206
      8  CE       226.5970  -39.3210   64.0020 C.3    25  LYS25       0.1093
      9  NZ       225.9620  -40.6500   63.7870 N.3    25  LYS25      -0.1314
     10  N        226.6290  -34.2980   60.5860 N.3    27  LEU27      -0.1231
     11  CA       227.6230  -35.0360   59.8180 C.3    27  LEU27       0.1693
     12  C        228.7660  -34.1350   59.3440 C.2    27  LEU27       0.2592
     13  O        229.8740  -34.6190   59.1090 O.2    27  LEU27      -0.2718
     14  CB       226.9650  -35.6920   58.6000 C.3    27  LEU27       0.0284
     15  CG       225.9010  -36.7530   58.8900 C.3    27  LEU27       0.0019
     16  CD1      225.1560  -37.1110   57.6180 C.3    27  LEU27       0.0001
     17  CD2      226.5250  -37.9880   59.5240 C.3    27  LEU27       0.0001
     18  N        228.5000  -32.8380   59.1930 N.am   28  GLY28      -0.1957
     19  CA       229.5000  -31.9170   58.6630 C.3    28  GLY28       0.1869
     20  C        229.1140  -30.4530   58.7600 C.2    28  GLY28       0.2309
     21  O        227.9310  -30.1100   58.8170 O.2    28  GLY28      -0.2863
     22  N        225.4290  -30.0270   57.4560 N.3    35  VAL35      -0.1245
     23  CA       224.8510  -31.2960   57.0240 C.3    35  VAL35       0.1561
     24  C        224.5320  -32.1480   58.2590 C.2    35  VAL35       0.2260
     25  O        225.3910  -32.3490   59.1190 O.2    35  VAL35      -0.2867
     26  CB       225.8020  -32.0620   56.0820 C.3    35  VAL35       0.0252
     27  CG1      225.1420  -33.3310   55.5530 C.3    35  VAL35       0.0019
     28  CG2      226.2420  -31.1730   54.9310 C.3    35  VAL35       0.0019
     29  N        220.7030  -37.5950   54.5730 N.3    55  ALA55      -0.1245
     30  CA       221.4720  -36.4310   54.9890 C.3    55  ALA55       0.1562
     31  C        220.6790  -35.1830   54.6170 C.2    55  ALA55       0.2260
     32  O        220.0190  -35.1440   53.5770 O.2    55  ALA55      -0.2867
     33  CB       222.8340  -36.4350   54.3300 C.3    55  ALA55       0.0290
     34  N        220.9630  -31.0250   54.1120 N.3    57  LYS57      -0.1245
     35  CA       221.7600  -29.8030   54.0020 C.3    57  LYS57       0.1561
     36  C        220.8840  -28.6140   54.3470 C.2    57  LYS57       0.2260
     37  O        219.7610  -28.4990   53.8600 O.2    57  LYS57      -0.2867
     38  CB       222.3280  -29.6150   52.5970 C.3    57  LYS57       0.0271
     39  CG       223.3910  -30.6370   52.2080 C.3    57  LYS57       0.0035
     40  CD       223.8380  -30.4640   50.7660 C.3    57  LYS57       0.0206
     41  CE       224.7820  -29.2770   50.5980 C.3    57  LYS57       0.1093
     42  NZ       226.2060  -29.6580   50.3620 N.3    57  LYS57      -0.1314
     43  N        225.8920  -38.4380   44.7510 N.3    88  ILE88      -0.1245
     44  CA       224.9370  -38.1670   45.8290 C.3    88  ILE88       0.1561
     45  C        223.6790  -37.5500   45.1970 C.2    88  ILE88       0.2260
     46  O        223.7480  -36.4970   44.5730 O.2    88  ILE88      -0.2867
     47  CB       225.5200  -37.2330   46.9120 C.3    88  ILE88       0.0252
     48  CG1      226.6550  -37.9240   47.6810 C.3    88  ILE88       0.0019
     49  CG2      224.4270  -36.7830   47.8760 C.3    88  ILE88       0.0019
     50  CD1      226.2370  -39.0830   48.5660 C.3    88  ILE88       0.0001
     51  N        219.2620  -35.2220   50.7950 N.3   104  VAL104     -0.1231
     52  CA       220.0930  -35.9730   49.8610 C.3   104  VAL104      0.1692
     53  C        220.5000  -37.3050   50.4790 C.2   104  VAL104      0.2592
     54  O        220.2270  -37.5630   51.6450 O.2   104  VAL104     -0.2718
     55  CB       221.3640  -35.1890   49.4690 C.3   104  VAL104      0.0266
     56  CG1      221.0010  -33.8860   48.7770 C.3   104  VAL104      0.0020
     57  CG2      222.2280  -34.9200   50.6740 C.3   104  VAL104      0.0020
     58  N        221.1880  -38.1300   49.6930 N.am  105  GLU105     -0.1966
     59  CA       221.5870  -39.4590   50.1320 C.3   105  GLU105      0.1733
     60  C        222.6100  -39.4480   51.2620 C.2   105  GLU105      0.2616
     61  O        223.5380  -38.6380   51.2820 O.2   105  GLU105     -0.2715
     62  CB       222.1110  -40.2820   48.9530 C.3   105  GLU105      0.0429
     63  CG       220.9960  -40.7780   48.0420 C.3   105  GLU105      0.1163
     64  CD       221.4950  -41.4690   46.7850 C.2   105  GLU105      0.3649
     65  OE1      222.5560  -41.0860   46.2500 O.co2 105  GLU105     -0.2457
     66  OE2      220.7940  -42.3810   46.3050 O.co2 105  GLU105     -0.2457
     67  N        222.4230  -40.3820   52.1910 N.am  106  TYR106     -0.1960
     68  CA       223.3250  -40.5940   53.3050 C.3   106  TYR106      0.1771
     69  C        224.3040  -41.7140   52.9570 C.2   106  TYR106      0.2619
     70  O        223.9020  -42.7820   52.5020 O.2   106  TYR106     -0.2715
     71  CB       222.5150  -40.9710   54.5480 C.3   106  TYR106      0.0574
     72  CG       223.3300  -41.4300   55.7360 C.ar  106  TYR106     -0.0198
     73  CD1      224.2940  -40.6060   56.2990 C.ar  106  TYR106     -0.0009
     74  CD2      223.1090  -42.6820   56.3240 C.ar  106  TYR106     -0.0009
     75  CE1      225.0310  -41.0110   57.3950 C.ar  106  TYR106      0.0417
     76  CE2      223.8430  -43.1010   57.4220 C.ar  106  TYR106      0.0417
     77  CZ       224.8020  -42.2580   57.9550 C.ar  106  TYR106      0.1957
     78  OH       225.5450  -42.6410   59.0460 O.3   106  TYR106     -0.2866
     79  N        225.5850  -41.4540   53.1790 N.am  107  ALA107     -0.1963
     80  CA       226.6540  -42.4260   52.9760 C.3   107  ALA107      0.1728
     81  C        227.2020  -42.7820   54.3450 C.2   107  ALA107      0.2617
     82  O        227.9410  -41.9940   54.9500 O.2   107  ALA107     -0.2715
     83  CB       227.7470  -41.8240   52.1150 C.3   107  ALA107      0.0334
     84  N        226.8430  -43.9670   54.8330 N.am  108  SER108     -0.1936
     85  CA       227.1290  -44.3460   56.2170 C.3   108  SER108      0.2055
     86  C        228.6080  -44.5270   56.5220 C.2   108  SER108      0.2643
     87  O        228.9990  -44.4290   57.6730 O.2   108  SER108     -0.2714
     88  CB       226.3720  -45.6250   56.6060 C.3   108  SER108      0.2130
     89  OG       226.7570  -46.7070   55.7790 O.3   108  SER108     -0.2179
     90  N        229.4300  -44.7740   55.5100 N.am  109  LYS109     -0.1963
     91  CA       230.8610  -44.9970   55.7410 C.3   109  LYS109      0.1728
     92  C        231.7480  -43.7760   55.4960 C.2   109  LYS109      0.2617
     93  O        232.9730  -43.8960   55.4800 O.2   109  LYS109     -0.2715
     94  CB       231.3360  -46.1830   54.9090 C.3   109  LYS109      0.0311
     95  CG       230.6930  -47.4910   55.3380 C.3   109  LYS109      0.0038
     96  CD       231.3690  -48.6650   54.6640 C.3   109  LYS109      0.0206
     97  CE       230.7270  -49.9820   55.0540 C.3   109  LYS109      0.1093
     98  NZ       231.1440  -51.0460   54.1030 N.3   109  LYS109     -0.1314
     99  N        231.1380  -42.6070   55.3080 N.am  110  GLY110     -0.1940
    100  CA       231.8850  -41.3520   55.2550 C.3   110  GLY110      0.2014
    101  C        232.6940  -41.1770   53.9920 C.2   110  GLY110      0.2638
    102  O        232.4780  -41.8760   53.0120 O.2   110  GLY110     -0.2714
    103  N        233.6410  -40.2450   54.0180 N.am  111  ASN111     -0.1972
    104  CA       234.3600  -39.8680   52.8030 C.3   111  ASN111      0.1688
    105  C        235.4560  -40.8600   52.4540 C.2   111  ASN111      0.2292
    106  O        235.9190  -41.5950   53.3090 O.2   111  ASN111     -0.2864
    107  CB       234.8900  -38.4200   52.8890 C.3   111  ASN111      0.1181
    108  CG       236.0990  -38.2710   53.7910 C.2   111  ASN111      0.2629
    109  OD1      237.1560  -38.8580   53.5500 O.2   111  ASN111     -0.2716
    110  ND2      235.9560  -37.4560   54.8280 N.am  111  ASN111     -0.0877
    111  N        239.0590  -40.9480   54.4940 N.3   114  GLU114     -0.1245
    112  CA       238.9710  -41.5880   55.8060 C.3   114  GLU114      0.1567
    113  C        238.7230  -43.0910   55.6990 C.2   114  GLU114      0.2260
    114  O        239.2530  -43.8640   56.4900 O.2   114  GLU114     -0.2867
    115  CB       237.8680  -40.9410   56.6470 C.3   114  GLU114      0.0388
    116  CG       238.1240  -39.4780   56.9760 C.3   114  GLU114      0.1160
    117  CD       237.1140  -38.8970   57.9570 C.2   114  GLU114      0.3649
    118  OE1      236.2140  -39.6460   58.4120 O.co2 114  GLU114     -0.2457
    119  OE2      237.2270  -37.6870   58.2810 O.co2 114  GLU114     -0.2457
    120  N        231.9050  -40.0400   48.6610 N.3   161  LEU161     -0.1245
    121  CA       231.3360  -40.6570   49.8550 C.3   161  LEU161      0.1561
    122  C        231.0750  -42.1290   49.5880 C.2   161  LEU161      0.2260
    123  O        230.8680  -42.5250   48.4400 O.2   161  LEU161     -0.2867
    124  CB       230.0540  -39.9360   50.2680 C.3   161  LEU161      0.0270
    125  CG       230.2240  -38.4530   50.5940 C.3   161  LEU161      0.0019
    126  CD1      228.8820  -37.7830   50.8460 C.3   161  LEU161      0.0001
    127  CD2      231.1450  -38.2790   51.7920 C.3   161  LEU161      0.0001
    128  N        230.1540  -36.2860   45.8130 N.3   171  ALA171     -0.1231
    129  CA       229.3760  -35.2720   46.5220 C.3   171  ALA171      0.1694
    130  C        229.7550  -33.8580   46.0760 C.2   171  ALA171      0.2592
    131  O        230.8520  -33.6230   45.5330 O.2   171  ALA171     -0.2718
    132  CB       229.6150  -35.3950   48.0120 C.3   171  ALA171      0.0304
    133  N        228.8440  -32.9280   46.3370 N.am  172  ASP172     -0.1974
    134  CA       229.1130  -31.5000   46.2490 C.3   172  ASP172      0.1709
    135  C        229.5830  -31.0670   44.8550 C.2   172  ASP172      0.2293
    136  O        230.4710  -30.2440   44.7130 O.2   172  ASP172     -0.2864
    137  CB       230.1010  -31.0750   47.3530 C.3   172  ASP172      0.1436
    138  CG       229.4750  -31.1370   48.7660 C.2   172  ASP172      0.3671
    139  OD1      228.2220  -31.1180   48.8970 O.co2 172  ASP172     -0.2456
    140  OD2      230.2400  -31.1970   49.7530 O.co2 172  ASP172     -0.2456
@<TRIPOS>BOND
     1    46    45    2
     2   136   135    2
     3    43    44    1
     4   135   134    1
     5    45    44    1
     6   131   130    2
     7   128   129    1
     8    44    47    1
     9   130   133   am
    10   130   129    1
    11   134   133    1
    12   134   137    1
    13    65    64   ar
    14    66    64   ar
    15   129   132    1
    16    64    63    1
    17    47    48    1
    18    47    49    1
    19   137   138    1
    20    48    50    1
    21    63    62    1
    22   123   122    2
    23   120   121    1
    24   138   139   ar
    25   138   140   ar
    26    56    55    1
    27    62    59    1
    28    55    52    1
    29    55    57    1
    30   122   121    1
    31    58    59    1
    32    58    53   am
    33   121   124    1
    34    52    53    1
    35    52    51    1
    36    59    60    1
    37   124   125    1
    38    42    41    1
    39    53    54    2
    40   125   126    1
    41   125   127    1
    42    41    40    1
    43    40    39    1
    44    60    61    2
    45    60    67   am
    46    83    80    1
    47    67    68    1
    48    39    38    1
    49   105   104    1
    50   105   106    2
    51    70    69    2
    52    38    35    1
    53   104   107    1
    54   104   103    1
    55   107   108    1
    56    69    79   am
    57    69    68    1
    58    80    79    1
    59    80    81    1
    60   102   101    2
    61    68    71    1
    62   109   108    2
    63    32    31    2
    64   108   110   am
    65    37    36    2
    66   101   103   am
    67   101   100    1
    68    35    34    1
    69    35    36    1
    70    98    97    1
    71    33    30    1
    72    81    84   am
    73    81    82    2
    74   111   112    1
    75    71    72    1
    76    29    30    1
    77    31    30    1
    78    96    97    1
    79    96    95    1
    80    84    85    1
    81    94    95    1
    82    94    91    1
    83    28    26    1
    84   100    99    1
    85    99    92   am
    86    93    92    2
    87    92    91    1
    88    90    91    1
    89    90    86   am
    90    27    26    1
    91   113   112    1
    92   113   114    2
    93    72    73   ar
    94    72    74   ar
    95    89    88    1
    96   112   115    1
    97    26    23    1
    98    85    86    1
    99    85    88    1
   100    73    75   ar
   101    74    76   ar
   102    86    87    2
   103   115   116    1
   104   116   117    1
   105    23    22    1
   106    23    24    1
   107    75    77   ar
   108    76    77   ar
   109    16    15    1
   110    77    78    1
   111   117   119   ar
   112   117   118   ar
   113    24    25    2
   114    14    15    1
   115    14    11    1
   116    19    20    1
   117    19    18    1
   118    20    21    2
   119    15    17    1
   120    13    12    2
   121    18    12   am
   122    12    11    1
   123    11    10    1
   124     4     3    2
   125     3     2    1
   126     9     8    1
   127     8     7    1
   128     1     2    1
   129     6     7    1
   130     6     5    1
   131     2     5    1
