@<TRIPOS>MOLECULE
tmp/5am8A00.pdb
 140 136 0 0 0
SMALL
GASTEIGER

@<TRIPOS>ATOM
      1  N         -2.7180   20.3700    9.0170 N.3   254  GLN254     -0.1245
      2  CA        -1.5860   20.3180    8.1140 C.3   254  GLN254      0.1566
      3  C         -0.4310   21.1470    8.5910 C.2   254  GLN254      0.2260
      4  O          0.7150   20.9160    8.2160 O.2   254  GLN254     -0.2867
      5  CB        -1.9990   20.7250    6.7070 C.3   254  GLN254      0.0367
      6  CG        -2.3140   22.2120    6.4940 C.3   254  GLN254      0.0905
      7  CD        -2.7180   22.4530    5.0570 C.2   254  GLN254      0.2608
      8  OE1       -3.6650   21.8400    4.5820 O.2   254  GLN254     -0.2717
      9  NE2       -1.9630   23.2640    4.3390 N.am  254  GLN254     -0.0878
     10  N         -9.2080   30.5070   -1.6950 N.3   326  HIS326     -0.1226
     11  CA        -7.8960   29.9050   -1.5340 C.3   326  HIS326      0.1752
     12  C         -6.8380   30.7140   -2.2770 C.2   326  HIS326      0.2596
     13  O         -6.9670   30.9470   -3.4730 O.2   326  HIS326     -0.2718
     14  CB        -7.8960   28.4520   -2.0280 C.3   326  HIS326      0.0759
     15  CG        -6.7020   27.6910   -1.5770 C.ar  326  HIS326      0.0818
     16  ND1       -6.7270   26.8280   -0.5060 N.ar  326  HIS326     -0.2268
     17  CD2       -5.4280   27.7070   -2.0200 C.ar  326  HIS326      0.1154
     18  CE1       -5.5190   26.3300   -0.3220 C.ar  326  HIS326      0.1986
     19  NE2       -4.7110   26.8700   -1.2130 N.ar  326  HIS326     -0.2212
     20  N         -5.8030   31.1460   -1.5690 N.am  327  ALA327     -0.1966
     21  CA        -4.7580   31.9970   -2.1580 C.3   327  ALA327      0.1728
     22  C         -4.1240   31.4190   -3.4210 C.2   327  ALA327      0.2616
     23  O         -3.6850   30.2700   -3.4290 O.2   327  ALA327     -0.2715
     24  CB        -3.6840   32.2930   -1.1170 C.3   327  ALA327      0.0334
     25  N         -4.0640   32.2150   -4.4770 N.am  328  SER328     -0.1950
     26  CA        -3.3560   31.7930   -5.6910 C.3   328  SER328      0.1924
     27  C         -2.6960   32.9530   -6.4460 C.2   328  SER328      0.2314
     28  O         -3.1270   34.1110   -6.3590 O.2   328  SER328     -0.2863
     29  CB        -4.3160   31.0590   -6.6370 C.3   328  SER328      0.2116
     30  OG        -5.4700   31.8440   -6.8820 O.3   328  SER328     -0.2180
     31  N         -0.7990   34.6750    7.6660 N.3   350  GLN350     -0.1245
     32  CA        -1.1930   35.2440    6.3780 C.3   350  GLN350      0.1566
     33  C         -0.0750   36.0490    5.7310 C.2   350  GLN350      0.2260
     34  O          0.0060   36.1100    4.5060 O.2   350  GLN350     -0.2867
     35  CB        -2.4640   36.0750    6.5110 C.3   350  GLN350      0.0367
     36  CG        -3.7000   35.2000    6.5890 C.3   350  GLN350      0.0905
     37  CD        -4.1910   34.7820    5.2060 C.2   350  GLN350      0.2608
     38  OE1       -4.8400   35.5630    4.5110 O.2   350  GLN350     -0.2717
     39  NE2       -3.8790   33.5540    4.8040 N.am  350  GLN350     -0.0878
     40  N          1.8880   33.7390    3.9500 N.3   353  THR353     -0.1218
     41  CA         1.1710   33.3430    2.7590 C.3   353  THR353      0.1862
     42  C          1.3410   34.3950    1.6810 C.2   353  THR353      0.2287
     43  O          1.5990   34.0740    0.5260 O.2   353  THR353     -0.2866
     44  CB        -0.3020   33.0080    3.0700 C.3   353  THR353      0.1770
     45  OG1       -0.3300   31.8410    3.9010 O.3   353  THR353     -0.2211
     46  CG2       -1.0650   32.7010    1.7960 C.3   353  THR353      0.0375
     47  N          4.5610   33.8080    0.0700 N.3   356  HIS356     -0.1226
     48  CA         4.4950   32.6020   -0.7580 C.3   356  HIS356      0.1752
     49  C          3.9240   32.9160   -2.1390 C.2   356  HIS356      0.2595
     50  O          4.5150   32.5560   -3.1670 O.2   356  HIS356     -0.2718
     51  CB         3.6280   31.5460   -0.0620 C.3   356  HIS356      0.0759
     52  CG         3.3350   30.3430   -0.9070 C.ar  356  HIS356      0.0818
     53  ND1        4.1140   29.2110   -0.8780 N.ar  356  HIS356     -0.2268
     54  CD2        2.3580   30.0990   -1.8120 C.ar  356  HIS356      0.1154
     55  CE1        3.6400   28.3220   -1.7370 C.ar  356  HIS356      0.1986
     56  NE2        2.5680   28.8370   -2.3160 N.ar  356  HIS356     -0.2212
     57  N          2.7840   33.6070   -2.1580 N.am  357  GLU357     -0.1979
     58  CA         2.1240   33.9600   -3.4170 C.3   357  GLU357      0.1602
     59  C          2.9660   34.9500   -4.2240 C.2   357  GLU357      0.2287
     60  O          3.0760   34.8240   -5.4420 O.2   357  GLU357     -0.2864
     61  CB         0.7120   34.5460   -3.1670 C.3   357  GLU357      0.0415
     62  CG        -0.2420   33.6520   -2.3890 C.3   357  GLU357      0.1163
     63  CD        -0.3510   32.2340   -2.9510 C.2   357  GLU357      0.3649
     64  OE1       -0.1030   32.0200   -4.1450 O.co2 357  GLU357     -0.2457
     65  OE2       -0.6880   31.3210   -2.1950 O.co2 357  GLU357     -0.2457
     66  N          5.6140   33.3480   -6.3780 N.3   360  HIS360     -0.1241
     67  CA         5.1360   32.8630   -7.6590 C.3   360  HIS360      0.1621
     68  C          5.1530   34.0140   -8.6540 C.2   360  HIS360      0.2264
     69  O          5.5650   33.8490   -9.8100 O.2   360  HIS360     -0.2867
     70  CB         3.6950   32.3740   -7.5390 C.3   360  HIS360      0.0745
     71  CG         3.5260   31.0810   -6.8010 C.ar  360  HIS360      0.0817
     72  ND1        4.2770   29.9620   -7.0720 N.ar  360  HIS360     -0.2268
     73  CD2        2.6420   30.7100   -5.8490 C.ar  360  HIS360      0.1154
     74  CE1        3.8720   28.9600   -6.3170 C.ar  360  HIS360      0.1986
     75  NE2        2.8670   29.3820   -5.5790 N.ar  360  HIS360     -0.2212
     76  N          3.8840   19.7500    8.6430 N.3   430  PHE430     -0.1241
     77  CA         3.3710   19.6590    7.2900 C.3   430  PHE430      0.1605
     78  C          3.9060   18.4750    6.5140 C.2   430  PHE430      0.2264
     79  O          3.2120   17.9260    5.6470 O.2   430  PHE430     -0.2867
     80  CB         3.6790   20.9540    6.5110 C.3   430  PHE430      0.0534
     81  CG         3.1340   20.9550    5.1080 C.ar  430  PHE430     -0.0203
     82  CD1        1.8090   21.2170    4.8790 C.ar  430  PHE430     -0.0042
     83  CD2        3.9480   20.6840    4.0290 C.ar  430  PHE430     -0.0042
     84  CE1        1.2970   21.2180    3.5810 C.ar  430  PHE430     -0.0003
     85  CE2        3.4460   20.6980    2.7350 C.ar  430  PHE430     -0.0003
     86  CZ         2.1180   20.9530    2.5150 C.ar  430  PHE430     -0.0000
     87  N        -10.3820   19.1070    1.0380 N.3   484  LYS484     -0.1245
     88  CA        -9.1280   19.8230    0.9190 C.3   484  LYS484      0.1561
     89  C         -9.0590   20.4420   -0.4670 C.2   484  LYS484      0.2260
     90  O         -9.1980   19.7470   -1.4410 O.2   484  LYS484     -0.2867
     91  CB        -7.9690   18.8480    1.0770 C.3   484  LYS484      0.0271
     92  CG        -6.5910   19.4360    0.8300 C.3   484  LYS484      0.0035
     93  CD        -6.1690   20.4120    1.9110 C.3   484  LYS484      0.0206
     94  CE        -4.9980   21.2490    1.4490 C.3   484  LYS484      0.1093
     95  NZ        -4.8140   22.4730    2.2730 N.3   484  LYS484     -0.1314
     96  N         -7.1320   21.3220   -2.8800 N.3   486  HIS486     -0.1241
     97  CA        -6.3760   20.9120   -4.0260 C.3   486  HIS486      0.1621
     98  C         -6.9600   19.7460   -4.7670 C.2   486  HIS486      0.2264
     99  O         -6.6810   19.5710   -5.9540 O.2   486  HIS486     -0.2867
    100  CB        -4.9640   20.5820   -3.5930 C.3   486  HIS486      0.0745
    101  CG        -4.2050   21.7840   -3.1230 C.ar  486  HIS486      0.0817
    102  ND1       -4.5330   22.4680   -1.9730 N.ar  486  HIS486     -0.2268
    103  CD2       -3.1600   22.4390   -3.6660 C.ar  486  HIS486      0.1154
    104  CE1       -3.7030   23.4790   -1.8170 C.ar  486  HIS486      0.1986
    105  NE2       -2.8520   23.4750   -2.8210 N.ar  486  HIS486     -0.2212
    106  N         -0.0160   18.1370   -5.3940 N.3   493  TYR493     -0.1241
    107  CA         0.3830   18.4200   -4.0240 C.3   493  TYR493      0.1605
    108  C          1.8520   18.0890   -3.6970 C.2   493  TYR493      0.2264
    109  O          2.4510   18.6790   -2.7910 O.2   493  TYR493     -0.2867
    110  CB        -0.5500   17.6950   -3.0410 C.3   493  TYR493      0.0534
    111  CG        -0.7720   18.5460   -1.8260 C.ar  493  TYR493     -0.0201
    112  CD1       -1.6510   19.6300   -1.8750 C.ar  493  TYR493     -0.0009
    113  CD2       -0.0740   18.3190   -0.6500 C.ar  493  TYR493     -0.0009
    114  CE1       -1.8200   20.4580   -0.7810 C.ar  493  TYR493      0.0417
    115  CE2       -0.2540   19.1380    0.4550 C.ar  493  TYR493      0.0417
    116  CZ        -1.1270   20.2050    0.3820 C.ar  493  TYR493      0.1957
    117  OH        -1.2930   21.0090    1.4940 O.3   493  TYR493     -0.2866
    118  N          4.5810   20.6110   -2.8050 N.3   496  TYR496     -0.1241
    119  CA         4.7630   21.2380   -1.5160 C.3   496  TYR496      0.1605
    120  C          5.7390   20.4830   -0.6210 C.2   496  TYR496      0.2264
    121  O          6.5410   21.1160    0.0990 O.2   496  TYR496     -0.2867
    122  CB         3.4390   21.4590   -0.8000 C.3   496  TYR496      0.0534
    123  CG         2.4670   22.2760   -1.5830 C.ar  496  TYR496     -0.0201
    124  CD1        2.6390   23.6620   -1.7310 C.ar  496  TYR496     -0.0009
    125  CD2        1.3530   21.6840   -2.1740 C.ar  496  TYR496     -0.0009
    126  CE1        1.7330   24.4130   -2.4600 C.ar  496  TYR496      0.0417
    127  CE2        0.4550   22.4260   -2.9120 C.ar  496  TYR496      0.0417
    128  CZ         0.6480   23.7960   -3.0450 C.ar  496  TYR496      0.1957
    129  OH        -0.2810   24.4950   -3.7740 O.3   496  TYR496     -0.2866
    130  N          9.1520   22.1170    0.6500 N.3   500  PHE500     -0.1241
    131  CA         9.4430   22.2990    2.0800 C.3   500  PHE500      0.1605
    132  C         10.8390   21.8150    2.4040 C.2   500  PHE500      0.2264
    133  O         11.4660   22.3400    3.3210 O.2   500  PHE500     -0.2867
    134  CB         8.3940   21.6290    2.9790 C.3   500  PHE500      0.0534
    135  CG         7.2680   22.5460    3.3690 C.ar  500  PHE500     -0.0203
    136  CD1        6.5860   23.2790    2.4000 C.ar  500  PHE500     -0.0042
    137  CD2        6.8620   22.6630    4.6800 C.ar  500  PHE500     -0.0042
    138  CE1        5.5400   24.1110    2.7440 C.ar  500  PHE500     -0.0003
    139  CE2        5.8100   23.5020    5.0230 C.ar  500  PHE500     -0.0003
    140  CZ         5.1580   24.2410    4.0650 C.ar  500  PHE500     -0.0000
@<TRIPOS>BOND
     1    69    68    2
     2    68    67    1
     3    67    70    1
     4    67    66    1
     5    70    71    1
     6    72    71   ar
     7    72    74   ar
     8    30    29    1
     9    71    73   ar
    10    29    26    1
    11    27    28    2
    12    27    26    1
    13    74    75   ar
    14    99    98    2
    15    73    75   ar
    16    26    25    1
    17    60    59    2
    18   106   107    1
    19    98    97    1
    20    25    22   am
    21    59    58    1
    22    64    63   ar
    23    97   100    1
    24    97    96    1
    25   107   108    1
    26   107   110    1
    27   129   128    1
    28   108   109    2
    29   103   101   ar
    30   103   105   ar
    31   100   101    1
    32    13    12    2
    33    23    22    2
    34    22    21    1
    35    58    61    1
    36    58    57    1
    37    50    49    2
    38    61    62    1
    39   101   102   ar
    40   128   127   ar
    41   128   126   ar
    42   110   111    1
    43    63    62    1
    44    63    65   ar
    45   127   125   ar
    46   105   104   ar
    47   118   119    1
    48   126   124   ar
    49    56    54   ar
    50    56    55   ar
    51    12    20   am
    52    12    11    1
    53   125   123   ar
    54    21    20    1
    55    21    24    1
    56    57    49   am
    57    49    48    1
    58    14    15    1
    59    14    11    1
    60    17    15   ar
    61    17    19   ar
    62   102   104   ar
    63   112   111   ar
    64   112   114   ar
    65   111   113   ar
    66    54    52   ar
    67    55    53   ar
    68   124   123   ar
    69    10    11    1
    70   123   122    1
    71    15    16   ar
    72   119   122    1
    73   119   120    1
    74    90    89    2
    75    19    18   ar
    76    52    53   ar
    77    52    51    1
    78   114   116   ar
    79    48    51    1
    80    48    47    1
    81   113   115   ar
    82   120   121    2
    83    16    18   ar
    84    89    88    1
    85   116   115   ar
    86   116   117    1
    87    43    42    2
    88   130   131    1
    89    92    91    1
    90    92    93    1
    91    88    87    1
    92    88    91    1
    93    94    93    1
    94    94    95    1
    95    42    41    1
    96    46    44    1
    97   131   132    1
    98   131   134    1
    99   136   138   ar
   100   136   135   ar
   101   132   133    2
   102    86    85   ar
   103    86    84   ar
   104    85    83   ar
   105   138   140   ar
   106    41    44    1
   107    41    40    1
   108   134   135    1
   109    44    45    1
   110   135   137   ar
   111    84    82   ar
   112    83    81   ar
   113   140   139   ar
   114     9     7   am
   115    34    33    2
   116    38    37    2
   117     8     7    2
   118   137   139   ar
   119    39    37   am
   120    82    81   ar
   121     7     6    1
   122    81    80    1
   123    37    36    1
   124    79    78    2
   125    33    32    1
   126    32    35    1
   127    32    31    1
   128     6     5    1
   129    35    36    1
   130    80    77    1
   131    78    77    1
   132     5     2    1
   133    77    76    1
   134     2     3    1
   135     2     1    1
   136     4     3    2
