@<TRIPOS>MOLECULE
tmp/5am9C00.pdb
 132 127 0 0 0
SMALL
GASTEIGER

@<TRIPOS>ATOM
      1  N          9.2820   73.0930   17.3590 N.3   135  ASP135     -0.1239
      2  CA         8.7620   71.8950   16.7180 C.3   135  ASP135      0.1674
      3  C          8.8810   70.7700   17.7580 C.2   135  ASP135      0.2266
      4  O          9.9940   70.3420   18.0410 O.2   135  ASP135     -0.2867
      5  CB         9.6210   71.5850   15.4980 C.3   135  ASP135      0.1410
      6  CG         9.0490   70.4730   14.6130 C.2   135  ASP135      0.3668
      7  OD1        8.0470   69.7880   14.9850 O.co2 135  ASP135     -0.2456
      8  OD2        9.6330   70.2960   13.5140 O.co2 135  ASP135     -0.2456
      9  N          3.5240   82.6880    6.8060 N.3   254  GLN254     -0.1245
     10  CA         4.1380   82.5110    5.4910 C.3   254  GLN254      0.1566
     11  C          3.2720   81.6460    4.6000 C.2   254  GLN254      0.2260
     12  O          3.3520   81.7540    3.4100 O.2   254  GLN254     -0.2867
     13  CB         5.5510   81.9340    5.6050 C.3   254  GLN254      0.0367
     14  CG         5.6020   80.4400    5.9190 C.3   254  GLN254      0.0905
     15  CD         7.0290   79.9450    6.0800 C.2   254  GLN254      0.2608
     16  OE1        7.8520   80.5170    6.8190 O.2   254  GLN254     -0.2717
     17  NE2        7.3300   78.8810    5.3870 N.am  254  GLN254     -0.0878
     18  N         15.5070   70.5790   14.0210 N.3   325  CYS325     -0.1221
     19  CA        14.2920   69.9500   13.5210 C.3   325  CYS325      0.1808
     20  C         13.8890   70.4100   12.1090 C.2   325  CYS325      0.2601
     21  O         13.2170   69.6490   11.3770 O.2   325  CYS325     -0.2717
     22  CB        13.1320   70.1700   14.4920 C.3   325  CYS325      0.0970
     23  SG        12.9250   68.8630   15.7420 S.3   325  CYS325     -0.0800
     24  N         14.2920   71.6230   11.7250 N.am  326  HIS326     -0.1961
     25  CA        13.9210   72.1800   10.4120 C.3   326  HIS326      0.1787
     26  C         14.2160   71.1970    9.2890 C.2   326  HIS326      0.2620
     27  O         15.3360   70.7470    9.1280 O.2   326  HIS326     -0.2715
     28  CB        14.6150   73.5230   10.1690 C.3   326  HIS326      0.0785
     29  CG        14.0780   74.2520    8.9900 C.ar  326  HIS326      0.0821
     30  ND1       13.0510   75.1680    9.0820 N.ar  326  HIS326     -0.2267
     31  CD2       14.3740   74.1460    7.6760 C.ar  326  HIS326      0.1154
     32  CE1       12.7390   75.5960    7.8750 C.ar  326  HIS326      0.1986
     33  NE2       13.5430   75.0110    7.0080 N.ar  326  HIS326     -0.2212
     34  N         13.2040   70.8160    8.5250 N.am  327  ALA327     -0.1963
     35  CA        13.3740   69.7240    7.5640 C.3   327  ALA327      0.1728
     36  C         14.4700   70.0430    6.5210 C.2   327  ALA327      0.2616
     37  O         14.4970   71.1370    5.9600 O.2   327  ALA327     -0.2715
     38  CB        12.0640   69.4180    6.8610 C.3   327  ALA327      0.0334
     39  N         15.3590   69.0900    6.2820 N.am  328  SER328     -0.1950
     40  CA        16.4220   69.2400    5.2720 C.3   328  SER328      0.1924
     41  C         16.8080   67.8720    4.6490 C.2   328  SER328      0.2314
     42  O         16.5780   66.8110    5.2470 O.2   328  SER328     -0.2863
     43  CB        17.6410   69.9280    5.8880 C.3   328  SER328      0.2116
     44  OG        18.0990   69.1900    7.0110 O.3   328  SER328     -0.2180
     45  N         14.1900   65.2540    9.5090 N.3   342  GLN342     -0.1245
     46  CA        12.8810   65.9070    9.7230 C.3   342  GLN342      0.1566
     47  C         12.2570   65.3960   11.0120 C.2   342  GLN342      0.2260
     48  O         12.2080   64.1740   11.2620 O.2   342  GLN342     -0.2867
     49  CB        11.9480   65.6650    8.5310 C.3   342  GLN342      0.0367
     50  CG        10.5900   66.3540    8.5910 C.3   342  GLN342      0.0905
     51  CD         9.7570   66.1340    7.3300 C.2   342  GLN342      0.2608
     52  OE1       10.2760   65.7370    6.2910 O.2   342  GLN342     -0.2717
     53  NE2        8.4640   66.4030    7.4120 N.am  342  GLN342     -0.0878
     54  N          2.5510   68.2360    6.5700 N.3   350  GLN350     -0.1245
     55  CA         3.8080   67.5060    6.7270 C.3   350  GLN350      0.1566
     56  C          4.0200   66.4640    5.6320 C.2   350  GLN350      0.2260
     57  O          5.1480   66.2110    5.2380 O.2   350  GLN350     -0.2867
     58  CB         3.8970   66.8850    8.1110 C.3   350  GLN350      0.0367
     59  CG         4.2580   67.8870    9.2100 C.3   350  GLN350      0.0905
     60  CD         5.7560   68.0690    9.2950 C.2   350  GLN350      0.2608
     61  OE1        6.4940   67.1650    9.7710 O.2   350  GLN350     -0.2717
     62  NE2        6.2410   69.2130    8.7710 N.am  350  GLN350     -0.0878
     63  N          5.5740   68.3530    3.0030 N.3   353  THR353     -0.1218
     64  CA         6.9740   68.5510    3.3550 C.3   353  THR353      0.1862
     65  C          7.8300   67.3170    3.0540 C.2   353  THR353      0.2287
     66  O          8.9510   67.4310    2.5630 O.2   353  THR353     -0.2866
     67  CB         7.1140   68.9750    4.8420 C.3   353  THR353      0.1770
     68  OG1        6.4060   70.2100    5.0300 O.3   353  THR353     -0.2211
     69  CG2        8.5410   69.1680    5.2360 C.3   353  THR353      0.0375
     70  N          8.4330   67.3850   -0.5110 N.3   356  HIS356     -0.1226
     71  CA         9.4130   68.4550   -0.7640 C.3   356  HIS356      0.1752
     72  C         10.8490   67.9550   -0.5420 C.2   356  HIS356      0.2595
     73  O         11.7020   68.0960   -1.4020 O.2   356  HIS356     -0.2718
     74  CB         9.1550   69.6440    0.1440 C.3   356  HIS356      0.0759
     75  CG        10.1530   70.7420   -0.0400 C.ar  356  HIS356      0.0818
     76  ND1       10.0000   71.7150   -0.9930 N.ar  356  HIS356     -0.2268
     77  CD2       11.3310   70.9960    0.5740 C.ar  356  HIS356      0.1154
     78  CE1       11.0500   72.5110   -0.9810 C.ar  356  HIS356      0.1986
     79  NE2       11.8680   72.1060   -0.0300 N.ar  356  HIS356     -0.2212
     80  N         11.1060   67.3630    0.6130 N.am  357  GLU357     -0.1979
     81  CA        12.4510   66.8700    0.9630 C.3   357  GLU357      0.1602
     82  C         12.8950   65.6710    0.0970 C.2   357  GLU357      0.2287
     83  O         14.0570   65.5910   -0.3550 O.2   357  GLU357     -0.2864
     84  CB        12.5320   66.5100    2.4360 C.3   357  GLU357      0.0415
     85  CG        12.2410   67.6360    3.4080 C.3   357  GLU357      0.1163
     86  CD        13.1070   68.8720    3.2400 C.2   357  GLU357      0.3649
     87  OE1       14.2630   68.7830    2.7470 O.co2 357  GLU357     -0.2457
     88  OE2       12.5900   69.9440    3.6130 O.co2 357  GLU357     -0.2457
     89  N         14.3260   66.7470   -3.2210 N.3   360  HIS360     -0.1241
     90  CA        15.7360   67.0130   -3.0930 C.3   360  HIS360      0.1621
     91  C         16.5850   65.7460   -3.2230 C.2   360  HIS360      0.2264
     92  O         17.6060   65.7670   -3.9180 O.2   360  HIS360     -0.2867
     93  CB        16.0850   67.6230   -1.7620 C.3   360  HIS360      0.0745
     94  CG        15.6200   69.0120   -1.5830 C.ar  360  HIS360      0.0817
     95  ND1       15.9130   70.0140   -2.4710 N.ar  360  HIS360     -0.2268
     96  CD2       14.9300   69.5960   -0.5770 C.ar  360  HIS360      0.1154
     97  CE1       15.4100   71.1480   -2.0450 C.ar  360  HIS360      0.1986
     98  NE2       14.8200   70.9200   -0.8930 N.ar  360  HIS360     -0.2212
     99  N         15.9660   80.3050    8.1180 N.3   486  HIS486     -0.1241
    100  CA        16.9010   80.4940    7.0320 C.3   486  HIS486      0.1621
    101  C         17.9020   81.6320    7.2510 C.2   486  HIS486      0.2264
    102  O         18.9780   81.6150    6.6640 O.2   486  HIS486     -0.2867
    103  CB        16.1440   80.6850    5.7310 C.3   486  HIS486      0.0745
    104  CG        15.3570   79.4890    5.3260 C.ar  486  HIS486      0.0817
    105  ND1       14.2340   79.0900    5.9960 N.ar  486  HIS486     -0.2268
    106  CD2       15.5110   78.6220    4.2990 C.ar  486  HIS486      0.1154
    107  CE1       13.7310   78.0180    5.4190 C.ar  486  HIS486      0.1986
    108  NE2       14.4890   77.7130    4.3900 N.ar  486  HIS486     -0.2212
    109  N         16.8030   82.4470    0.2560 N.3   493  TYR493     -0.1241
    110  CA        15.3410   82.3260    0.2820 C.3   493  TYR493      0.1605
    111  C         14.6690   82.5520   -1.0660 C.2   493  TYR493      0.2264
    112  O         13.5840   81.9860   -1.2930 O.2   493  TYR493     -0.2867
    113  CB        14.7020   83.2460    1.3460 C.3   493  TYR493      0.0534
    114  CG        13.5070   82.5580    1.9950 C.ar  493  TYR493     -0.0201
    115  CD1       13.6910   81.5300    2.9070 C.ar  493  TYR493     -0.0009
    116  CD2       12.1940   82.8990    1.6440 C.ar  493  TYR493     -0.0009
    117  CE1       12.6140   80.8740    3.4870 C.ar  493  TYR493      0.0417
    118  CE2       11.1090   82.2320    2.1950 C.ar  493  TYR493      0.0417
    119  CZ        11.3100   81.2270    3.1190 C.ar  493  TYR493      0.1957
    120  OH        10.2240   80.5760    3.6910 O.3   493  TYR493     -0.2866
    121  N         12.7610   79.9580   -3.0810 N.3   496  TYR496     -0.1241
    122  CA        11.4160   79.5130   -2.7690 C.3   496  TYR496      0.1605
    123  C         10.3840   80.3150   -3.5470 C.2   496  TYR496      0.2264
    124  O          9.4320   79.7450   -4.0200 O.2   496  TYR496     -0.2867
    125  CB        11.1820   79.5740   -1.2680 C.3   496  TYR496      0.0534
    126  CG        12.0920   78.6650   -0.4900 C.ar  496  TYR496     -0.0201
    127  CD1       12.0080   77.2750   -0.6070 C.ar  496  TYR496     -0.0009
    128  CD2       13.0120   79.1770    0.3730 C.ar  496  TYR496     -0.0009
    129  CE1       12.8330   76.4330    0.1380 C.ar  496  TYR496      0.0417
    130  CE2       13.8780   78.3530    1.0980 C.ar  496  TYR496      0.0417
    131  CZ        13.7650   76.9920    1.0110 C.ar  496  TYR496      0.1957
    132  OH        14.5920   76.2140    1.8000 O.3   496  TYR496     -0.2866
@<TRIPOS>BOND
     1   124   123    2
     2    92    91    2
     3   123   122    1
     4    91    90    1
     5    89    90    1
     6    90    93    1
     7   121   122    1
     8   122   125    1
     9    95    97   ar
    10    95    94   ar
    11    97    98   ar
    12    93    94    1
    13    94    96   ar
    14    73    72    2
    15   112   111    2
    16   125   126    1
    17   111   110    1
    18    76    78   ar
    19    76    75   ar
    20    78    79   ar
    21    98    96   ar
    22    71    72    1
    23    71    70    1
    24    71    74    1
    25   127   126   ar
    26   127   129   ar
    27    72    80   am
    28   126   128   ar
    29    83    82    2
    30    75    74    1
    31    75    77   ar
    32    79    77   ar
    33    82    81    1
    34   129   131   ar
    35   109   110    1
    36   110   113    1
    37   128   130   ar
    38    80    81    1
    39    81    84    1
    40   131   130   ar
    41   131   132    1
    42   113   114    1
    43   116   114   ar
    44   116   118   ar
    45   114   115   ar
    46   118   119   ar
    47    84    85    1
    48    66    65    2
    49    87    86   ar
    50   115   117   ar
    51    63    64    1
    52    65    64    1
    53   119   117   ar
    54   119   120    1
    55    86    85    1
    56    86    88   ar
    57    64    67    1
    58    12    11    2
    59   106   108   ar
    60   106   104   ar
    61   108   107   ar
    62    11    10    1
    63    41    42    2
    64    41    40    1
    65    67    68    1
    66    67    69    1
    67    57    56    2
    68    40    43    1
    69    40    39    1
    70   104   103    1
    71   104   105   ar
    72    17    15   am
    73   107   105   ar
    74    10    13    1
    75    10     9    1
    76    13    14    1
    77    56    55    1
    78   103   100    1
    79    43    44    1
    80    14    15    1
    81    37    36    2
    82    15    16    2
    83    39    36   am
    84    52    51    2
    85    36    35    1
    86    54    55    1
    87   102   101    2
    88    55    58    1
    89    38    35    1
    90    33    31   ar
    91    33    32   ar
    92   100   101    1
    93   100    99    1
    94    51    53   am
    95    51    50    1
    96    35    34    1
    97    31    29   ar
    98    32    30   ar
    99    58    59    1
   100    34    26   am
   101    49    50    1
   102    49    46    1
   103    62    60   am
   104    29    30   ar
   105    29    28    1
   106    27    26    2
   107    59    60    1
   108    26    25    1
   109    60    61    2
   110    45    46    1
   111    46    47    1
   112    28    25    1
   113    25    24    1
   114    47    48    2
   115    21    20    2
   116    24    20   am
   117    20    19    1
   118     8     6   ar
   119    19    18    1
   120    19    22    1
   121    22    23    1
   122     6     7   ar
   123     6     5    1
   124     5     2    1
   125     2     1    1
   126     2     3    1
   127     3     4    2
