@<TRIPOS>MOLECULE
tmp/5am9C09.pdb
 120 116 0 0 0
SMALL
GASTEIGER

@<TRIPOS>ATOM
      1  N         15.3590   69.0900    6.2820 N.3   328  SER328     -0.1202
      2  CA        16.4220   69.2400    5.2720 C.3   328  SER328      0.2020
      3  C         16.8080   67.8720    4.6490 C.2   328  SER328      0.2618
      4  O         16.5780   66.8110    5.2470 O.2   328  SER328     -0.2717
      5  CB        17.6410   69.9280    5.8880 C.3   328  SER328      0.2103
      6  OG        18.0990   69.1900    7.0110 O.3   328  SER328     -0.2182
      7  N         17.3780   67.9430    3.4530 N.am  329  ALA329     -0.1979
      8  CA        17.7650   66.8190    2.6300 C.3   329  ALA329      0.1597
      9  C         19.2530   66.9260    2.3380 C.2   329  ALA329      0.2287
     10  O         19.7390   67.9940    1.9310 O.2   329  ALA329     -0.2864
     11  CB        16.9970   66.8500    1.3390 C.3   329  ALA329      0.0319
     12  N         27.9280   63.4080   -0.8630 N.3   333  TYR333     -0.1241
     13  CA        28.9160   63.4980   -1.9310 C.3   333  TYR333      0.1605
     14  C         29.7710   62.2390   -2.1000 C.2   333  TYR333      0.2264
     15  O         30.8450   62.3020   -2.6960 O.2   333  TYR333     -0.2867
     16  CB        29.7730   64.7760   -1.7710 C.3   333  TYR333      0.0534
     17  CG        28.9440   66.0050   -1.9830 C.ar  333  TYR333     -0.0201
     18  CD1       28.6960   66.4870   -3.2640 C.ar  333  TYR333     -0.0009
     19  CD2       28.3520   66.6550   -0.9200 C.ar  333  TYR333     -0.0009
     20  CE1       27.8930   67.6060   -3.4720 C.ar  333  TYR333      0.0417
     21  CE2       27.5790   67.7830   -1.1080 C.ar  333  TYR333      0.0417
     22  CZ        27.3420   68.2450   -2.3820 C.ar  333  TYR333      0.1957
     23  OH        26.5710   69.3590   -2.5560 O.3   333  TYR333     -0.2866
     24  N         14.3260   66.7470   -3.2210 N.3   360  HIS360     -0.1241
     25  CA        15.7360   67.0130   -3.0930 C.3   360  HIS360      0.1621
     26  C         16.5850   65.7460   -3.2230 C.2   360  HIS360      0.2264
     27  O         17.6060   65.7670   -3.9180 O.2   360  HIS360     -0.2867
     28  CB        16.0850   67.6230   -1.7620 C.3   360  HIS360      0.0745
     29  CG        15.6200   69.0120   -1.5830 C.ar  360  HIS360      0.0817
     30  ND1       15.9130   70.0140   -2.4710 N.ar  360  HIS360     -0.2268
     31  CD2       14.9300   69.5960   -0.5770 C.ar  360  HIS360      0.1154
     32  CE1       15.4100   71.1480   -2.0450 C.ar  360  HIS360      0.1986
     33  NE2       14.8200   70.9200   -0.8930 N.ar  360  HIS360     -0.2212
     34  N         19.4450   64.4300   -6.0290 N.3   364  TYR364     -0.1241
     35  CA        20.7660   63.8950   -5.6650 C.3   364  TYR364      0.1605
     36  C         21.0330   62.5410   -6.3170 C.2   364  TYR364      0.2264
     37  O         22.1500   62.2960   -6.8080 O.2   364  TYR364     -0.2867
     38  CB        20.9460   63.7180   -4.1520 C.3   364  TYR364      0.0534
     39  CG        20.6930   64.9160   -3.2670 C.ar  364  TYR364     -0.0201
     40  CD1       20.8990   66.2200   -3.7240 C.ar  364  TYR364     -0.0009
     41  CD2       20.3170   64.7430   -1.9400 C.ar  364  TYR364     -0.0009
     42  CE1       20.7160   67.3160   -2.8760 C.ar  364  TYR364      0.0417
     43  CE2       20.1080   65.8300   -1.0880 C.ar  364  TYR364      0.0417
     44  CZ        20.2960   67.1290   -1.5710 C.ar  364  TYR364      0.1957
     45  OH        20.0740   68.2380   -0.7510 O.3   364  TYR364     -0.2866
     46  N         21.6840   62.8560  -10.2820 N.3   367  TYR367     -0.1241
     47  CA        22.8990   63.4900  -10.7690 C.3   367  TYR367      0.1605
     48  C         24.1730   63.0430  -10.0240 C.2   367  TYR367      0.2264
     49  O         25.2290   63.6680  -10.1780 O.2   367  TYR367     -0.2867
     50  CB        22.7410   65.0010  -10.8100 C.3   367  TYR367      0.0534
     51  CG        22.5630   65.7880   -9.5010 C.ar  367  TYR367     -0.0201
     52  CD1       23.2840   65.5010   -8.3380 C.ar  367  TYR367     -0.0009
     53  CD2       21.7200   66.8980   -9.4780 C.ar  367  TYR367     -0.0009
     54  CE1       23.1340   66.2620   -7.1810 C.ar  367  TYR367      0.0417
     55  CE2       21.5720   67.6660   -8.3400 C.ar  367  TYR367      0.0417
     56  CZ        22.2900   67.3540   -7.1980 C.ar  367  TYR367      0.1957
     57  OH        22.1680   68.1390   -6.0790 O.3   367  TYR367     -0.2866
     58  N         26.8080   68.8380   -9.2450 N.3   375  ARG375     -0.1231
     59  CA        25.7830   68.1880   -8.4370 C.3   375  ARG375      0.1694
     60  C         24.9810   69.2670   -7.6670 C.2   375  ARG375      0.2592
     61  O         25.1240   69.4500   -6.4500 O.2   375  ARG375     -0.2718
     62  CB        26.4260   67.1760   -7.5010 C.3   375  ARG375      0.0321
     63  CG        27.0310   65.9770   -8.2120 C.3   375  ARG375      0.0489
     64  CD        27.4200   64.8790   -7.2310 C.3   375  ARG375      0.2205
     65  NE        28.5830   64.1650   -7.7550 N.pl3 375  ARG375     -0.0865
     66  CZ        29.4100   63.3910   -7.0700 C.cat 375  ARG375      0.5346
     67  NH1       29.2240   63.1340   -5.7900 N.pl3 375  ARG375      0.1354
     68  NH2       30.4570   62.8490   -7.7100 N.pl3 375  ARG375      0.1354
     69  N         24.1850   70.0050   -8.4270 N.am  376  ARG376     -0.1966
     70  CA        23.3290   71.0920   -7.9360 C.3   376  ARG376      0.1729
     71  C         22.1570   71.1420   -8.8710 C.2   376  ARG376      0.2616
     72  O         22.2120   70.5630   -9.9250 O.2   376  ARG376     -0.2715
     73  CB        24.0130   72.4600   -8.0660 C.3   376  ARG376      0.0348
     74  CG        25.3300   72.5870   -7.3370 C.3   376  ARG376      0.0492
     75  CD        26.1340   73.7590   -7.8660 C.3   376  ARG376      0.2205
     76  NE        27.5490   73.4770   -7.6620 N.pl3 376  ARG376     -0.0865
     77  CZ        28.1900   73.5200   -6.4930 C.cat 376  ARG376      0.5346
     78  NH1       27.5600   73.8860   -5.3710 N.pl3 376  ARG376      0.1354
     79  NH2       29.4890   73.2090   -6.4530 N.pl3 376  ARG376      0.1354
     80  N         21.1270   71.8920   -8.5230 N.am  377  GLY377     -0.1955
     81  CA        20.0030   72.0680   -9.4100 C.3   377  GLY377      0.1869
     82  C         20.4000   73.0170  -10.5280 C.2   377  GLY377      0.2309
     83  O         21.3940   73.7730  -10.3990 O.2   377  GLY377     -0.2863
     84  N         15.7330   72.9740   -7.5670 N.3   383  HIS383     -0.1226
     85  CA        15.8650   72.0110   -6.4910 C.3   383  HIS383      0.1752
     86  C         14.6680   72.0530   -5.5660 C.2   383  HIS383      0.2595
     87  O         14.1530   71.0190   -5.1660 O.2   383  HIS383     -0.2718
     88  CB        17.1590   72.2230   -5.6710 C.3   383  HIS383      0.0759
     89  CG        17.9190   70.9620   -5.4640 C.ar  383  HIS383      0.0818
     90  ND1       19.1950   70.7560   -5.9610 N.ar  383  HIS383     -0.2268
     91  CD2       17.5500   69.7980   -4.8950 C.ar  383  HIS383      0.1154
     92  CE1       19.5870   69.5310   -5.6600 C.ar  383  HIS383      0.1986
     93  NE2       18.6160   68.9370   -4.9910 N.ar  383  HIS383     -0.2212
     94  N         14.2410   73.2660   -5.2180 N.am  384  GLU384     -0.1979
     95  CA        13.0620   73.4610   -4.3580 C.3   384  GLU384      0.1602
     96  C         11.7390   73.0600   -4.9610 C.2   384  GLU384      0.2287
     97  O         10.8360   72.6790   -4.2360 O.2   384  GLU384     -0.2864
     98  CB        12.9720   74.9170   -3.9000 C.3   384  GLU384      0.0415
     99  CG        14.2150   75.4170   -3.1240 C.3   384  GLU384      0.1163
    100  CD        14.6200   74.5120   -2.0040 C.2   384  GLU384      0.3649
    101  OE1       13.7390   73.8270   -1.4340 O.co2 384  GLU384     -0.2457
    102  OE2       15.8140   74.5110   -1.6550 O.co2 384  GLU384     -0.2457
    103  N         20.7300   80.1750    4.7820 N.3   491  THR491     -0.1218
    104  CA        20.1710   79.5070    3.6160 C.3   491  THR491      0.1862
    105  C         19.4090   80.5720    2.8400 C.2   491  THR491      0.2287
    106  O         18.4710   81.1590    3.4000 O.2   491  THR491     -0.2866
    107  CB        19.2290   78.3630    4.0160 C.3   491  THR491      0.1770
    108  OG1       19.9310   77.4840    4.8920 O.3   491  THR491     -0.2211
    109  CG2       18.7870   77.5510    2.8050 C.3   491  THR491      0.0375
    110  N         15.0960   81.3960   -3.9120 N.3   495  ARG495     -0.1245
    111  CA        14.7830   80.0490   -4.4170 C.3   495  ARG495      0.1563
    112  C         13.3460   79.5890   -4.2090 C.2   495  ARG495      0.2260
    113  O         12.7950   78.8600   -5.0560 O.2   495  ARG495     -0.2867
    114  CB        15.7050   78.9900   -3.8090 C.3   495  ARG495      0.0307
    115  CG        15.7560   78.9830   -2.2770 C.3   495  ARG495      0.0489
    116  CD        16.8250   78.0480   -1.7270 C.3   495  ARG495      0.2205
    117  NE        18.1410   78.4530   -2.1760 N.pl3 495  ARG495     -0.0865
    118  CZ        19.2760   77.8940   -1.7900 C.cat 495  ARG495      0.5346
    119  NH1       19.2790   76.8720   -0.9260 N.pl3 495  ARG495      0.1354
    120  NH2       20.4150   78.3630   -2.2840 N.pl3 495  ARG495      0.1354
@<TRIPOS>BOND
     1    50    47    1
     2    50    51    1
     3    47    46    1
     4    47    48    1
     5    82    83    2
     6    82    81    1
     7    49    48    2
     8    72    71    2
     9    51    53   ar
    10    51    52   ar
    11    53    55   ar
    12    81    80    1
    13    58    59    1
    14    71    80   am
    15    71    70    1
    16    59    60    1
    17    59    62    1
    18    69    70    1
    19    69    60   am
    20    55    56   ar
    21    52    54   ar
    22    63    62    1
    23    63    64    1
    24    73    70    1
    25    73    74    1
    26    75    76    1
    27    75    74    1
    28    65    64    1
    29    65    66    2
    30    68    66    1
    31    60    61    2
    32    76    77    2
    33    84    85    1
    34    56    54   ar
    35    56    57    1
    36    66    67    1
    37    37    36    2
    38    77    79    1
    39    77    78    1
    40    85    88    1
    41    85    86    1
    42    36    35    1
    43    34    35    1
    44    90    92   ar
    45    90    89   ar
    46    88    89    1
    47    35    38    1
    48    92    93   ar
    49    86    94   am
    50    86    87    2
    51    89    91   ar
    52    94    95    1
    53   113   112    2
    54    93    91   ar
    55    96    95    1
    56    96    97    2
    57   111   112    1
    58   111   110    1
    59   111   114    1
    60    95    98    1
    61    38    39    1
    62    27    26    2
    63    98    99    1
    64   114   115    1
    65    40    39   ar
    66    40    42   ar
    67    20    18   ar
    68    20    22   ar
    69    39    41   ar
    70    18    17   ar
    71    26    25    1
    72    24    25    1
    73    99   100    1
    74    25    28    1
    75    42    44   ar
    76    15    14    2
    77    23    22    1
    78    30    32   ar
    79    30    29   ar
    80    22    21   ar
    81   120   118    1
    82   115   116    1
    83   117   118    2
    84   117   116    1
    85    14    13    1
    86    32    33   ar
    87   100   102   ar
    88   100   101   ar
    89    17    16    1
    90    17    19   ar
    91    41    43   ar
    92    13    16    1
    93    13    12    1
    94   118   119    1
    95    28    29    1
    96    29    31   ar
    97    44    43   ar
    98    44    45    1
    99    21    19   ar
   100    33    31   ar
   101    11     8    1
   102    10     9    2
   103     9     8    1
   104     8     7    1
   105   109   107    1
   106   105   106    2
   107   105   104    1
   108     7     3   am
   109   104   107    1
   110   104   103    1
   111   107   108    1
   112     3     4    2
   113     3     2    1
   114     2     5    1
   115     2     1    1
   116     5     6    1
