@<TRIPOS>MOLECULE
tmp/5am9C01.pdb
 117 114 0 0 0
SMALL
GASTEIGER

@<TRIPOS>ATOM
      1  N          3.5240   82.6880    6.8060 N.3   254  GLN254     -0.1231
      2  CA         4.1380   82.5110    5.4910 C.3   254  GLN254      0.1698
      3  C          3.2720   81.6460    4.6000 C.2   254  GLN254      0.2592
      4  O          3.3520   81.7540    3.4100 O.2   254  GLN254     -0.2718
      5  CB         5.5510   81.9340    5.6050 C.3   254  GLN254      0.0381
      6  CG         5.6020   80.4400    5.9190 C.3   254  GLN254      0.0905
      7  CD         7.0290   79.9450    6.0800 C.2   254  GLN254      0.2608
      8  OE1        7.8520   80.5170    6.8190 O.2   254  GLN254     -0.2717
      9  NE2        7.3300   78.8810    5.3870 N.am  254  GLN254     -0.0878
     10  N          2.4800   80.7660    5.1990 N.am  255  SER255     -0.1952
     11  CA         1.4110   80.1120    4.4800 C.3   255  SER255      0.1924
     12  C          0.2950   79.8020    5.4390 C.2   255  SER255      0.2314
     13  O          0.4970   79.6490    6.6610 O.2   255  SER255     -0.2863
     14  CB         1.8980   78.8550    3.7480 C.3   255  SER255      0.2116
     15  OG         2.2440   77.8570    4.6510 O.3   255  SER255     -0.2180
     16  N         14.2920   71.6230   11.7250 N.3   326  HIS326     -0.1241
     17  CA        13.9210   72.1800   10.4120 C.3   326  HIS326      0.1621
     18  C         14.2160   71.1970    9.2890 C.2   326  HIS326      0.2264
     19  O         15.3360   70.7470    9.1280 O.2   326  HIS326     -0.2867
     20  CB        14.6150   73.5230   10.1690 C.3   326  HIS326      0.0745
     21  CG        14.0780   74.2520    8.9900 C.ar  326  HIS326      0.0817
     22  ND1       13.0510   75.1680    9.0820 N.ar  326  HIS326     -0.2268
     23  CD2       14.3740   74.1460    7.6760 C.ar  326  HIS326      0.1154
     24  CE1       12.7390   75.5960    7.8750 C.ar  326  HIS326      0.1986
     25  NE2       13.5430   75.0110    7.0080 N.ar  326  HIS326     -0.2212
     26  N          8.4330   67.3850   -0.5110 N.3   356  HIS356     -0.1226
     27  CA         9.4130   68.4550   -0.7640 C.3   356  HIS356      0.1752
     28  C         10.8490   67.9550   -0.5420 C.2   356  HIS356      0.2595
     29  O         11.7020   68.0960   -1.4020 O.2   356  HIS356     -0.2718
     30  CB         9.1550   69.6440    0.1440 C.3   356  HIS356      0.0759
     31  CG        10.1530   70.7420   -0.0400 C.ar  356  HIS356      0.0818
     32  ND1       10.0000   71.7150   -0.9930 N.ar  356  HIS356     -0.2268
     33  CD2       11.3310   70.9960    0.5740 C.ar  356  HIS356      0.1154
     34  CE1       11.0500   72.5110   -0.9810 C.ar  356  HIS356      0.1986
     35  NE2       11.8680   72.1060   -0.0300 N.ar  356  HIS356     -0.2212
     36  N         11.1060   67.3630    0.6130 N.am  357  GLU357     -0.1979
     37  CA        12.4510   66.8700    0.9630 C.3   357  GLU357      0.1602
     38  C         12.8950   65.6710    0.0970 C.2   357  GLU357      0.2287
     39  O         14.0570   65.5910   -0.3550 O.2   357  GLU357     -0.2864
     40  CB        12.5320   66.5100    2.4360 C.3   357  GLU357      0.0415
     41  CG        12.2410   67.6360    3.4080 C.3   357  GLU357      0.1163
     42  CD        13.1070   68.8720    3.2400 C.2   357  GLU357      0.3649
     43  OE1       14.2630   68.7830    2.7470 O.co2 357  GLU357     -0.2457
     44  OE2       12.5900   69.9440    3.6130 O.co2 357  GLU357     -0.2457
     45  N          7.6190   69.5920   -4.5720 N.3   388  ASP388     -0.1239
     46  CA         6.3720   70.3590   -4.5850 C.3   388  ASP388      0.1674
     47  C          5.5120   70.0110   -5.8180 C.2   388  ASP388      0.2266
     48  O          4.2840   69.9780   -5.7230 O.2   388  ASP388     -0.2867
     49  CB         6.6160   71.8720   -4.5750 C.3   388  ASP388      0.1410
     50  CG         7.0790   72.4030   -3.2400 C.2   388  ASP388      0.3668
     51  OD1        7.6860   71.6350   -2.4600 O.co2 388  ASP388     -0.2456
     52  OD2        6.8840   73.6140   -2.9930 O.co2 388  ASP388     -0.2456
     53  N          2.1100   82.4280    0.3720 N.3   430  PHE430     -0.1241
     54  CA         3.5890   82.3800    0.4800 C.3   430  PHE430      0.1605
     55  C          4.2960   83.3890   -0.4070 C.2   430  PHE430      0.2264
     56  O          5.3340   83.8920   -0.0240 O.2   430  PHE430     -0.2867
     57  CB         4.1140   80.9850    0.1730 C.3   430  PHE430      0.0534
     58  CG         5.5800   80.8520    0.3300 C.ar  430  PHE430     -0.0203
     59  CD1        6.1270   80.6870    1.6020 C.ar  430  PHE430     -0.0042
     60  CD2        6.4240   80.8800   -0.7730 C.ar  430  PHE430     -0.0042
     61  CE1        7.4980   80.5880    1.7700 C.ar  430  PHE430     -0.0003
     62  CE2        7.7840   80.7340   -0.6120 C.ar  430  PHE430     -0.0003
     63  CZ         8.3320   80.6070    0.6620 C.ar  430  PHE430     -0.0000
     64  N         13.3910   83.4580   11.9740 N.3   484  LYS484     -0.1245
     65  CA        13.0570   82.6120   10.8230 C.3   484  LYS484      0.1561
     66  C         14.2740   81.7630   10.4970 C.2   484  LYS484      0.2260
     67  O         15.3390   82.3240   10.2920 O.2   484  LYS484     -0.2867
     68  CB        12.6820   83.5100    9.6350 C.3   484  LYS484      0.0271
     69  CG        12.3970   82.7590    8.3340 C.3   484  LYS484      0.0035
     70  CD        11.2590   81.7580    8.3890 C.3   484  LYS484      0.0206
     71  CE        11.2810   80.8350    7.1560 C.3   484  LYS484      0.1093
     72  NZ        10.3820   79.6680    7.3270 N.3   484  LYS484     -0.1314
     73  N         15.9660   80.3050    8.1180 N.3   486  HIS486     -0.1241
     74  CA        16.9010   80.4940    7.0320 C.3   486  HIS486      0.1621
     75  C         17.9020   81.6320    7.2510 C.2   486  HIS486      0.2264
     76  O         18.9780   81.6150    6.6640 O.2   486  HIS486     -0.2867
     77  CB        16.1440   80.6850    5.7310 C.3   486  HIS486      0.0745
     78  CG        15.3570   79.4890    5.3260 C.ar  486  HIS486      0.0817
     79  ND1       14.2340   79.0900    5.9960 N.ar  486  HIS486     -0.2268
     80  CD2       15.5110   78.6220    4.2990 C.ar  486  HIS486      0.1154
     81  CE1       13.7310   78.0180    5.4190 C.ar  486  HIS486      0.1986
     82  NE2       14.4890   77.7130    4.3900 N.ar  486  HIS486     -0.2212
     83  N         16.8030   82.4470    0.2560 N.3   493  TYR493     -0.1241
     84  CA        15.3410   82.3260    0.2820 C.3   493  TYR493      0.1605
     85  C         14.6690   82.5520   -1.0660 C.2   493  TYR493      0.2264
     86  O         13.5840   81.9860   -1.2930 O.2   493  TYR493     -0.2867
     87  CB        14.7020   83.2460    1.3460 C.3   493  TYR493      0.0534
     88  CG        13.5070   82.5580    1.9950 C.ar  493  TYR493     -0.0201
     89  CD1       13.6910   81.5300    2.9070 C.ar  493  TYR493     -0.0009
     90  CD2       12.1940   82.8990    1.6440 C.ar  493  TYR493     -0.0009
     91  CE1       12.6140   80.8740    3.4870 C.ar  493  TYR493      0.0417
     92  CE2       11.1090   82.2320    2.1950 C.ar  493  TYR493      0.0417
     93  CZ        11.3100   81.2270    3.1190 C.ar  493  TYR493      0.1957
     94  OH        10.2240   80.5760    3.6910 O.3   493  TYR493     -0.2866
     95  N         12.7610   79.9580   -3.0810 N.3   496  TYR496     -0.1241
     96  CA        11.4160   79.5130   -2.7690 C.3   496  TYR496      0.1605
     97  C         10.3840   80.3150   -3.5470 C.2   496  TYR496      0.2264
     98  O          9.4320   79.7450   -4.0200 O.2   496  TYR496     -0.2867
     99  CB        11.1820   79.5740   -1.2680 C.3   496  TYR496      0.0534
    100  CG        12.0920   78.6650   -0.4900 C.ar  496  TYR496     -0.0201
    101  CD1       12.0080   77.2750   -0.6070 C.ar  496  TYR496     -0.0009
    102  CD2       13.0120   79.1770    0.3730 C.ar  496  TYR496     -0.0009
    103  CE1       12.8330   76.4330    0.1380 C.ar  496  TYR496      0.0417
    104  CE2       13.8780   78.3530    1.0980 C.ar  496  TYR496      0.0417
    105  CZ        13.7650   76.9920    1.0110 C.ar  496  TYR496      0.1957
    106  OH        14.5920   76.2140    1.8000 O.3   496  TYR496     -0.2866
    107  N          7.9970   78.5320   -6.2530 N.3   500  PHE500     -0.1241
    108  CA         6.5170   78.6020   -6.2180 C.3   500  PHE500      0.1605
    109  C          5.9210   79.0270   -7.5740 C.2   500  PHE500      0.2264
    110  O          4.7890   78.6580   -7.8870 O.2   500  PHE500     -0.2867
    111  CB         6.0160   79.4810   -5.0480 C.3   500  PHE500      0.0534
    112  CG         5.9090   78.7320   -3.7500 C.ar  500  PHE500     -0.0203
    113  CD1        6.9700   77.9100   -3.3030 C.ar  500  PHE500     -0.0042
    114  CD2        4.7540   78.8060   -2.9790 C.ar  500  PHE500     -0.0042
    115  CE1        6.8720   77.2150   -2.1200 C.ar  500  PHE500     -0.0003
    116  CE2        4.6520   78.1010   -1.7920 C.ar  500  PHE500     -0.0003
    117  CZ         5.7200   77.3030   -1.3570 C.ar  500  PHE500     -0.0000
@<TRIPOS>BOND
     1   110   109    2
     2   109   108    1
     3   107   108    1
     4   108   111    1
     5    47    48    2
     6    47    46    1
     7   111   112    1
     8    46    49    1
     9    46    45    1
    10    49    50    1
    11    98    97    2
    12   112   113   ar
    13   112   114   ar
    14    97    96    1
    15   113   115   ar
    16    50    52   ar
    17    50    51   ar
    18    95    96    1
    19   114   116   ar
    20    96    99    1
    21   115   117   ar
    22   116   117   ar
    23    29    28    2
    24    86    85    2
    25    99   100    1
    26    85    84    1
    27    32    34   ar
    28    32    31   ar
    29    34    35   ar
    30    60    62   ar
    31    60    58   ar
    32    27    28    1
    33    27    26    1
    34    27    30    1
    35    62    63   ar
    36   101   100   ar
    37   101   103   ar
    38    28    36   am
    39   100   102   ar
    40    55    56    2
    41    55    54    1
    42    39    38    2
    43    31    30    1
    44    31    33   ar
    45    35    33   ar
    46    38    37    1
    47   103   105   ar
    48    57    58    1
    49    57    54    1
    50    83    84    1
    51    84    87    1
    52    58    59   ar
    53    53    54    1
    54   102   104   ar
    55    36    37    1
    56    63    61   ar
    57    37    40    1
    58   105   104   ar
    59   105   106    1
    60    87    88    1
    61    59    61   ar
    62    90    88   ar
    63    90    92   ar
    64    88    89   ar
    65    92    93   ar
    66    40    41    1
    67    43    42   ar
    68    89    91   ar
    69    93    91   ar
    70    93    94    1
    71    42    41    1
    72    42    44   ar
    73     4     3    2
    74    14    11    1
    75    14    15    1
    76    80    82   ar
    77    80    78   ar
    78    82    81   ar
    79    11    10    1
    80    11    12    1
    81     3    10   am
    82     3     2    1
    83    78    77    1
    84    78    79   ar
    85     9     7   am
    86    81    79   ar
    87    12    13    2
    88     2     5    1
    89     2     1    1
    90     5     6    1
    91    77    74    1
    92     6     7    1
    93     7     8    2
    94    76    75    2
    95    25    23   ar
    96    25    24   ar
    97    74    75    1
    98    74    73    1
    99    71    72    1
   100    71    70    1
   101    23    21   ar
   102    24    22   ar
   103    69    70    1
   104    69    68    1
   105    21    22   ar
   106    21    20    1
   107    19    18    2
   108    18    17    1
   109    68    65    1
   110    20    17    1
   111    67    66    2
   112    17    16    1
   113    66    65    1
   114    65    64    1
