@<TRIPOS>MOLECULE
tmp/5am9A01.pdb
 135 130 0 0 0
SMALL
GASTEIGER

@<TRIPOS>ATOM
      1  N         -6.0560   23.7240   12.6780 N.3   250  ASP250     -0.1239
      2  CA        -6.1410   23.7260   11.2350 C.3   250  ASP250      0.1674
      3  C         -7.1150   22.6310   10.8030 C.2   250  ASP250      0.2266
      4  O         -7.0750   21.5120   11.3320 O.2   250  ASP250     -0.2867
      5  CB        -4.7400   23.4410   10.6630 C.3   250  ASP250      0.1410
      6  CG        -4.7130   23.4220    9.1330 C.2   250  ASP250      0.3668
      7  OD1       -5.0250   22.3620    8.5080 O.co2 250  ASP250     -0.2456
      8  OD2       -4.3620   24.4700    8.5680 O.co2 250  ASP250     -0.2456
      9  N         -2.7750   20.2050    9.0550 N.3   254  GLN254     -0.1231
     10  CA        -1.6580   20.2020    8.1270 C.3   254  GLN254      0.1698
     11  C         -0.4820   21.0270    8.5910 C.2   254  GLN254      0.2592
     12  O          0.6610   20.7800    8.2060 O.2   254  GLN254     -0.2718
     13  CB        -2.1160   20.6180    6.7440 C.3   254  GLN254      0.0381
     14  CG        -2.3320   22.1090    6.5260 C.3   254  GLN254      0.0905
     15  CD        -2.7670   22.4270    5.1120 C.2   254  GLN254      0.2608
     16  OE1       -3.6810   21.8160    4.5840 O.2   254  GLN254     -0.2717
     17  NE2       -2.0890   23.3810    4.4800 N.am  254  GLN254     -0.0878
     18  N         -0.7660   22.0520    9.3720 N.am  255  SER255     -0.1952
     19  CA         0.2830   22.7390   10.0780 C.3   255  SER255      0.1924
     20  C         -0.2830   23.2100   11.4120 C.2   255  SER255      0.2314
     21  O         -1.4920   23.4310   11.5400 O.2   255  SER255     -0.2863
     22  CB         0.8470   23.8800    9.2220 C.3   255  SER255      0.2116
     23  OG        -0.0300   24.9610    9.2460 O.3   255  SER255     -0.2180
     24  N          0.8940   25.7030   13.7620 N.3   257  GLU257     -0.1245
     25  CA         1.3020   26.9860   14.3350 C.3   257  GLU257      0.1567
     26  C          0.2210   27.6650   15.1690 C.2   257  GLU257      0.2260
     27  O          0.5660   28.3690   16.1320 O.2   257  GLU257     -0.2867
     28  CB         1.8450   27.9600   13.2710 C.3   257  GLU257      0.0388
     29  CG         0.8420   28.4690   12.2500 C.3   257  GLU257      0.1160
     30  CD         0.5070   27.4580   11.1400 C.2   257  GLU257      0.3649
     31  OE1        1.0840   26.3440   11.0980 O.co2 257  GLU257     -0.2457
     32  OE2       -0.3850   27.7850   10.3150 O.co2 257  GLU257     -0.2457
     33  N         -9.4540   30.4700   -1.6480 N.3   326  HIS326     -0.1241
     34  CA        -8.1850   29.7990   -1.4790 C.3   326  HIS326      0.1621
     35  C         -7.1310   30.5970   -2.2310 C.2   326  HIS326      0.2264
     36  O         -7.2930   30.8680   -3.4090 O.2   326  HIS326     -0.2867
     37  CB        -8.2340   28.3740   -2.0160 C.3   326  HIS326      0.0745
     38  CG        -7.0030   27.5960   -1.6950 C.ar  326  HIS326      0.0817
     39  ND1       -6.8820   26.8450   -0.5490 N.ar  326  HIS326     -0.2268
     40  CD2       -5.8240   27.4900   -2.3450 C.ar  326  HIS326      0.1154
     41  CE1       -5.6740   26.3080   -0.5030 C.ar  326  HIS326      0.1986
     42  NE2       -5.0150   26.6760   -1.5870 N.ar  326  HIS326     -0.2212
     43  N          4.2960   33.7700    0.1610 N.3   356  HIS356     -0.1226
     44  CA         4.1310   32.5830   -0.6790 C.3   356  HIS356      0.1752
     45  C          3.5770   32.9200   -2.0510 C.2   356  HIS356      0.2595
     46  O          4.1750   32.5940   -3.0790 O.2   356  HIS356     -0.2718
     47  CB         3.2280   31.5500    0.0090 C.3   356  HIS356      0.0759
     48  CG         3.0080   30.3270   -0.8190 C.ar  356  HIS356      0.0818
     49  ND1        3.8520   29.2420   -0.7610 N.ar  356  HIS356     -0.2268
     50  CD2        2.1110   30.0580   -1.7950 C.ar  356  HIS356      0.1154
     51  CE1        3.4550   28.3360   -1.6410 C.ar  356  HIS356      0.1986
     52  NE2        2.3970   28.8080   -2.2720 N.ar  356  HIS356     -0.2212
     53  N          2.4420   33.6020   -2.0650 N.am  357  GLU357     -0.1979
     54  CA         1.8000   33.9650   -3.3200 C.3   357  GLU357      0.1602
     55  C          2.6240   34.9670   -4.1280 C.2   357  GLU357      0.2287
     56  O          2.7090   34.8780   -5.3590 O.2   357  GLU357     -0.2864
     57  CB         0.3720   34.4910   -3.0920 C.3   357  GLU357      0.0415
     58  CG        -0.5410   33.5290   -2.3570 C.3   357  GLU357      0.1163
     59  CD        -0.6890   32.1860   -3.0360 C.2   357  GLU357      0.3649
     60  OE1       -0.5410   32.1230   -4.2650 O.co2 357  GLU357     -0.2457
     61  OE2       -0.9600   31.2040   -2.3300 O.co2 357  GLU357     -0.2457
     62  N          4.9650   24.8880   11.9960 N.3   426  GLU426     -0.1245
     63  CA         4.6390   25.3550   10.6510 C.3   426  GLU426      0.1567
     64  C          5.2060   24.4530    9.5350 C.2   426  GLU426      0.2260
     65  O          4.5160   24.2030    8.5420 O.2   426  GLU426     -0.2867
     66  CB         5.1630   26.7990   10.4700 C.3   426  GLU426      0.0388
     67  CG         4.6070   27.5250    9.2510 C.3   426  GLU426      0.1160
     68  CD         5.3230   28.8450    8.9060 C.2   426  GLU426      0.3649
     69  OE1        5.8060   29.5620    9.7970 O.co2 426  GLU426     -0.2457
     70  OE2        5.3800   29.1660    7.7180 O.co2 426  GLU426     -0.2457
     71  N          3.8340   19.7180    8.6530 N.3   430  PHE430     -0.1241
     72  CA         3.3090   19.6480    7.3050 C.3   430  PHE430      0.1605
     73  C          3.8640   18.4830    6.5160 C.2   430  PHE430      0.2264
     74  O          3.1340   17.9500    5.6610 O.2   430  PHE430     -0.2867
     75  CB         3.5440   20.9760    6.5450 C.3   430  PHE430      0.0534
     76  CG         3.0000   20.9730    5.1400 C.ar  430  PHE430     -0.0203
     77  CD1        1.6760   21.2260    4.9080 C.ar  430  PHE430     -0.0042
     78  CD2        3.8130   20.6690    4.0630 C.ar  430  PHE430     -0.0042
     79  CE1        1.1570   21.2050    3.6170 C.ar  430  PHE430     -0.0003
     80  CE2        3.3080   20.6430    2.7630 C.ar  430  PHE430     -0.0003
     81  CZ         1.9690   20.9040    2.5400 C.ar  430  PHE430     -0.0000
     82  N        -10.4560   18.9590    1.1160 N.3   484  LYS484     -0.1245
     83  CA        -9.2180   19.7160    1.0030 C.3   484  LYS484      0.1561
     84  C         -9.1780   20.3800   -0.3750 C.2   484  LYS484      0.2260
     85  O         -9.3420   19.6990   -1.3620 O.2   484  LYS484     -0.2867
     86  CB        -8.0390   18.7440    1.1930 C.3   484  LYS484      0.0271
     87  CG        -6.6600   19.3410    0.9340 C.3   484  LYS484      0.0035
     88  CD        -6.2940   20.4020    1.9750 C.3   484  LYS484      0.0206
     89  CE        -5.0980   21.2130    1.5150 C.3   484  LYS484      0.1093
     90  NZ        -4.9410   22.4590    2.3100 N.3   484  LYS484     -0.1314
     91  N         -7.2640   21.2340   -2.8530 N.3   486  HIS486     -0.1241
     92  CA        -6.5130   20.8430   -4.0020 C.3   486  HIS486      0.1621
     93  C         -7.1140   19.6620   -4.7230 C.2   486  HIS486      0.2264
     94  O         -6.8730   19.4780   -5.9020 O.2   486  HIS486     -0.2867
     95  CB        -5.0870   20.5450   -3.5830 C.3   486  HIS486      0.0745
     96  CG        -4.3560   21.7550   -3.0930 C.ar  486  HIS486      0.0817
     97  ND1       -4.6690   22.3900   -1.9090 N.ar  486  HIS486     -0.2268
     98  CD2       -3.3620   22.4710   -3.6490 C.ar  486  HIS486      0.1154
     99  CE1       -3.8780   23.4270   -1.7480 C.ar  486  HIS486      0.1986
    100  NE2       -3.0650   23.4880   -2.7780 N.ar  486  HIS486     -0.2212
    101  N         -0.1690   18.1270   -5.3810 N.3   493  TYR493     -0.1241
    102  CA         0.2510   18.4170   -4.0130 C.3   493  TYR493      0.1605
    103  C          1.7050   18.0990   -3.6680 C.2   493  TYR493      0.2264
    104  O          2.2610   18.7410   -2.7530 O.2   493  TYR493     -0.2867
    105  CB        -0.6780   17.7190   -2.9960 C.3   493  TYR493      0.0534
    106  CG        -0.8900   18.5680   -1.7660 C.ar  493  TYR493     -0.0201
    107  CD1       -1.7790   19.6510   -1.7990 C.ar  493  TYR493     -0.0009
    108  CD2       -0.1950   18.3150   -0.5830 C.ar  493  TYR493     -0.0009
    109  CE1       -1.9600   20.4490   -0.6970 C.ar  493  TYR493      0.0417
    110  CE2       -0.3900   19.1080    0.5360 C.ar  493  TYR493      0.0417
    111  CZ        -1.2680   20.1830    0.4620 C.ar  493  TYR493      0.1957
    112  OH        -1.4460   21.0040    1.5470 O.3   493  TYR493     -0.2866
    113  N          4.4140   20.6410   -2.7790 N.3   496  TYR496     -0.1241
    114  CA         4.5480   21.2770   -1.4730 C.3   496  TYR496      0.1605
    115  C          5.5010   20.4810   -0.5710 C.2   496  TYR496      0.2264
    116  O          6.2070   21.0620    0.2570 O.2   496  TYR496     -0.2867
    117  CB         3.1860   21.4510   -0.7960 C.3   496  TYR496      0.0534
    118  CG         2.2000   22.2770   -1.5860 C.ar  496  TYR496     -0.0201
    119  CD1        2.3890   23.6530   -1.7500 C.ar  496  TYR496     -0.0009
    120  CD2        1.0860   21.6880   -2.2010 C.ar  496  TYR496     -0.0009
    121  CE1        1.4990   24.4150   -2.4790 C.ar  496  TYR496      0.0417
    122  CE2        0.1950   22.4470   -2.9410 C.ar  496  TYR496      0.0417
    123  CZ         0.4040   23.8060   -3.0740 C.ar  496  TYR496      0.1957
    124  OH        -0.4940   24.5600   -3.7790 O.3   496  TYR496     -0.2866
    125  N          8.9050   22.0480    0.6740 N.3   500  PHE500     -0.1241
    126  CA         9.2960   22.2140    2.0940 C.3   500  PHE500      0.1605
    127  C         10.7110   21.7170    2.3790 C.2   500  PHE500      0.2264
    128  O         11.3120   22.1700    3.3490 O.2   500  PHE500     -0.2867
    129  CB         8.2670   21.6110    3.0620 C.3   500  PHE500      0.0534
    130  CG         7.1480   22.5610    3.4300 C.ar  500  PHE500     -0.0203
    131  CD1        6.4960   23.3280    2.4500 C.ar  500  PHE500     -0.0042
    132  CD2        6.7440   22.7000    4.7380 C.ar  500  PHE500     -0.0042
    133  CE1        5.4540   24.1870    2.7860 C.ar  500  PHE500     -0.0003
    134  CE2        5.7120   23.5760    5.0750 C.ar  500  PHE500     -0.0003
    135  CZ         5.0730   24.3190    4.1020 C.ar  500  PHE500     -0.0000
@<TRIPOS>BOND
     1    94    93    2
     2   101   102    1
     3    56    55    2
     4    93    92    1
     5    60    59   ar
     6    55    54    1
     7   102   103    1
     8   102   105    1
     9    92    95    1
    10    92    91    1
    11   124   123    1
    12   103   104    2
    13    98    96   ar
    14    98   100   ar
    15    95    96    1
    16    36    35    2
    17    54    57    1
    18    54    53    1
    19    96    97   ar
    20    57    58    1
    21    46    45    2
    22   123   122   ar
    23   123   121   ar
    24    59    58    1
    25    59    61   ar
    26   105   106    1
    27   122   120   ar
    28   113   114    1
    29   100    99   ar
    30   121   119   ar
    31    40    38   ar
    32    40    42   ar
    33    52    50   ar
    34    52    51   ar
    35    35    34    1
    36   120   118   ar
    37    53    45   am
    38    45    44    1
    39    37    38    1
    40    37    34    1
    41    97    99   ar
    42   107   106   ar
    43   107   109   ar
    44    50    48   ar
    45   106   108   ar
    46   119   118   ar
    47    38    39   ar
    48    33    34    1
    49    51    49   ar
    50    42    41   ar
    51   118   117    1
    52   114   117    1
    53   114   115    1
    54    85    84    2
    55    48    49   ar
    56    48    47    1
    57   109   111   ar
    58    44    47    1
    59    44    43    1
    60   108   110   ar
    61   115   116    2
    62    39    41   ar
    63    84    83    1
    64   111   110   ar
    65   111   112    1
    66   125   126    1
    67    87    86    1
    68    87    88    1
    69    83    82    1
    70    83    86    1
    71    89    88    1
    72    89    90    1
    73   126   127    1
    74   126   129    1
    75   127   128    2
    76   131   133   ar
    77   131   130   ar
    78    81    80   ar
    79    81    79   ar
    80    80    78   ar
    81   133   135   ar
    82   129   130    1
    83   130   132   ar
    84    79    77   ar
    85    78    76   ar
    86   135   134   ar
    87    17    15   am
    88    16    15    2
    89   132   134   ar
    90    77    76   ar
    91    15    14    1
    92    76    75    1
    93    74    73    2
    94    73    72    1
    95    14    13    1
    96    75    72    1
    97    13    10    1
    98    72    71    1
    99    70    68   ar
   100    10    11    1
   101    10     9    1
   102    12    11    2
   103     7     6   ar
   104    65    64    2
   105     8     6   ar
   106    11    18   am
   107    68    67    1
   108    68    69   ar
   109     6     5    1
   110    22    23    1
   111    22    19    1
   112    67    66    1
   113    18    19    1
   114    64    63    1
   115    19    20    1
   116    32    30   ar
   117    66    63    1
   118    63    62    1
   119     5     2    1
   120     3     2    1
   121     3     4    2
   122    31    30   ar
   123    30    29    1
   124     2     1    1
   125    20    21    2
   126    29    28    1
   127    28    25    1
   128    24    25    1
   129    25    26    1
   130    26    27    2
